# total energy = -340871.1565471702 ev
CRYSTAL
PRIMVEC
9.15886070047580 0.00000000000000 0.00000000000000
0.00000000000000 9.15886070047580 0.00000000000000
0.00000000000000 0.00000000000000 13.40491842697025
PRIMCOORD
 96 1
Ni 8.667405183378676 -0.25138507530502346 0.37319975143125395 -2.2250907827082584 0.27534277997621615 -0.8239359761759939
Ni 3.70593139739285 6.0153930200215155 4.830877594433525 1.9986210742836614 -0.4862316032434207 -2.403346907542106
Ni 3.3076033963548284 5.115406754035447 2.675555014215229 -0.6047751427079843 -0.2948237715189632 -0.8719577554709113
Ni 6.230287363411069 2.334456152872457 4.599978142359094 -0.3761264243541974 0.1441977496975581 0.7215608189411766
Ni 5.894660921203755 7.433065556791702 -0.14108583445747372 2.8126984124980203 -1.848506959101668 0.4769352655431592
Ni 2.135791310249484 2.750433278051111 7.411431412457198 0.9535679122442352 -0.7360623549914614 -0.11467531475840896
Ni 1.4280220491100493 2.300027996336578 5.169914796282754 0.1800155307271158 -0.3778310657501299 -0.5476143772262763
Ni 5.284451841873361 4.071791238037232 9.585816328987843 -0.18222539389424103 0.015209874971218968 -1.3672861788092774
Ni 7.0398756764817 3.3735013974922725 12.176920238395843 -1.2867651413350742 0.08690637217525678 0.26722040797939783
Ni 3.766654642360362 3.3351349309509586 4.345325185635609 -0.5091054225178007 -0.4565348475099363 0.07972579526641754
Ni 2.8694343522385757 2.2889182985770615 2.367147789461754 -0.042936137241893796 -0.09432786145030851 -0.5571058616564794
Ni 5.239335295159942 6.157043956170466 7.8485929819208975 0.2791824654372805 -0.6864765736435339 -1.3141751579169108
Ni 2.559168794694164 7.8734235685621385 8.850476150152224 -0.050989346563673474 1.30928723369699 -2.201199063692325
Ni 2.110842574308081 2.427729987977909 11.601152138005995 -1.3452222570307026 -0.735457888638243 1.274088060088038
Ni 1.23488915821564 7.065236561144603 1.0738159425375626 1.1197501366326845 0.2644122491066414 -0.9491343019529139
Ni 4.446049753739714 8.36817605270996 6.992246854339234 -0.8631478704887652 -0.5429624802765616 1.898219238725131
Ni 7.783694212461577 0.7837823077885105 9.234916571047826 1.8811530272714634 0.4695536283671075 -1.0977276096150062
Ni 2.4064081607856966 8.68174795888684 10.942072295052352 0.3009903053409913 0.8930593133362168 2.241887799660939
Ni 3.440333602398447 7.7364161746754085 13.025826623611426 -0.908611402138203 0.12245881535856974 0.5956523544711098
Ni 8.063845436755132 6.316115044948106 4.085805210454244 0.01568578616637299 0.04205527729883725 2.394296881524696
Ni 3.283021014832536 1.1245432071796537 13.29552026101148 0.4672296082196211 -1.719391557658529 0.30919495263897073
Ni 0.19983626087807776 7.156440493782082 12.136437159198119 0.15446313617930815 1.1787947494006668 -1.6345022159133014
Ni 4.433850151583345 7.147052661792384 1.8585654259925242 0.0723097053080045 0.7080453009532451 1.3749192698745032
Ni 5.022920580931081 8.721021152615451 11.583404098172204 -0.6578416835156606 0.8617710447458966 -1.6051443315764742
P 1.4288738231344804 4.1268634660899695 10.562351434960936 -0.5393521372174841 0.6329176665804713 0.5308528414972212
P 1.7779546313836154 3.9673252754279633 1.2937311732410215 1.111137712373325 1.9400721702051749 -0.49268661484014503
P 4.684033584393687 6.206144607191708 11.970390682280621 -0.6003813845156628 -0.6518044761826453 -0.2929990596053986
P 5.873558906663009 7.123193830247834 3.63529277007212 -1.0288341290774023 0.6356800598169569 -0.25465594105082595
P 7.182570722725115 3.281180083876507 9.39999770407097 1.2572280511079057 -1.6574030317708746 -0.7550116424004546
P 8.63704356089492 0.9999002749378927 3.405224942529071 -0.5063034342926312 -0.35528017703280745 0.10324984653028671
P 7.183312590423815 9.029106901366157 11.688002864258399 1.5297837552572882 -1.1352276634429932 0.22874076384696088
P 4.7369260036527185 8.526532750370334 9.356015940170744 0.15363806917485154 1.649197870252263 -0.5839276098350137
Ni 2.145463066913993 4.747834206481725 6.051261865310545 0.20756592954155867 -0.4709471662805244 -0.004592247356372737
Ni 0.20844558972716698 8.11271711626443 5.138856184516641 0.07302961419316455 -0.1350955302859738 0.466465476360087
Ni 6.133441572719292 6.879577300400041 5.757506069663333 0.3903086293918504 -0.7860137472089237 -0.07229299313745614
Ni 8.135174642155883 3.995873443537124 3.532383813744071 -1.2785882619512368 -2.277826165428761 -0.39848448033442335
Ni 7.5664277242082845 4.894027937427642 7.881984355450696 -0.9914477180091441 0.015407849914637981 0.07784940417931109
Ni 6.978025891675425 8.566776783309587 2.128902015398117 -1.5214626369861024 0.28225853325944295 -1.1598662879272796
Ni 8.784849251284923 5.606248404759265 10.033916325520126 0.8040623771805184 -1.7764561638820053 1.3413260073000899
Ni 4.894824758289207 5.172961033277655 0.6503596918927741 2.2746128006977857 1.8503679235698065 -0.7757876986055413
Ni 6.541935908887621 8.286607241295076 7.865965508475103 0.26241424484000614 0.24411338964828924 -0.6697240367755434
Ni 0.07999348741270786 8.174805031443128 7.613243239540327 0.929402113631309 2.1155959837095244 0.2078544073162549
Ni 1.3302878489519308 0.8882894852699285 9.350828361596143 -0.6308412436674168 0.6252074424204072 0.39665668309706525
Ni 3.6180887665507067 3.4002910643897044 0.08467916043312705 -0.2712814654226489 -2.133666210947674 0.6004770295532627
Ni 6.358877764518742 1.8200304364184199 2.4611561651775213 0.5430349853857099 0.29021918286741627 -1.0467835144669713
Ni 2.842122630293911 4.656483732076601 9.081791414492344 0.41248825081268314 -0.5683153572190535 -1.264690678033538
Ni 6.871361802551495 -0.160556655947132 4.420955391916714 -0.08368477991416555 -0.016913745036203128 0.3837841980097713
Ni 7.920985531023117 7.555693539728357 9.475829405282584 -1.5731649504564003 0.6456073462329979 1.5951748790685882
Ni 7.128057185161521 3.9066386659023618 1.232992358210697 -0.21727595774047095 -0.879411126425163 -0.2890236198974183
Ni 3.8417572982779493 4.15434920638371 11.315855465896039 -0.2893923160907468 0.9548177254909364 0.6035492407206833
Ni 4.3187324342384485 8.369577358363056 4.813531628574705 0.6322406951181047 0.028609950427208795 -0.8578519121971484
Ni 8.404207009829445 1.1798260890233798 5.763497796187881 0.16584978074969503 0.23811320620079635 -0.6910611076904227
Ni 0.6623239113348648 5.870115175123373 7.717586473419193 0.08283914408441863 -0.3631037868422843 0.1610446460515678
Ni 1.1311833810260257 4.226786633902271 3.7509774208805897 2.4361369574889333 -0.5435270945307801 0.10548979160439896
Ni 4.799645880204381 4.4765029648282475 6.0491031218959375 2.210074511805084 0.7662949286237577 -0.24243960149029212
Ni 0.5127084301144583 3.7184881951078514 8.602016414883796 -1.2278732520948723 -1.0388102664535077 0.7215158246358542
P 6.221036914328536 0.7403995333635308 6.360861573698224 0.7108035804246726 -1.1471933204453015 -0.19603273209097852
P 0.21832983195475966 1.3220631922429074 7.61946302169077 0.7610095118551022 0.9543986356756465 -0.4761819323169025
P 4.4785820261566975 1.9015809301123459 11.600481709419025 -1.9932055596950444 1.1953935342996123 0.8466498728337418
P 5.029927109196564 9.020296077586558 0.7503561305888977 -2.6915174354106095 0.9022206681205107 1.9536072285771324
P 8.114585523801892 6.7646610779856555 0.37991685970563904 -0.6528020642092242 -0.993043087520722 1.3204486496304484
P 1.1853946761938547 6.328690160384063 3.6504268711255623 0.5919353106308387 1.466459027056713 0.34754938404745306
P 0.7431352849882361 7.744210364941978 9.851689805682627 0.6027257163781232 -0.09515678510950708 0.8062185042915728
P 4.29906836079271 3.1974680991098308 7.483536373340415 -0.9527191910906947 -1.3398980166043117 2.825897684797114
Ni 9.14484742122354 8.034802690180173 2.7716946567641707 -0.25475492852253545 0.48208287118236975 0.48388444316748286
Ni 9.068874673560567 3.793856457979293 6.198447500846203 -0.5003855261462995 -0.08202847525766518 -0.34989937233686835
Ni 0.6034791486513399 4.913902664664369 12.570663313878699 -1.1383258427523428 -1.6582000737508733 0.2677698527249647
Ni 4.455593286357534 0.37036325234129336 2.8719099922257127 0.8384436828738656 0.7147278551797432 -1.5664134906651797
Ni 3.32114019214095 2.3155431059858937 9.742359572273624 1.271690506390139 -0.43871376016811536 -1.6210293782378469
Ni 6.277299794243382 1.467606644094904 10.704189211863634 0.07033689785234983 1.787573099730773 0.6456590254065397
Ni 2.306915459415849 0.3073896753543967 7.033064231944395 -1.2977946596763585 0.4123530107863995 -0.4449859663300723
Ni 0.04917758544925504 1.001860271080132 11.735483312861126 0.22839057959639375 -1.8230229558979507 0.7300290043131878
Ni 4.15883704801781 6.5482829991987055 9.709168777788289 0.4849704771428099 -1.2916443238042465 3.235943387606575
Ni 2.18548728720178 6.156283770750812 11.132838536399309 -0.08792889990250019 0.2340477778821711 -0.6269010280727462
Ni 8.760962943158939 2.902919146145246 10.7771386196829 0.6764544135208415 1.2799656019147376 -0.8668019223015845
Ni 2.7336176102139538 5.463974666097828 13.316659826880185 -0.3419271527646692 0.5831755621603376 0.8503774581969742
Ni -0.10405381388776892 5.364628506495624 1.9907378574330472 1.5416213713221643 -0.2338166357079715 -1.5114263357960227
Ni 6.944705957257353 6.052440610654032 2.140323114413877 -1.4377153792651174 0.9817392324721287 -2.3035091720171614
Ni 7.136785579196821 5.715266321025977 12.01048450990804 -0.17426602983784828 -0.012057188274850202 -0.3152007925134185
Ni 2.412947587166813 7.364090178533732 5.76668874317833 -2.307929669682361 1.040452944263253 1.5579206227028202
Ni 1.3357465297966726 0.3704255325925421 1.5539252405535493 1.5693160090239555 0.9779555970599803 0.9064395912978646
Ni 6.821748255343499 2.755424857011487 6.858022838151694 -0.14416483957709364 0.7795235114988898 1.5469263284748456
Ni 6.422458573955314 1.2351822417509282 13.53186282386784 0.864793119401672 1.0797841377627082 -1.2879735598208786
Ni 2.4452142526299423 8.293064237931894 3.247354580360064 -0.5646211961969179 -1.0099331784078414 0.5635171644994618
Ni 5.418244475732399 1.3848838162598256 8.522994682567777 -0.4813421363616033 0.036447958414388845 -1.219004745960649
Ni 4.231485129327359 1.4325282084651043 6.129506010372001 -0.2966939919584826 1.1407863884776932 0.2020575981288197
Ni 0.4467792888513903 2.520023825012241 1.7227734128911922 -1.3979681812741667 -0.5934592034745328 1.9151394115192373
Ni 5.75575764319813 4.72125519337528 3.636204992575705 -1.20758570549043 0.0878013731857004 0.20099881784700221
P 7.099811259448126 4.326242699830207 5.282234481751697 -0.19807290244945888 -0.20173106802733642 1.7065738370685706
P 6.438724710163806 5.939777467917174 9.70403432060446 0.4679289482794909 0.12791855292156032 0.35873239724746603
P 4.924343765609009 3.5582172956076255 1.9059515383323304 0.05843269021559614 -2.187302765326207 1.2821489827193016
P 1.4703085079358418 8.824845994991277 12.952006208160725 1.4444519266580027 0.5108290900771267 -0.3510250013008793
P 8.139378559115173 6.659105210979535 6.679510236237924 -1.0445577104602464 1.0341434571054575 -1.4555218113189192
P 3.028606188481471 1.1101637962295792 4.395525815800228 -0.407295393757834 -0.4070879057327182 -1.1895753849559385
P 8.38501919712855 2.3569319964848665 13.469127377253365 -0.4480080409858478 -0.41905227718344606 -1.1483881120843513
P 2.731721726095059 6.2195623377916185 7.613269800235713 1.9394836446915569 -0.3936052978652512 -1.4426662955124896
