# total energy = -340887.5417101249 ev
CRYSTAL
PRIMVEC
9.09602713293994 0.00000000000000 0.00000000000000

0.00000000000000 9.09602713293994 0.00000000000000

0.00000000000000 0.00000000000000 13.31295514957228

PRIMCOORD
 96 1
Ni 5.52235264503716 3.147652867169218 9.464486168689943 -1.4429740565608955 -0.5801725136679556 0.008310319637908268
Ni 4.462392614719807 0.6526917870715084 6.36980947257171 0.19658191972622918 -0.8384567954999882 -0.08423833842479041
Ni 2.9628943660467084 1.8821044338206045 5.021380769693853 -0.978872966667927 0.41504701267879485 0.3986598295700231
Ni 3.6819807832503324 2.68089933592658 2.734507680856455 1.7845695370177588 0.8278142281844776 1.6862230413263606
Ni 5.430118930908455 3.126204435422129 0.4802929674833264 -0.4267912976989166 0.0841771461695518 0.6987533341283579
Ni 5.133597545614408 4.769028782076096 3.0969261436038376 -0.6910886184942485 0.6242129397176217 -0.7608598736511154
Ni 5.5170769493572145 4.380501083329203 11.843084503744823 -0.8434221099250635 1.299419339763975 -1.0998773089681573
Ni 5.7334896245593985 7.797469118932611 12.592618052240658 0.11261406135400606 1.0492993389102896 -0.48298327150945203
Ni 2.341226398381391 5.382755918140392 11.847517907321386 -0.6527470426015726 0.17154271736941423 -0.6613455829038609
Ni 0.502519109541856 7.264878544015065 11.329071654442313 0.6025845628145686 0.4010352717807351 0.783845021692379
Ni 7.918591814922535 9.059615638170364 7.168001308085305 0.5056125788731938 1.7661139014157325 0.5818599286727076
Ni 8.817643127001547 2.541848370651875 1.6330470271947022 -0.1284523139378433 0.04447648514582017 0.2700681618408381
Ni 1.7316106665366384 1.3257732283433032 2.7797049295876306 -0.8716654210414729 -0.3505570605255253 0.7419067295873804
Ni 1.996268669129221 6.616104415787268 0.6643483457160779 0.7446416120200402 1.2824911965500685 -0.8634533175443259
Ni 7.572915499534649 3.960755819800287 4.3120125477737705 -0.5100297341042829 1.2683344454337122 -1.3257618343132458
Ni 7.745721821133973 4.077530614867774 12.851807523380167 0.7180921436662859 -0.24565630865537694 0.24091776552912705
Ni 6.757138314955471 0.7279686876027052 9.381599531941776 -0.27473291430635904 0.18320652686058772 -0.11466837277987349
Ni 7.167059869287246 0.9732839887066598 0.6162831196609594 -0.2014824423516401 -0.41556149042136814 -0.9439087918879164
Ni 1.8175499299575457 6.741711453105147 9.374437320254897 0.6788491390052632 -0.48874691346610666 0.37005245024597555
Ni 0.20385924829202332 5.09314751339248 1.51777034777978 -1.4105331624233708 -0.7805252132905267 0.7870074785807608
Ni 6.20472749712999 2.262955085750473 7.214050854549602 -0.05978020538242608 0.04953795882912759 0.11636247265284476
Ni 3.3964383025867924 4.655928781930503 1.0362048461143425 1.5488973361582872 -0.09311250098596867 -0.801516213719897
Ni 5.974034059483816 5.999020845747283 4.979165198624551 0.08546989683904635 0.4159772378025481 -0.005136292785300832
Ni 6.6632946040416785 2.1746508553006243 11.656929762472535 0.2232298613310607 -0.5980331959984603 -0.5465149735145103
P 0.18185050127961566 5.843797144405434 12.871311224547304 0.07414187342073683 -0.687778580284409 -1.3576555976980489
P 4.143431330731922 6.040562401213338 12.7468348233898 0.7746633551931111 0.9534229020259386 0.12439485603901804
P 3.0095933688412617 8.606833604452547 1.489479884497423 -0.6454728775376625 -0.024518039746022288 0.6621698785773692
P 6.413745102353216 8.09666473617477 6.091702084406079 -2.124507427266541 -0.21668383268242683 -1.8921717469794705
P 5.005871133997518 1.329811864346572 12.731457989688167 -0.5356037259186454 -0.8070893369323003 0.46223446899787496
P 3.7578325526901026 6.405995287319916 8.547862241983196 0.6830608630937656 0.5931519566467591 -2.030628994648825
P 4.8323098421543405 1.0856017305272954 3.9184683901174124 -0.5556233635736818 0.733634205165943 0.8614601983736971
P 0.14034532992169854 5.7518817912229325 3.7569957182029388 -0.8452378229775637 -0.09279856928997567 -1.0047410926839406
Ni 0.44393523782417 0.07302654344288882 4.865206533526911 -0.29633223774368966 1.5428750412236074 -0.4914352589315471
Ni 1.3408453451392859 6.9144995826504 5.098302231912868 1.9182707580593672 1.2762966377035827 -0.9954509256312662
Ni 8.261193673172798 7.3083848413205486 9.29546470393963 -0.7911484973323278 0.03573422017681588 0.8950696588980261
Ni 8.728019972631712 2.396966852048126 10.345657420427454 0.1831401923990265 0.8509281884941217 0.026248906394199956
Ni 3.34503665381546 4.536807211888144 4.976462768992634 -0.9368619123434639 0.9624947824202198 -0.8443405079742748
Ni 1.1377401574884134 1.3406088484363916 7.030677678344431 0.5525539806197387 0.6222349900556445 0.54542251178128
Ni 1.5643074412931208 1.4399738477600574 11.773937415832101 0.300975650052972 -0.2921328549503614 -0.25902373110121846
Ni 4.762634275070921 7.104506491371752 1.8243674022198204 -1.8067183052006561 -0.269356223375478 -0.3738286294589562
Ni 5.456961306686938 8.06427378390531 8.017673927805431 -0.8880700876517414 0.47627012115533457 1.5898863769761393
Ni 6.853628969736269 0.8493488011577025 5.055501786305254 -0.8125400756342264 0.5654647751441358 -0.3658170720083893
Ni 0.6343896710756143 7.649913368380753 7.430186100927238 0.6990932339662799 1.3704730611776914 -1.896117619001096
Ni 4.785065077737723 4.661904871692096 7.326478658297355 0.31695788441384126 0.9346870161793321 -0.4151897089042462
Ni 0.4142085118730833 0.19672341508354516 9.17748559489279 0.29034131026757737 0.6095861909433823 0.2550012402053866
Ni 4.431475218829919 0.7347306741000699 10.710964781360959 0.669285406576228 1.2676631303983008 -0.0023286481331766347
Ni 8.030009050066766 7.348189055623034 4.7665701259687 -0.22626504861295874 0.4538678422007344 -0.20091628543552495
Ni 7.3280049716337246 6.668570299721623 7.280069818765199 0.15592866498124117 -2.7793661168944777 -0.50369350747361
Ni 2.0759771540315723 5.57460022432269 2.7606942330857573 1.3739926442951755 0.13406631769051106 2.0667313967983376
Ni 3.547268622871031 4.703710211942148 9.769845253850603 -0.2942650708020158 -1.1237173488105485 0.1163943543320447
Ni 1.0880394657725116 3.4233989267167213 3.8325200306694707 -0.8701631254643336 0.5150307868633001 1.107218322714261
Ni 1.1998660221332904 0.47185822161433744 0.7463153741310677 -0.9094662939393304 -0.04966959931098543 -1.38837333849688
Ni 2.2805468020349817 5.633669823884013 6.777998233753435 -0.3696210191355118 -0.24239023630959547 2.828632053009141
Ni 5.091864973580631 3.239277147486619 5.119003879840434 1.5362143413739802 -1.4243132469265987 0.2747856219211654
Ni 4.1688547262930395 6.932100394961942 6.19044400587789 -0.23459465152457662 1.1362082821887076 0.5040375210765901
Ni 1.0261864819386664 7.857912218576126 2.5785863142410683 -0.06107835536855933 -0.1617864093135988 0.48784728446997266
P 0.23815036060896652 5.748188804246971 7.9543837717001535 -0.3075134511714897 -1.6163687395373842 1.1557129278805387
P 8.197648828310557 2.0659078521045036 8.159829367106974 0.9650872257377443 -1.7083530404561804 0.1754101707446205
P 1.770605334433064 3.5260930719349735 10.687747172355682 0.383251722545069 -0.42124285707686165 0.7673557657881042
P 3.7778438121657585 6.600732130099151 4.054873321127814 0.3119110660185531 -0.877817813796114 -1.08173920460655
P 7.152224249194156 4.092466291258241 10.465020944788929 0.35699947371675933 -0.5548060098787091 0.14836730769421544
P 6.394870846256858 7.8203547229511345 10.336138428135966 0.12650598884474987 0.1428656611496959 0.2703170446268506
P 2.2255158384769276 8.812285567078291 6.063012305536913 0.45309188326665845 0.06484990659584962 -0.39708220067025807
P 6.970221844263067 4.162169146422763 1.6209984297849505 0.5368247428099401 0.5069549518337012 1.0100514491532606
Ni 3.069881836025192 2.0708106106760393 0.5752363880655755 0.33736267332243836 -1.6081216690372433 -1.1644387377893106
Ni 1.1633454735902184 3.326544430854547 8.689126270635368 -0.4250439759905067 0.6237228874550806 -2.014255438386808
Ni 8.28490701565145 9.165793561742786 11.222621759661562 -0.79361624214653 -0.025696376324839617 0.6930755670172902
Ni 2.465450839590041 1.4615314318315593 9.438592508531148 0.17914752629986566 0.5206964697895098 0.6054976226963056
Ni 6.066449694153208 2.598634867427566 2.8509295500750067 1.9169399550630857 -0.7284927701743196 0.2036953908425589
Ni 4.198607830722526 7.567867204530564 10.529695516208841 -0.25571549266359184 -2.189025147333953 -0.5156205979284991
Ni 7.319791259221672 5.978745801487629 11.309701664872582 0.22336895801208628 1.8877126827668522 1.2927900073729153
Ni 7.517775383652183 4.140766194810846 8.321875088724614 1.1613683263941033 0.8461027420810202 -0.7382053694763931
Ni 3.366903502806131 8.682767238135627 12.563928273371493 -0.4485564572901501 0.20553501515445896 1.0467835144669713
Ni 0.1952489491012707 5.234827230480123 10.117659135591571 -0.4006118110900713 -2.1052904880184578 0.006287118560292399
Ni 8.523241116006512 2.632644912509146 5.987807263619287 0.2719522662374284 -0.0923321711765184 0.6112293829737602
Ni 3.646488085762147 3.1202101536064664 11.831276041448781 -0.7416871573774065 -0.5634693419806619 -0.6244222275149505
Ni 1.032326300186879 3.6396660654863546 12.992405722853421 0.5626185639445923 -0.6438566820904783 -0.21931792787116422
Ni 2.690914061691442 8.579108914051728 8.15405157073473 1.9015408468991961 0.09731702598561949 -0.29532616507667847
Ni 5.778605918649967 8.25906520284675 3.509228128210513 0.41221262855379337 -0.3208122251629249 1.4782588479051186
Ni 2.92006117474177 8.788017366950543 3.908390901766013 1.304907616572056 -1.3287607690405698 0.3353633835042224
Ni 3.5252744295018785 2.842444776057329 7.541935341058224 -1.2729891705969043 -0.75008412319185 -0.2733193217882841
Ni 5.708175381322694 5.781225574435871 9.269358196748229 1.1060764958003337 0.5828631731262413 0.8807447576349218
Ni 8.012162645025295 0.08295758575903477 2.7167085751555624 0.4661250623015327 0.24565399466253174 0.47247183045516694
Ni 5.0880901223613595 0.7224237495225415 1.6623489686832829 -1.3757103983172307 -1.1677809147886664 -0.3263611800056121
Ni 6.116677955437105 5.797334638313775 0.4173120762972168 0.4874222811174122 -0.6946614234471713 0.2646981557781764
Ni 8.739981248181932 7.798960867366252 0.3921051661795179 -0.3244176831259961 -0.02659317710749614 -0.1771538929086046
Ni 0.08004230909451308 5.101679586750736 5.858858345968975 -1.3538061420449718 -0.8582797437631863 0.5466309302670844
Ni 7.220680948654969 6.136634638750554 2.706457352687806 0.2737227278742899 0.1332031983592674 -0.03244835033669251
P 8.34446780067263 1.9558732130694996 3.856603581448423 0.91853097524476 -0.4270934023203677 -0.5897185054851779
P 1.9326783441318076 3.3120362677346966 1.8485573765150745 -2.400298607634085 1.185781722241461 -0.7406360904050728
P 4.526474125177078 1.1664381227819105 8.585125026332275 0.7621947904124551 0.15294567109351723 -0.9383590657142806
P 8.658089716791329 1.7081156287068116 12.607861174344889 0.7771084742994938 0.783706696342302 0.5505297511008583
P 6.837519905858366 7.936083474909665 1.3495738926814855 -1.4628561401968032 -0.35982151654658673 0.009715170405234883
P 1.6916791078556705 3.6400117145136615 6.193399305061362 0.5903240002796608 -2.199411118553967 -0.1428882868575152
P 6.6692252136681 4.436760010536899 6.267552846253812 0.29763038772982287 -0.6265716697577854 0.03456154002495338
P 2.1982004692926576 8.526797662576957 10.655197039613121 -0.5550242965371022 1.560477841907035 -0.06777993575845101
