# total energy = -340857.2861875218 ev
CRYSTAL
PRIMVEC
9.32533077074456 0.00000000000000 0.00000000000000
0.00000000000000 9.32533077074456 0.00000000000000
0.00000000000000 0.00000000000000 13.64856420186750
PRIMCOORD
 96 1
Ni 3.4862375552600056 0.38177717098707376 0.4978467637580402 2.6254274857600723 0.9036885109152888 -1.0407838452401108
Ni 7.787993924905074 1.4277267703423797 10.769740418332102 0.5053184446715426 -2.685247800351814 -2.236063736779994
Ni 0.435108736868565 6.324131498365669 1.8508543224156067 -1.091584987052378 -0.4845341609363397 0.27563022930964787
Ni 6.58105368259385 3.3725711001927743 10.485290790612826 0.4027733375177644 -0.07849423685216159 -0.3809768104679632
Ni 3.499237066160303 4.844761046986098 9.630781836324442 -1.3356384699970092 1.5775792774740123 -0.8439399301017465
Ni 4.839240451252256 5.98535156185427 13.30975159494383 0.3795382782492237 0.5845508452413095 1.0283787867075387
Ni 9.058038679599589 8.785300734620401 1.1586471525699258 -0.42719598933650293 -0.1447191694186669 0.7533337404773993
Ni 7.418925314502594 0.3439983915327815 13.437379935032528 -1.4407901615356995 -0.17197774802430382 -0.21771201683662506
Ni 4.877129269608 5.048165158720158 5.3488035604157 2.2259284481182053 -1.0497487677428825 -2.5363122788589547
Ni 6.5155618855688955 6.73432481685302 5.690454766228536 -0.2779948728870826 0.5815506249624048 0.35487779938806624
Ni 5.827520340916302 8.4148333246232 7.491451208422881 0.006684611109027196 1.4532638685226777 -1.7063578644030226
Ni 4.097839364726276 7.6332773643980225 9.1016271400373 -1.7513537123874223 -0.3230855945781339 -0.6085024709609005
Ni 0.6815865507894768 2.7960418592315373 8.061592597901548 -1.3978666226992957 3.6014079613715526 -0.3929468383456458
Ni 1.732105562154213 2.6653007237780475 3.4542199650698477 -1.5742556124174178 1.1755160786493948 -0.4542830753612821
Ni 5.32374732954195 1.8102704835073622 8.285183252853594 -0.8959325211189538 -0.5752699341600157 0.19346728535664742
Ni 2.5713200416738915 4.80616350350236 5.261753464036867 -0.46981048157291994 1.2886690432260064 -0.3484742098545676
Ni 9.18822962054582 0.9363937500304356 6.79590650274419 -0.8787544666777705 0.21511186020961662 -0.7496807171058443
Ni 3.2251562735701804 7.235617290279396 12.24012777871436 -0.9424314360114414 0.45707015118811606 0.25525038010171525
Ni 3.5303090678244273 2.237529157050339 12.495219400539579 -0.398901513267184 -1.7793900496993487 -1.2170270534089878
Ni 2.3667222876190013 1.4277640716649058 7.756779245682288 1.5697127302417417 -1.2308356771573061 -0.31609090842785564
Ni 8.302612295803849 4.2014810893646555 3.0120333022519823 0.9556533340183543 -1.659293049704736 0.6608922974165263
Ni 1.9350620580179612 3.2538689665845384 10.472038563252417 0.16393276623264025 -0.8322239272163989 -0.20644055768786382
Ni 8.052180541695185 1.5459533120884101 3.1692509164343976 -0.7318472884688493 1.5053456768195816 0.012263133638069204
Ni 0.24361307235091811 0.01616639318275104 3.5572247696260964 1.5252231324697991 -1.7234189336503674 -0.5327693417936437
P 8.123817731606291 4.346256847418538 9.172052969499376 0.5497270526939049 -0.39327362555744527 -0.260832502175183
P 7.095541498863785 8.230219754111591 2.045524329480213 0.5458354309489826 -0.8525986342180091 0.07384851055003411
P 3.664715058216092 6.6823360985824625 4.367308781319127 -0.30335546313905826 0.09988787203658926 0.06732459338858728
P 2.121708550607233 8.565913006183969 8.553295833839561 0.30439058927179186 2.0540807979138624 0.6658298439274597
P 4.347152079159161 2.0668942571553353 2.4414554872997623 -1.8569409488016344 1.371854257795934 -0.3683645210205914
P 7.55928086583715 2.012369048953013 5.243627818888441 1.935593308498215 0.09079028061069525 2.1335885636322027
P 6.951493116599159 5.362456776993265 12.674834593832708 -1.3354811184835387 -2.4243006269756378 -2.0701404224798865
P 8.483178672821388 7.680640718675361 5.7466734544735365 -0.03653126215681451 -0.22660546267151296 -0.6386363142318034
Ni 5.122758478441447 8.044291311980944 0.9097764588089736 1.5627473546675021 -0.007100872710839383 -0.12587812545276386
Ni 6.002566122200001 2.4393479625770453 4.000244184469355 -1.6084386860570299 1.847765195839637 -0.26101942137500855
Ni 8.899871746758887 6.549608667704466 11.49623962650896 -1.2768540528689494 0.28483889239210947 -0.25767364483122723
Ni 2.6526742261030103 8.50277119247815 5.221762716156786 0.08234600649808399 0.18920825296997737 1.393334539156897
Ni 5.548711605696014 3.0247549182994606 6.349311756136819 -1.6079907998863339 -0.8689469936690454 -1.8163745973434977
Ni 1.9167937353108724 6.908540643710516 7.261704902720989 2.457995962345554 -2.1699611887239656 -1.7105986419572476
Ni 3.5171790022952893 7.852599815520036 2.4724510212527084 -1.918966241464495 1.651201530945853 0.7382853307847091
Ni 1.846900382227855 7.986716720662126 0.7798055956656451 1.540446634287773 -1.1680380251047948 0.077457310947215
Ni 3.6919170476681487 1.1280106438462918 10.081852741634927 -1.5632592613069143 -2.7179074953683644 -1.1335448764239315
Ni 3.314110602463963 5.6804132502045475 1.8377112014235846 -1.902211904824292 0.45206112800929893 -0.7008600960587156
Ni 0.03936874832696128 4.447203551504417 11.586497636625026 -0.03177780663222914 -1.769417768977985 -3.5299472343274045
Ni 5.055243084669459 4.968051243265028 11.297913157303746 -0.0028755217755821448 0.9137340680767488 -1.2704476351219733
Ni 2.2802391713425627 2.7430460052527796 1.1632380128398083 3.6891666542447754 -0.4550050411289713 2.3617343742076424
Ni 9.178605879334123 2.057867337104053 1.307191276731993 0.5462897448775818 0.5223095799129004 -0.8653862729009806
Ni 0.24486639678779035 8.746367479233932 12.365148756358492 -1.122092668722932 0.03550359222324853 0.5894621664999978
Ni 0.8878992331474981 6.435028330235348 13.26666390476103 1.0551033471865765 -0.4951114222315537 -1.2677310075217587
Ni 3.0134153162515687 2.4078656463651353 5.4549491363286355 1.1094592962296375 -1.060928952729418 0.043489695752518646
Ni 0.18092726731297928 8.011382220182416 7.7096919211916415 -3.4808108818120695 1.9955547766535118 -0.9295530373868766
Ni 9.403849915407132 8.196863046442752 9.953925058432958 2.0693549504641133 2.527575670316905 1.2720013527623384
Ni 7.458371463073797 7.0560487236394245 13.58284576755314 0.9365549226260064 2.5704562717305146 1.1667771561145004
Ni 2.2746159969717747 0.24270385261434782 11.71250150411772 0.2521203191131658 0.16457297091980044 0.30597413170882787
Ni 8.1753774846678 2.4016736268258256 12.65276433382716 0.1276457588761479 1.6213589936631239 1.609126199042358
Ni 5.87938782988865 0.7045613678662787 2.460740271045683 0.6260376516311863 -1.123014409206253 -1.6224154599520964
Ni 7.02241225605164 5.014053099270167 1.2762722104902249 -0.4609401756664836 1.1450551910563764 0.8864109547817637
P 6.044324952767813 6.483492073527202 8.177414136877717 -2.2071614519233473 -2.996159735681892 -1.7247165694158684
P 3.1663320879467416 3.789198896815852 7.088027147440929 1.5389268552091369 0.006168076483924862 1.3033891230450005
P 1.3102089537243433 0.9529835132238562 5.060027911816476 0.5977385475761771 1.4294613667864413 0.8840370552329485
P 7.584617789162909 8.185598047039912 11.174243420068118 -0.2554943777917213 2.1803754420787547 2.2004105063527586
P 4.4221463880976035 2.9240599981406317 10.198438957722878 1.2496612945042413 2.6122811781861013 0.011951258824605224
P 0.8112105116333139 4.221679755512463 1.760351056103933 -0.054161316533751884 -0.3762930318390487 0.5084251086213244
P 4.944001215566415 8.552111516849363 12.58343050058203 -0.7237902224923277 0.7011321187731796 0.31688717907690583
P 6.518573967362868 2.257531991254885 0.7728666171427534 1.0522625353036716 -0.33625272808771123 -0.21687846519173617
Ni 5.448613506697601 6.812983980729638 2.8479914111134415 1.7865644559606004 -1.4305288888190073 1.3549759939833566
Ni 8.290563968627962 5.729968057180285 7.232579097559656 -0.5659216601758963 0.20538769094331724 1.5375582569963844
Ni 0.6541738088651489 6.182022784872394 9.20938226801723 -0.3152851246971086 -3.07280329247856 -0.05302694581899255
Ni 7.344602429369619 8.931969534792476 4.220859126416892 -0.41085328631242146 -0.8081026086881631 0.704197902182697
Ni 4.940961157780548 4.289652090485394 1.2014187140443178 -1.2536493326177118 -2.3367836177995756 1.4087832696117994
Ni 1.328038985891752 3.1725147821554196 13.02329608860572 -1.3834098238440176 1.0773341335603188 -2.3594941720232137
Ni 5.5132566986350895 1.0263552146324195 11.658316670483448 0.311944747469966 1.2822993922542367 0.8079678828825118
Ni 5.910860820769928 0.03459044891138581 9.590531844252803 0.18284811507990445 0.21793338881881175 0.9362818714702779
Ni 8.002159468187873 6.3510537278987815 3.726194165470316 -0.608585774703326 1.4419422728622715 -0.09867636822699134
Ni 1.4622584696707874 7.160361872083271 3.7305891937969378 0.5325988776540505 -0.09497449389537192 -0.4918422645619787
Ni 8.773354986081463 4.708564593113187 -0.00916306987850206 0.9937506551107077 -0.7929657530467247 1.5695926597241099
Ni 4.116555303303676 6.027763165566286 7.049155439236627 -0.4572136187445158 0.9612210579141186 2.2054267286204277
Ni 0.6651842267417492 1.1485823232193586 9.430706867625824 0.2943663722665705 -1.8450868776765257 0.9291971967093545
Ni 0.6238030720645124 3.460993885240562 5.367215493214514 -1.356775766196257 -1.2663408120424513 0.851598732198585
Ni 2.931604190621507 0.7351074208827872 3.391313149695943 -0.07930259168606987 -0.9587150036628134 -0.941594799042759
Ni 5.512557298837728 3.4210721448071535 12.84020068192092 2.1932885505959967 -1.2288939800499028 -0.27768016986014116
Ni 5.32036223452272 4.3187937487088 8.324477398535503 0.8373244816677579 -0.0425818392262686 0.2705402163812502
Ni 3.9440180359598487 4.036944955702647 3.4180367496866033 -0.11024710378372626 -1.5102014622499864 -0.2225940275192747
Ni 7.520832527643517 4.275701395860685 5.510457234379516 -0.29885397572427885 -0.06714513038792952 -1.0404750557504403
Ni 7.454622680159938 7.3331975500073066 9.298998695385848 0.6624521857044785 -0.46237099457573916 -0.992001276519769
Ni 5.5019637232403555 7.54395002227898 10.852505525285766 0.3879177605621706 -1.7411225215777177 1.290999748241712
Ni 4.866190656777262 8.854998255760158 4.407325640124976 0.4672180382553953 -0.8683119311882077 -0.07254701812979118
Ni 7.3485470442267395 2.808659031575943 7.64150323854806 2.3556436879288722 0.055496747515723775 0.6841193862652669
Ni 0.45482901355497685 5.918955207758061 5.33826686933518 -0.8801580318935164 0.10357072020481517 0.23283755962415384
P 3.3795184715132343 4.1836230812053525 13.077371815871604 0.11167972246519475 1.818468760868365 1.1535398314886198
P 7.504158836474412 0.4543450288952025 8.303759311471522 1.2198997469710926 0.8621469400280765 -0.12685488754373636
P 6.054564165801188 4.696842652509404 3.2950906581079766 0.9798551280755383 0.05876153430992461 0.8258951567848937
P 1.0534919267700553 4.779875396452192 7.211096333383893 -0.28715571345074414 0.7407641313425049 -0.23848730171076346
P 0.6546242223346498 1.7864722397357997 11.48029890632749 -0.4775669855898872 -0.4309462004075546 0.33756964712692183
P 2.376224799532489 6.710741055685982 10.399468840278162 0.2658577233039163 -0.34675697005314476 -0.4387307294489799
P 1.6830543230325758 0.6346391062583037 1.2445772767399166 -3.2970029739220577 1.4650369498982059 1.9089499948790738
P 4.966559190363989 0.6910666819094495 6.139028347995909 -0.6273329734038422 1.382441032172845 0.7594943607621566
