# total energy = -340887.26522981154 ev
CRYSTAL
PRIMVEC
9.11403768476679 0.00000000000000 0.00000000000000
0.00000000000000 9.11403768476679 0.00000000000000
0.00000000000000 0.00000000000000 13.33931541270593
PRIMCOORD
 96 1
Ni 6.817081373443213 2.3064894905415065 11.837895308186287 -1.3619652808169964 -0.8152693016399315 -0.9609410647798546
Ni 4.568693872478511 0.5300414379643031 6.41319553226686 0.030160582743780317 0.03117282605837857 -0.7215816448767831
Ni 2.4355716047966114 1.6589097783217823 5.163902501952159 0.7468334774650364 1.0778136442998985 0.14946465452345226
Ni 3.5753458025231266 4.710836402586724 5.1400647366599035 0.29172533509929754 0.11036126076408737 -0.34684284489873174
Ni 3.704509943116457 2.972999058816294 2.606675812124936 0.49035925225854904 -0.26276134376677973 1.417919684695429
Ni 5.260813886354996 4.851821449922191 2.764066127105618 -0.4747446856497437 -0.6664607926432393 -0.20089520238960243
Ni 5.616343378339561 3.340230975054445 0.46478401748290965 -0.4943629741013034 -0.8186310190233128 0.6613209003135126
Ni 5.9647365788984565 8.096300346154061 12.644056540098488 -2.040359591673028 0.928592216135504 1.8107505662885006
Ni 2.46605806050397 6.048813575580185 11.850554706385845 1.2612783099178795 -0.842903518417432 -0.9051902922717959
Ni 0.5017150091635642 7.445293755804002 10.910426236075295 1.3573527217456494 0.4560455665783436 1.6780209651315423
Ni 0.4953306258383011 0.3075768946575989 4.888792543368201 0.188097793514618 -2.5883164398403875 1.2118370245676162
Ni 8.955498896959485 2.4751265278967423 1.7075924100589595 -0.6837841144130353 0.7925070682427512 -0.18147745998462295
Ni 1.7109965030953418 1.309586945929658 2.7790860610385715 -0.2924272462623286 0.47452048545407954 0.81215929525604
Ni 2.1610476788290893 6.86953265972 0.7607049694785829 -0.09302045549279464 0.17765345825284243 0.20277724990366366
Ni 7.936376328725951 3.9456035792380617 3.9700337569730624 0.13870844444821273 0.2820603012057078 0.05672599193713457
Ni 7.580737468290418 4.266928088182351 12.765524787358695 1.5316187515834976 0.4052760493349601 -0.279899288998647
Ni 7.905753162454882 0.4033554041891579 7.314907422771103 0.9114272743204433 0.34441675195574234 -0.1413469105123243
Ni 7.032409625324249 1.0943862905747521 0.7948242805655991 -0.21536408542973876 -0.1807567797685145 -1.0287364271572734
Ni 2.3851527489003157 6.3432243315487415 9.492870755349925 -0.8915896707692257 0.1673191662063699 -0.4636048669828403
Ni 0.06499402479531194 5.11821565436775 1.22599481604722 0.5336360606693132 -0.10716203710049932 1.1710971236460928
Ni 6.386652720620659 2.41368880056541 7.070784280557683 -0.0485236586320003 0.3070781634062841 0.8018188325619804
Ni 3.4953336666023778 4.491926333936483 0.7022803429714217 -0.0272439233176176 0.7436213982856419 -0.5331555214884689
Ni 5.899042596016948 5.785417889498669 4.924955221680804 0.4478794858277835 0.8688330937990005 -0.023876806617597588
Ni 5.668439217150701 3.0628361272490103 9.603306460118727 -0.31262429003549386 1.022197340487175 0.08018036630533289
P 0.5610455710062444 6.05831040273925 12.644884094710811 -1.8481400626805524 0.4231804404192067 0.6872977839932485
P 4.264494640148311 6.368889461375923 13.003044809344917 0.40584014936854623 0.4096294412076494 -0.2837867969785113
P 2.682470882857106 8.96392026768403 1.558272575355965 -0.5532466358113892 -1.2129600824284659 0.6246878224715112
P 6.545519509689411 8.436144579462283 6.111406962876748 -0.6321820739660274 -1.1110240696135962 -0.9407802735612637
P 4.927477075879377 1.3157389212966137 12.939149026078077 0.39778539738486973 0.6963714641597426 1.233400352560689
P 4.14611240601292 6.5384379024892265 8.126204414860014 0.9213630453769164 -0.004361876513121521 1.1366160591500878
P 4.82846217160292 1.3409848053950844 4.26860780530847 -0.3305741896456952 0.7657133450886748 -0.6303293370280048
P 0.2659858955619451 5.9225203568247675 3.4098895642835467 0.45790447416395336 0.1229622373575495 1.0227061618027933
Ni 0.9008159806100628 7.916899630416047 2.697276636906913 -0.212147378264654 0.372078736647385 -0.34606174375833304
Ni 1.988455149163841 6.965439677181446 4.6693201385992325 -0.9356357532458468 -0.7668024643877955 0.9954645524780211
Ni 6.266976293148811 6.065036562473788 9.48668050102513 -0.8299608422138351 0.41784565846985455 -0.41906230448577503
Ni 8.650488515284605 2.95067878078122 10.25878713151714 1.362862852930601 -1.6865349161398244 0.8063498876631144
Ni 2.3518044853926243 5.897520551740976 7.056538128415328 -1.2492602024110808 -0.25643385888685516 -0.07399583476117579
Ni 0.8514589100919155 8.60466313432897 8.829265830852101 2.10424970545877 1.7776398997774612 -0.19147082375190896
Ni 1.8510519185975796 1.4993138662465766 11.684093189801116 -1.138278534454175 -0.49700529682015687 0.8044984362766725
Ni 4.427626798804819 7.4145521070443845 1.8220300887294352 0.15155316162136478 -0.449328045348852 -1.3143183683629946
Ni 5.814847116846669 8.292844566581325 8.33017566451177 -1.6624758183080917 0.852354636528003 -0.0005754128874957832
Ni 7.074890154487776 1.196736932605736 5.030109341671604 -0.6764209891797447 0.2087625209528211 1.062048668156158
Ni 0.17028941236861214 7.725450156996382 6.794914211239495 0.6554173903448841 -1.6563360239589409 -0.8967650443225781
Ni 5.428238756712002 4.928434049825348 7.338597540654552 -0.6469137237492472 -0.7722706865912183 -0.2016073979652786
Ni 8.02989546834126 7.899756125726797 9.511185413868292 -1.290157711956391 -0.9371668451783924 -2.0702970026624086
Ni 4.955211092237372 0.9607836136796323 10.858042393676607 -0.6328222786531875 -0.8237346587984652 -1.0001850978821418
Ni 8.01503047304718 7.407233534867102 4.619284983685082 0.3542008279256997 0.283680353307634 1.2769409561558007
Ni 7.0316987303929555 6.638546491275364 7.3071832759214805 1.8059680572981929 -0.22456452098208418 -1.555413025789618
Ni 2.512694590804286 5.389130421453325 2.8842538520857417 -0.34251130740291336 0.5147901316074037 -1.1933721329942093
Ni 3.6882778421852747 4.309053169880233 8.87947506388404 -0.11136784765173079 0.8759036274925366 0.5530471182060733
Ni 1.4688820947647014 3.681925357991544 4.051149602844831 -0.9602208987843787 -1.0319490205573 0.06538418183276481
Ni 0.6421996958358518 0.3530395369175236 0.44272804653767533 0.33067471977930146 0.7535378860684055 0.23525259682354965
Ni 1.23808732110926 3.859366555649712 8.449589607701295 -0.21338999242250345 -0.016634523232887482 -0.26444747321995105
Ni 5.673296999181201 3.3121050550804805 5.013488071335726 -0.4319515017436174 0.20200180519021985 -0.1697609428786431
Ni 4.127328374559148 7.278534210190386 5.951069168142475 0.27633394024489183 0.1506807863187405 0.6744474103931417
Ni 8.514443276317865 7.4699289993845674 0.5804657622831475 -0.1281062434523342 -0.684471370288047 -0.12980599975226031
P 0.43195525411731706 6.090100165820645 8.403141737978899 -0.5257507443839655 0.7500928649425985 -0.675169890381463
P 0.11949050110520203 1.682013863588794 8.590866304239343 -0.16971517724237223 0.10343342329600252 -0.4561129294811693
P 2.157702827036982 4.067248638827335 10.527347742695625 1.0055805578661003 -0.37416775796592977 0.1767736267510504
P 4.150888161705193 6.499675900658613 3.7919135635151338 -0.7826618000175554 0.30953228137373145 0.5928562797832112
P 7.217096482859053 4.467518941295435 10.529775722307116 -1.8514544717657662 0.6497529929702552 0.8907481487045369
P 6.347471473061336 8.31665043274205 10.534391070937971 -1.134535008251343 0.3573815396465264 0.45019553555546976
P 2.1273804240060747 8.697671887839762 6.227672917485907 0.8961580068661984 0.2523118662986816 0.2567524185685385
P 7.236427356567666 4.179150792242868 1.7581087861573685 -0.7610858736189925 -0.6797400262506487 0.1547842669641528
Ni 2.74420025939102 1.8478984615946659 0.6296770082000039 0.5191149842350028 0.5906926964729892 -0.7068517948657762
Ni 2.0833778505665745 1.50894740396935 7.54981262737543 -0.9601527645506044 -0.7018414861353783 -0.30813694368810157
Ni 6.992326088044439 1.1714363642817813 9.2939413912878 0.5620989439956965 -0.30946723246375085 1.1439398465050106
Ni 2.789797789407139 2.0936767130327376 9.689318366978835 1.0879995836939649 0.09301788438963335 -0.30243732220016295
Ni 6.423974704513525 2.3070454468339276 2.907503761954045 0.09963847502994452 0.6197469335264681 -0.6314526519991707
Ni 4.26380197329218 7.296589118637703 10.584319591612427 0.8293941710770877 0.7726905477374564 0.8140603689334948
Ni 7.336508603241062 6.597022936057807 11.651772078328767 1.028881694485886 -1.5178939457982374 -0.21127628851361033
Ni 7.85903460581634 4.249265083351003 8.38776179956151 -0.3164840301012163 0.8971846483585 -0.668753702442474
Ni 3.2889007154000813 8.833070030138275 12.767698485321686 0.6406345756087548 -0.6363557457277427 -0.5317061906364521
Ni 0.204364064671483 5.266163826414853 10.511674332268138 -0.12387497897980602 -1.167326343749751 -0.38103697428193734
Ni 8.763192704007237 2.807114460810422 6.589034482118346 0.9195079944460486 -0.21258240891954358 -0.6237275154407709
Ni 3.8323434342230094 3.080216596915358 12.016709079904103 -0.8817922250628298 -0.8533113440143175 -0.280809202407426
Ni 1.0326478000032573 3.8865719578280276 12.488040621984972 0.5138524502844827 -0.8578817369938193 0.39638157505880767
Ni 3.3223218912084183 8.630337378193731 8.604391536009064 0.23594422357393563 0.5224049678401842 -0.1931260999671448
Ni 5.636184638152691 8.182163694201604 3.7721315449462782 1.2368476876793408 0.24004667577808333 0.9569854225662163
Ni 3.272067087988574 8.800706082689295 4.076734529141302 0.3963206399138852 0.3861082181572576 -0.8149204029409449
Ni 3.9446921754799944 2.915689990509007 6.984559105218187 -0.020935978821718784 0.3315807765333386 -0.6957639124827307
Ni 4.89796582219315 4.822729441964675 11.068723397795257 0.6023223102921176 1.1237780268451547 0.8871002675393045
Ni 7.822223008027993 0.2337012402399188 3.062559971910316 0.6363272064826525 -0.9623757403438523 -1.4402440592242423
Ni 4.772647805458864 0.740678694702565 2.0342987581946375 -0.25675781788517715 0.07650728832911985 -0.5762145574614721
Ni 6.2175599813863895 5.828162725752036 0.6354051808194583 -0.7430570411417396 0.9678964130517653 -0.9966076649435287
Ni 8.17159141060802 8.992529231649769 11.94486312165564 -0.24345750123184523 0.9173595806444782 -0.3208579907991958
Ni 0.2700143001726035 5.217513093809209 5.603646612585922 -0.22302545862973847 0.5253205988250824 0.44492297430262084
Ni 7.235616207222986 6.267131231787682 2.753568578620196 0.7190809899421164 -0.011743256578857195 -0.3716251940497342
P 8.905936760595774 1.9073675568085724 3.9722347970487952 -0.3152085058229023 2.936556936417594 -1.1906621902622139
P 1.7735917131994199 3.551977410166275 1.7099137554307575 0.23839474199695718 -0.18471704996784316 -0.14650814299828963
P 4.811236640575443 1.4549011611159455 8.41737513046864 -0.5422559411278403 -0.6198106968848681 0.43494555137493485
P 8.814878411127246 2.0168180341149027 12.429920404333004 0.9343964815221069 -0.6452756739251919 0.9790442021384688
P 6.731573472861317 8.149982027504239 1.5345150135944188 -1.2945622687819898 -0.19487085057239342 0.6917442498003763
P 1.9551433418064723 3.813377122017624 6.28855377712106 0.05583201936795546 -1.1471064171584502 -0.024116433432229436
P 7.256387098869345 4.724124669379349 6.167952274834774 1.02790981749092 -1.7556361418128603 0.28966768123932046
P 2.229029285143347 8.586243664378424 10.737041696544287 1.5690727826648976 0.805944681804896 -0.7754146315368388
