# total energy = -381177.1027651662 ev
CRYSTAL
PRIMVEC
9.15057076516476 0.00000000000000 0.00000000000000
0.00000000000000 9.15057076516476 0.00000000000000
0.00000000000000 0.00000000000000 13.39278526868566
PRIMCOORD
 96 1
Ni 5.855395426225633 8.668061312343537 12.565365415541153 -1.1848931489889207 -0.009503311504744922 0.5864539758012932
Ni 5.31801899856648 1.47306805675507 8.628368880877796 -0.17976536238952268 0.36029974173458595 2.0288299937668737
Ni 7.074031858639478 2.9493388133310146 1.288934778424959 0.3763601376315583 0.718154364362789 0.0158711627043017
Ni 0.156664179495012 4.877437310065085 7.232532557717489 0.9714674182324754 -0.4649690943202186 0.15586618717442188
Ni 0.44762488293604513 4.825141797275655 1.2959907836588924 -0.8712869546561317 -0.5752527077688352 -0.33454962935367544
Ni 5.0139089247180255 0.18478388392229425 6.742838840048615 1.051277288572267 -1.5265575350105063 -0.9979454099183457
Ni 6.115747469950018 3.678575261402413 3.540034702665187 1.6918231611219572 1.4156956804609169 0.38096858293784713
Ni 3.8247373306562302 9.110116242762535 10.780254655009868 -0.5128165528208007 0.689614090831251 1.060547143909967
Ni 3.880583264961373 4.232761287835702 3.7406582248444367 0.03003408446824505 1.5552016811097604 -0.9187423199246176
Ni 0.3074381364908891 2.300810400745666 1.6830846399804005 0.7654667762955075 0.5160445728397951 1.2797146622461961
Ni 4.7103112828409115 3.782022465616675 9.459765962892558 0.4757646422738258 -0.5076656047474805 -0.1369444105692545
Ni 2.5210005887162787 6.317526709236059 12.00597637448458 -0.3681233515440628 0.6424482317787258 -0.5477604158858373
Ni 3.1499376289687895 2.910631898353011 1.636290450426142 -1.1079035217067434 -0.8309530309237754 -0.3478005808263107
Ni 2.3144722031244265 3.575237864039153 8.271424325612914 -0.6781384860914836 -2.181291011914489 -0.5413460277190613
Ni 4.025455103715923 2.4960378312552876 7.0000741993187425 -0.3801558572285647 0.4324063298928488 -0.4069233551303959
Ni 8.764325318388122 3.189495547042054 12.842368753162814 0.12908069155046156 -0.8364055693979143 0.11907344382610462
Ni 8.65182819953716 8.596879021181861 9.75742122401631 2.999793732890053 0.9998943061146006 1.1367847235174682
Ni 6.538641104869267 0.26523844859394874 10.436690064539508 -0.5986795713332076 -0.9058238120907368 0.41250419165228314
Ni 7.552780578434787 2.310775372474045 9.538180865306861 -0.03641581962487277 -0.5298688803173972 1.08312657187238
Ni 3.2945441011667533 2.315185947655936 4.601827604394051 0.5860297437796811 1.3976902450224316 -0.13078918960113603
Ni 2.608653907528168 5.142108423262193 1.8226647035737737 0.3803898276162417 0.6329878576967742 0.651436294209949
Ni 0.9699330654665279 7.314600368041773 0.42840959906788695 -1.7037008863961498 -0.49054899967185195 -1.0154476804681674
Ni 7.812903857886252 3.171176104066649 5.408141141411718 0.22342449384037008 0.33946814970121536 0.771066381870472
Ni 7.327347113328856 4.3504650815383155 8.281991404907618 -1.882587959945777 -1.4023056323072558 0.09992823835622146
P 6.294439818813008 4.050820486297253 12.816253023766306 -0.5647983452047305 -1.2561890683204302 0.5019055623352517
Ni 5.0903619447277695 4.209839107689154 5.72467952067935 1.9144467563275869 -1.9737986159233427 -0.6267403341251658
P 5.692286499633929 7.001257368138282 10.175985723834827 2.890826267149699 0.3132621807298089 -0.33954374013415717
Ni 4.2228695206746565 5.1124514229208895 7.544491076241271 1.95722554205601 0.454172775035663 1.6708966953819353
P 1.834506457397186 3.6274784734030825 13.46242790951186 -0.0710876599754453 0.09612403411878286 -0.42841623489684927
P 3.6310105937769617 9.078894494794463 12.92223036083906 0.4714045655329171 -0.8074863152604028 0.4235715052100382
P 3.380751629773791 2.039277933373015 9.970861950878703 -1.3920363891707639 0.4237586815201799 -1.0571980249320763
Ni 0.6047978341740304 1.3341989925219309 4.509672204691102 0.6068369103330195 -0.013006696672313084 0.8094956323809477
Ni 6.030949129264166 6.760844418441573 7.717900800514 -0.3636375478585673 0.07779926766766601 0.3779634775629362
Ni 0.16726237073083314 8.972903431865335 2.3595003324917454 0.10323416280100287 0.36611917662984045 0.037352986727161475
Ni 0.13906031116529977 4.179175544547006 9.699858642607179 -0.6114024182165148 -1.4654113025184892 -0.8177283047033852
Ni 1.646983807599498 3.4474775928989914 3.5817265338762456 -0.06041655341484433 -0.7407793008511565 -1.7341579173344264
Ni 0.34953716810774477 6.557582786667013 2.8767839365318215 0.22294703998331927 0.1256634383387965 -0.2182311225648887
Ni 9.046281860047038 2.417425276509182 7.647963902054099 0.2606327274595512 -0.1655016533816569 -1.2407462514027985
Ni 2.0248932358918283 7.850466951499658 9.621323867713867 -0.4360398128803781 0.04231778693160454 -0.323983680912371
Ni 5.695827770578726 6.155799518852789 12.07931454015425 -0.5964465682376309 0.2902114695579324 1.1570339606848075
Ni 5.612978501498148 1.9346045526559041 5.21527089797026 0.7740550321851507 -0.8546398330177538 -0.1963147821077716
Ni 5.849932535388312 7.052665275548783 1.1057293679858105 0.37278784689926764 0.2154823561751579 -0.9091611039940859
Ni 1.3740222771517823 6.686990160572196 6.581120800236261 0.8913598141466068 1.3583467102278026 -1.0228784257145997
Ni 1.7668013831838891 2.1362922862327767 11.777722703422096 0.2806153412290651 -0.2598747662476041 0.33439819137747573
Ni 3.0695224117520774 0.47741365149854914 8.088345193052417 -1.492147690072069 0.8747286333478291 -0.06465064610084996
Ni 0.5174290981176528 4.911715348719363 4.681929872085409 -1.1791888995152917 1.2607738594776352 1.5180009036897468
Ni 4.086709025432886 4.342632192833547 12.448111829927646 -0.5558917867437201 -0.07865750190290324 0.11693145778243731
Ni 1.491927383414565 8.728857705514661 11.786521892415676 -0.09579724690698341 0.2634509136346366 0.16755493636625984
Ni 7.304379180327723 5.504077557017482 6.296805241394998 -0.47653468767063084 0.0722233162417853 -1.0773256489198866
Ni 4.62690382893441 6.285234344470723 5.497457118959187 -1.2976270237502425 1.5973744578230682 0.5015348092593943
Ni 6.856120162827145 0.5960837454899754 1.5243396206589117 -0.6368599390576709 -0.057542574301158965 -0.8378137625993507
Ni 7.573653030695975 1.4804342663430825 3.5965925513876553 0.49919202005883057 0.3571817649308946 0.22931334852097926
Ni 5.046951636298538 2.00604305980325 2.556910174165021 0.2281118720137104 0.12132830129855234 1.0785374098398006
Ni 6.364569794319253 7.702941447179239 5.106695713814232 0.11012291950103614 0.7978493063912712 -0.007315816935122885
Ni 2.0301822658817303 0.7059528203736373 0.6536545624129323 0.8129208560124129 0.20581860783314876 -0.24691254965998122
Ni 7.837015612251982 0.4212382966404021 5.933016974141451 -0.5377457119623126 0.8253115163672818 0.05643751416243828
P 6.775805601890517 2.2319340534550203 7.337625949639681 0.9391890178147438 0.03963509789311883 -1.1857914924334738
Ni 2.3527673424111746 5.779326730194394 8.460115503316676 -0.9402105171007227 1.0847571654972672 0.08599800142837448
P 7.746900789863477 8.17296967289085 0.4587602126846816 0.48219342861830505 -1.4877176793251734 -0.16418422012181402
Ni 4.19075101675674 0.07018030364628751 1.7688117636143068 1.4565867622483237 -1.2116549904637972 -1.739134030392779
P 3.48733747981251 7.49512283108812 7.1966403583534895 0.06558832742377091 -0.2548408033681224 -0.2636753709406169
P 5.896765157340421 0.20160537843862134 3.5450034626730016 -0.6577002728417899 -0.9434465075395171 0.3381867118856305
P 8.299348207822577 7.1956886989781434 7.224925688114365 0.38606708050667704 0.8104572249632687 -0.1531117643577363
Ni 7.19438931790796 8.978036902149652 8.258996020193736 -1.242582276170273 0.24834002613512715 -2.64730191723566
Ni 4.1165032843379405 8.248635743801751 4.1199018063764345 0.042691111110623244 0.14327909453803067 -0.7098075350599904
Ni 2.3627597658523047 7.833199824179682 2.0578151599362395 0.2301672118808423 -0.42181004243424136 1.7178910618536027
Ni 9.035273723234146 0.773820774749253 0.061543079757933536 -0.4240435597504504 -1.1857174446624288 -0.8974584708451769
Ni 4.912438243821789 4.463712547204455 1.4374741660029569 1.3018891414607063 0.49649210462916427 -0.5728782939993876
Ni 4.900057521371378 6.240259288414721 3.1004302951377043 0.47576155695003214 -0.004119678595328389 0.06553561980896455
Ni 0.48154970955293624 5.109029109398012 12.076327793807012 1.6753799279642696 0.46497192253369607 -0.47006116413114524
Ni 0.5484056107851555 8.962810352144121 7.482455695768015 -0.0012084184858043704 -0.03546656833772602 0.13714495661583476
Ni 7.859333854718023 5.5131366222251 13.210576746169169 -1.579642330650628 1.300978970941611 0.006841448401865638
Ni 8.771627473979718 7.397184270565764 5.039089465766836 0.9595863505241732 0.9085990608430288 0.3273497691711265
Ni 3.6076949390809916 6.695006060695301 0.5107629072047745 1.2245035642916913 0.757709758057908 -0.37937192787468854
Ni 7.147282178828347 1.508242851359194 12.458624920853941 -0.8859905794148935 0.7535743957332957 -0.925642646588877
Ni 5.041955424577973 2.086284416172543 11.257667391451326 0.7802279937650821 0.30329349955287116 -0.13516006497532207
Ni 4.697509634128328 8.288394974435185 8.912430053847574 0.35838812653416985 -1.077634695519873 -0.5990564950566521
Ni 7.259157058856969 4.722481542160237 10.965664437982872 0.09098568445095298 -0.9812018719114198 -0.8930600846671652
Ni 2.485587879268318 6.3738576237997915 4.013389160905049 0.27968897276005383 -0.6657676232309566 0.7978901869315356
Ni 7.313776816659263 5.3331265911500925 1.9160252334664627 -0.6238907804915126 -0.810927479731468 0.7328057957273767
Ni 2.4646513730107125 4.127035591463161 10.607125853264284 0.09656574964189175 -0.8565059396922152 0.5037688407962356
Ni 7.475659566748118 5.773461214236734 4.06880867860547 -0.8038633737958348 -1.630522662440263 0.4762302690563347
Ni 3.0447884185640057 0.4863867013395491 5.561609026485497 -2.3684189853166697 -2.3267023223041736 1.8043318072463506
Ni 3.962544928663022 5.856255579891811 10.274382727960115 0.2224796134285975 0.8435077276603343 -0.5556429039577075
Ni 1.2261673522783596 1.4329245021431314 9.328570567430233 0.011900350982011762 -0.019845831081333563 1.2125571905630925
Ni 7.987935978382528 7.561793890787821 11.724071076022797 -0.1716023669627561 -0.5687426745644591 0.6402193424482071
Ni 2.4443737078591155 0.9275842232636441 2.8963908648352183 -0.6896701408801671 0.38610487572314794 1.505426666569162
Ni 2.7264217552271997 4.6172042237626165 5.972445869164789 -1.8005941945807893 -0.9338298103853594 -1.1564516058187762
P 8.53027201547858 3.4841256294207184 3.3089425245043156 -0.4977177495061493 0.9134450760814204 -0.44423906086171877
Ni 5.0309747394778315 2.185714519754336 0.1708786763571468 -0.13391256572146615 -0.5299318723448486 0.32215382679248394
P 1.1587550963343998 5.845238292508001 10.228592356035428 0.36190256744533156 2.8637445804415584 -0.004959915108436619
Ni 7.300865361095678 7.671271321236244 2.8411452079822164 -0.16427523717372353 0.8837076969179878 -0.2482893754028498
P 1.5209072415080251 8.321638998575867 4.188915412230832 -0.10770042610247257 0.7357278544701781 -0.14445511712400283
P 1.7752748118528328 2.3283078663506065 6.298707645088597 0.04135722279054813 0.14938263633260723 0.4639671354182655
P 8.999687152938767 1.1816406741972807 11.180725730954626 -0.5267796998691121 -0.08561310728512997 -0.1629161520426678
Ni 7.975106877957195 6.398042582732856 9.225767563408516 -0.06880220637537829 0.03911882037833263 1.0786186566996971
