# total energy = -381171.547482101 ev
CRYSTAL
PRIMVEC
9.19847682558097 0.00000000000000 0.00000000000000

0.00000000000000 9.19847682558097 0.00000000000000

0.00000000000000 0.00000000000000 13.46290063052465

PRIMCOORD
 96 1
Ni 1.044238681798264 2.3450688739403573 7.720960426063439 0.49586912633318475 -0.7992456725181655 -0.6767539470391313
Ni 8.250307010184551 3.6082497005389027 8.495279004634266 0.36708154054310976 1.3581708467715705 0.9151720860748561
Ni 7.344146663635301 2.3847694998103695 3.449181361079329 0.4467505144296628 -0.09067123853432771 1.0652694890863008
Ni 5.20972290842137 8.905440924854142 10.954991254479562 -1.0209485556817384 0.2902929735281452 -0.31334265625875707
Ni 3.3139812292211235 6.88106774607877 1.4848907930680304 0.5923052923757477 0.5955027162671228 0.10548902027345058
Ni 7.739009677240949 3.91195580905377 5.765258475840562 0.005543298415732389 -0.5148783204458359 0.896211228701637
Ni 9.094653592635915 1.235005892159285 9.646598994559957 0.3709687914126579 2.9255649561824644 -0.11157867811095623
Ni 1.4658140720319282 5.057386934131922 6.209736233611565 -2.8282098778700586 -1.1674908943520732 -1.8125634511275237
Ni 7.625141732930276 5.928795435329713 9.437250861062369 0.766121636270687 -0.35596820423876757 -0.5244885898420902
Ni 3.4748717869348327 2.662066781431631 1.862807452864522 0.3133609110912023 -1.0093112285531263 -0.9460525777037967
Ni 6.088462595628984 6.71130065825279 10.867226747632724 0.4338047529022722 1.1340642392625113 0.7628329382170863
Ni 6.416728637200602 1.1391025730395588 12.45020733775591 -1.2467469490709238 0.43764366703238816 0.2393211104659685
Ni 6.453706513937729 9.219449327385325 6.75163137978362 0.10888159089476733 -1.5076910371233068 1.143353120763605
Ni 5.124149478748359 4.727354785014652 11.42064574554017 -0.8476112083057468 -1.105511110215167 -0.08007289419319114
Ni 5.717589209518468 5.5003395844494385 7.091394597507908 0.2967060761433406 -1.4205272975216052 0.270461797734831
Ni 0.10275066524985535 9.327439445020618 6.78699860323302 0.5222373319140684 0.19339529446813145 -0.7594887043352017
Ni 1.357897542211035 8.45670243262925 1.5733819795820905 -0.6127946705783511 -1.4210080938127656 0.1716967264487753
Ni 1.364842392195247 8.509538483370061 3.938598277258103 -0.21042319648469565 -0.4118015091583037 0.1834574665291292
Ni 0.2081882055730727 6.855256820177183 5.4886768357143625 -0.9352166634305571 0.8578064036711937 -0.7029966827857442
Ni 9.159447663217092 6.665437052926591 0.1775931518876591 -0.45638649485753013 0.34713980731386024 -0.6039575319026954
Ni 3.464164759939306 0.7612861766401899 3.3535273206808904 -0.44472191403540823 -2.403102138521152 0.07993559728437846
Ni 3.3663849515523228 7.255133003638984 8.672759935104962 -0.9353732436130794 0.9754971082171585 0.0029261725078594766
Ni 4.656370139546885 7.430152421717925 6.615507720854666 0.19542158086954087 1.843623662867438 -0.31861804572508357
Ni 7.709427375851247 7.346510672172973 7.26318075099155 0.7213420180621513 -2.061064171210231 -1.9466097142133767
P 6.753402086567675 0.7747426283513206 9.052238496262142 -0.6529540164060562 0.2937986726885585 -0.6602497787365209
Ni 0.34006308806797675 3.7813190415361837 10.703234463541959 0.5658465839635868 -1.3474945980046473 0.5745996475658685
P 7.91727615763039 8.57894099082818 5.118648789621791 -0.1485791665947054 -0.12226006908420232 -0.014881030876890501
Ni 7.765860031020969 4.772638886302433 11.59823521803711 -1.0387526737426949 1.518020958294405 -1.1229809848651564
P 5.838043263218143 0.9577454044452248 2.698489990017702 0.15230186686193126 -0.8626927852292174 -0.5550965445359343
P 5.1501811680931535 3.662594301474961 6.040803447631371 0.3872603294838298 -0.11502472767802771 -0.48224536490216297
P 2.367798310113851 8.176296065849492 13.172667663669793 0.5752617066298996 0.0487008076398129 -0.17183839423296213
Ni 3.042488186460839 2.9527202513668995 6.209224798301469 0.7397076650535325 3.3327976150231633 0.5924616154479538
Ni 5.623783143109205 8.333424446551888 0.11157844343508472 -0.27672140549129765 1.1660161095787596 0.010682676524826764
Ni 4.22064749199439 1.0397038327357258 6.039861523607021 -1.761607786015263 -2.3360110012996094 0.19515007237570905
Ni 0.5945895403701434 1.0770956409288668 0.3975029764473295 0.6713240342728116 1.3216629816535237 0.40946540482595933
Ni 3.261209567817913 2.852346472522237 8.580041128653493 0.7642509016105353 0.5696207062940383 -0.7527120477330005
Ni 2.028043371018684 1.44916482902342 5.157408411315134 -2.621740523826788 -1.75857825516032 -0.5341109434232028
Ni 4.094094848176128 5.877734690611353 5.060125320675366 0.9784873011937344 -1.8505430156950906 -0.009806701677776659
Ni 6.11880837059311 4.359590484062629 3.99422698555548 0.017744982688246858 1.0277362680275333 1.0009996233636373
Ni 1.6833304529281654 -0.10939748458573818 9.351263499933346 1.1772909111616305 0.5400129107299345 -0.8720346314554337
Ni 6.0832470592832255 4.126133142871505 9.116766730863791 -1.2625661754913675 -0.6025627084376978 -0.07197057680103087
Ni 6.687678969829669 7.907341802686085 2.078766531638472 1.2306269035806094 0.822248561171242 -0.29759850605062294
Ni 6.445142732036668 3.4216402016916083 12.976539581029568 0.4366406796891706 0.36822259612608843 0.3145626447087873
Ni 8.54129162528463 2.1467589126031066 12.168954711110525 0.1231409290272589 -0.7711980223523299 0.6812397507246267
Ni 3.079686826641174 5.111133634075962 7.474104583565025 3.5085787959539574 0.4791633835427295 1.6804858817322672
Ni 5.8833641584131255 7.441852884207881 8.556130608058844 -0.5883414226319932 1.0921141200829705 1.6738683764157496
Ni 7.589994353076402 1.7600733448729071 1.1482559773035181 -0.9254863235166706 -0.851482775446011 -0.9121207008430421
Ni 2.458624070039823 3.2581740704738205 11.915057434621497 -0.3338034952162703 0.8959052674254442 0.18542564599909356
Ni 4.278938239477768 2.3236640184261046 12.989652929556048 1.3191008773533024 0.7917002560707397 0.8839912895966776
Ni 5.432684787583374 8.643413114721346 4.5306701945280095 0.3267519876861276 -0.4233838146792644 -0.8692514122833416
Ni 1.30398526968459 5.3778434689001005 1.5725072044383837 0.13278822230903584 -0.7384892192653991 0.5121341820417954
Ni 5.375129918244018 6.438225477482857 3.1010309722085454 0.09510253483280395 0.1404969038072032 -0.14778263883533901
Ni 7.649333726915013 9.183952405413041 10.79530753692205 -1.7207480716864234 -0.7062745822060675 2.2363563283197485
Ni 3.3666701043331315 4.862553997025177 0.19268233323083953 1.4848714681256299 -1.4518381918197447 0.5827449023808221
Ni 0.5850157657164112 9.246032925338135 11.796260946441233 0.9402588538401548 -0.9205163811059051 -0.7719554693436447
Ni 1.2284381797238848 1.3431707808537858 2.698826654268592 0.8025019746719342 1.305697459463203 0.06110972282712702
P 5.358342698083505 5.276494651514608 1.0444548460030707 -0.6182757482975803 0.6151639421414761 0.7765816552617464
Ni 4.461601591777742 0.34370568488088793 8.576513512800586 -1.2654748644977305 -1.5135819486864448 0.7238133624207793
P 8.985044543083772 5.527659060546272 7.840375971732363 0.07401794624836285 0.30316005929880047 -1.645718653454411
Ni 5.9011816079752695 3.381865988007195 1.785531049265364 -0.44192943889193564 -0.7074485479095106 0.3966127172330073
P 8.928335933610041 6.898508058092102 2.505795698767022 0.5089526989900203 0.6469255508237891 0.07847495357845195
P 3.5357932987830916 7.644835671759676 3.5788697656388058 -0.07154763033099935 0.33540992047144175 0.38709937842593334
P 0.299730526841786 2.97534850429559 4.766512700753446 -0.13363848612447307 0.33595062346626015 -0.2968323173085598
Ni 7.024950320188761 2.740566582445226 10.661096241319873 -0.5615515561326586 -1.1027505167508944 -1.276550919806234
Ni 0.9984394658096666 7.350070482694681 7.661709357602111 1.614031606763775 -0.8457803257445949 0.32039364956826755
Ni 8.551271972612936 5.1536121999396585 3.942596855123185 1.4267246845815686 -0.3088537672494681 -0.4677163180480525
Ni 3.9538088784950474 4.632638069402161 2.8425841290940994 -0.2329188064840505 1.1625916572782429 -0.4879357304187209
Ni 6.998155157269543 6.386392060713275 5.299064954039457 -0.9555222077571286 0.5829230798298993 -1.2774058116073612
Ni 7.701765044676613 5.2449438760896445 1.7463804923080095 -0.8494796289730531 0.056566326430818714 -0.46138960449907634
Ni 4.36158655352829 6.914311041234985 12.511746987245147 -1.4888183685885197 -1.014225120914976 -0.2581840088087425
Ni 1.8303129137198504 5.654975177938957 12.335988931479141 -1.8079845735075895 1.1009522871998911 0.3392956286790931
Ni 5.490405229505136 2.02955192121393 7.671053170335836 0.800486486903802 3.2104712114773997 0.4228629091787878
Ni 4.699014277992987 2.476101175960356 3.8844771993082916 -0.36386251938517983 1.7025261493617583 0.6197315069075003
Ni 4.588457785330413 2.2308605859880726 10.422923760920927 0.33731613635521907 -0.21246516661538892 0.6636413209165731
Ni 1.2654436518914138 4.466679150971497 8.899448117218759 1.3760394995218752 0.452301269044563 -1.2627168421366188
Ni 8.426623413492331 0.21061108436226664 2.881666617323132 -0.29782502023913227 -1.105826841683373 0.6107719837213674
Ni 2.513419396339095 7.396127256033687 5.737699839346921 -0.21312002659056845 1.143035075302554 1.2255165789372378
Ni 8.985771222750992 3.244689103484609 2.168213439892081 1.8289660608552631 0.8873278101690781 -0.3474799642620983
Ni 7.903469243953167 8.774197057867738 -0.2037582191460575 0.4236668931373219 -0.3558499334933484 0.49972063886879103
Ni 2.1629850256788017 3.413131610651349 3.6448513595748997 -0.9992227339688728 0.24394215417774764 1.0029719165986597
Ni 3.697235765104818 0.41133380616423154 1.0007850773937381 -0.08420928495906788 -0.6612913326271579 -0.5320476331362708
Ni 8.519095700765554 8.256939111957553 8.98106068278157 0.16726722992251192 0.9422676567400676 0.8242159693102579
Ni 2.551537884199458 7.776751027552502 11.055464376873669 0.8542811641267546 -0.1711079438248408 0.3787265809812058
Ni 2.0339487931244644 6.036022079390584 3.8956110356273514 -0.9335958399976824 -0.6582772283911824 -0.8791529876677697
Ni 2.8389810857314295 5.527088754984654 10.398097991884649 0.9617956994706662 -1.049420437869186 -1.0788150889812196
Ni 2.986874195726342 0.823354738545444 11.950868944500352 -0.4040493760167106 -0.6405720978019355 -0.8512932851430243
Ni 6.172085948220336 1.648348645656698 5.334391704190935 2.74312796049805 1.8739955902910759 -0.2787248090745716
Ni 9.270316904090876 4.126721845386723 -0.37935346187269564 1.116530344143806 -0.1657327955558565 2.1628142932665395
P 8.452526324161921 7.209324589173587 11.538015549968712 -0.7279410114359076 -0.21927139090394496 0.47320279508392055
Ni 6.70538603767021 6.088858130131396 13.162341453613799 0.19148676459150893 1.0447235466141491 -0.17434624825648037
P 4.685952440936587 5.69405030738655 9.265666154220654 0.355711093922639 -0.1043209681072784 0.19029505827625293
Ni 0.7031242078320152 6.702985235225336 10.025943257955854 0.46962767613815254 -0.6448923224438442 0.47059672491964116
P 1.9066418742085796 3.1733917098056335 0.6435925858282786 -1.9395229825699243 0.21815990300732108 -0.38784962632839654
P 2.1265958514568912 2.1599311313811085 10.141213050130892 -1.3360313345600539 -1.3155172737671021 0.0412176118888903
P 2.530500967757216 9.315941349020267 7.213260617396427 -0.4114017026167238 -0.4291022052202803 -0.31685349762549303
Ni 7.871660911177797 1.8544037244597855 7.3734686481315554 -0.30860694134598465 -1.1781018370987002 -0.7157897207853543
