# total energy = -340873.8750059157 ev
CRYSTAL
PRIMVEC
9.19693878372435 0.00000000000000 0.00000000000000
0.00000000000000 9.19693878372435 0.00000000000000
0.00000000000000 0.00000000000000 13.46064955079928
PRIMCOORD
 96 1
Ni 4.6734518805128555 4.61452709565781 13.09696922252439 -0.36649532902233656 -0.3271980740846107 0.77432139847266
Ni 2.6316671589092886 8.796172690838445 0.0476548564390359 -0.1859421806241959 -0.26097082752526024 2.0537465545028954
Ni 1.9166695704925891 1.6147524740010286 4.922088353295858 -1.0419670669149346 -1.693670498743341 -0.26269140976079275
Ni 8.406268483888287 7.7713762296509925 6.639720540239604 -0.44181939567663264 1.4898239270348987 0.8531061699820469
Ni 7.964659088791563 8.124722606134657 12.773859620688443 -0.36087026952607526 0.7494146079286513 -0.40618904806753275
Ni 1.5854602249354253 1.7620874284848471 7.5588680903073655 -1.0281206479501455 0.9666813096977416 -1.2652792035471565
Ni 6.825222789424287 2.226431655509412 4.601603557702713 -0.12127893611785566 -0.36776313999116667 0.08408381512479712
Ni 0.4325476516102758 8.442026180706833 0.9495130818542297 -0.9740904576776191 -1.2840017196573241 0.6736735083415947
Ni 2.708930639097713 2.5668931211796044 2.6345182098387503 0.15327168697436827 -0.46511513297977963 -0.48587190591115675
Ni 7.981710212737443 6.4679217293933045 4.784291543711863 -1.4418234878962202 -1.0950060969187851 -0.15699824389633607
Ni 8.017017259570363 0.6543051519853872 8.940428510318442 -0.32378750574116494 -0.515382513775764 0.10599012827958522
Ni -0.18223641632967666 4.307983939109736 10.629524436539818 -0.2865561321935323 -0.33797896675019856 2.710903039026073
Ni 1.2430949929994306 6.344673556794199 6.82896410399882 0.4454827034608328 -0.09228049200297657 -0.3027291424089689
Ni 8.726469094082335 5.98864167427375 2.4911351798207053 0.5751961434992868 0.5562483987521905 -0.29067941033328654
Ni 8.05445799613114 4.163178142708504 3.8858610172689607 0.42318918216995505 -0.48437552387128835 0.23576861722801976
Ni 7.533589385195366 6.480806640206777 11.088627328323414 0.9088638844686412 -2.3964779483364147 0.20993494399436746
Ni 5.5059035702849135 1.9629025802422868 8.02774272922823 1.1133298349286376 0.044647720616361825 -0.6232060957196622
Ni 8.816838211607804 5.375012741807154 0.2180732068191678 -0.8434640189065925 0.3597708658143094 -1.8409504869106488
Ni 4.952266267537291 7.6230388088726215 5.747521859312198 -0.07918792048507652 1.7627406140681257 1.2656111329652786
Ni 2.6557723346709667 3.7584852586790736 10.937208013459678 -0.32263488019396047 -0.41238952045128974 0.28314813495324787
Ni 4.233948584328541 1.345521296874979 4.439739279804815 0.43749762837282713 -1.2619025737654395 -0.6615196465878801
Ni 7.229989248961575 5.049919360340611 8.802497425432609 -0.24897431728501637 -1.2431851998615944 0.9173786068078716
Ni 4.593889165703897 5.341112826562 10.750185510343897 0.39112675441777156 0.9098337045810782 -0.21909295634455173
Ni 6.856004942523996 3.420019528659504 6.6627791044020155 0.9125385051067509 2.343854151493112 -0.3904783222004953
P 5.055207599967839 3.4286738477711944 10.073828858959894 -0.2629822015283342 -1.5894986546194174 -1.1706641498737322
P 7.108856372213361 2.668390534268457 2.4248951500969693 0.16335452513166704 -1.3019220515811707 0.26439990781146727
P 5.075928302368092 6.661728814027356 9.011419678462051 0.6145661606564771 0.05557850859625267 -0.728715427708087
P 9.485446442320606 3.3866346419693505 12.811576265403682 -1.286620388227094 -0.023795816868017086 -1.0200370996110626
P 4.958952441813803 2.724694191656094 5.753027146687605 0.5536508132283432 0.5492128320616477 1.6416763650642374
P 2.682673379731215 7.823670021860418 5.5558024797135905 0.1549984398574879 -0.4501556834564699 -0.062093426896635
P 6.448562173888408 0.5609157598623854 12.44375114866759 -0.6780379559578774 0.3661137773132017 -0.07112262697843881
P 1.3867695659673591 5.834031941450562 10.200331828087824 1.2665799246364509 -0.32508282751382084 0.1781334832130545
Ni 6.835872844186601 7.289061184832334 1.12286157683477 -0.31100732325736113 -0.5893631790282882 0.32474884121316977
Ni 0.7576649451168728 8.828417157156812 8.197966104512542 1.25445305946593 -0.5120783891031955 -0.1307058858587104
Ni 0.3910381894650032 4.240082942296125 8.464944951404316 1.1672715792524155 -0.3018421118183253 -2.347475807406099
Ni 9.034079095494338 3.5236322375992484 1.5537896475783417 0.5917563618508132 -1.6075825087043218 0.9394638687426853
Ni 3.7586691974487163 5.776348743290605 3.861564545186854 -0.21117190172526212 -0.240050018212193 -1.5758687225408086
Ni 4.900901366114561 4.2189483776641765 7.652419348547652 -0.6830171543400236 0.3032744733894777 0.4674599790628724
Ni 1.602474561127377 0.3963153927660528 2.581833547743835 1.965543317893086 -0.4858937602880277 -0.3948245149843329
Ni 7.117510691325052 2.4383383150763076 13.255683548992154 0.36219284499224075 1.174810310831622 0.08628802186496752
Ni 2.0036634115951135 7.176269931287418 2.5979189931490905 0.5505768022887099 0.8778980322147462 0.5008220994630859
Ni 3.6087958879438276 5.66459674379417 6.158705022828471 -0.5583896134649092 -0.07677596860947423 0.0342406663504249
Ni 5.067908572011668 9.109383627786068 8.859934145641244 -1.1571337194874654 -0.9473108755909299 0.5386890497121883
Ni 5.795597935533715 7.939946915090064 11.107417593336264 -0.5322263248059802 0.4767270061870951 0.2559209238061786
Ni 3.354049888927143 2.4234484716737295 8.895967750614254 0.2920832326593486 0.0796139522789016 0.5765966233912393
Ni 4.069185431421074 2.348245105705303 0.7539824909486255 1.082221029338975 -1.1810699185880884 0.8143521891423008
Ni 1.2386252808971123 5.5138221343180325 4.260927803365886 -0.4304736316465102 0.3246308275780667 2.1183414076651452
Ni 4.7301969909476345 7.894238130833847 3.5828476457103293 -1.4848591268304556 0.4003181911090525 -1.4545725600317723
Ni 1.412107131485644 -0.332278029808788 11.517240529651032 -0.16824682022696186 1.9409224340206122 -1.8842326946380517
Ni 0.6529927488639864 3.460596421242688 5.7738784456143035 -0.7258059673707757 1.0174636824569316 1.291271770956176
Ni -0.1375678058157903 6.6536447051015575 8.874606021601796 1.0413111784984905 -0.3723667002014491 0.4868265565149422
Ni 4.157531222480473 6.622936127509706 1.329012792299545 -0.21131048418565546 -0.6952638329178606 -0.18265322546027896
Ni 2.298176972608555 3.7781851009078085 13.570353120383047 -0.3355276769962286 -0.14005621672535878 -0.37745619890921445
Ni 7.0859927831467715 7.736602605250037 9.00390853880369 -1.732419337376765 -0.5955659654048904 -1.3441717042790011
Ni 6.377083568005246 6.25335715460507 7.057956835877828 -0.5299974354754614 0.1801093759925027 -0.4773859799273327
Ni 0.8935248794565304 1.3815365079710236 0.09180935809177085 -0.7570420425669221 0.58760711556913 0.924431399889595
P 7.77739102741831 7.885666584168497 2.966147855484548 0.10567208281853413 1.0637692503916905 0.5734567922106769
P 4.043231671024486 7.444296309472309 12.405710771717779 0.5782470145104686 -0.7082713009211222 0.8512464910654889
P 6.401630196814068 8.944261794277796 7.0037914666872885 -0.03759852707906428 0.28883438670474776 0.2565971239375968
P 5.60663763747975 5.633455910093658 5.0808569417006675 0.2294316192663984 -0.2821433478378173 0.20380594827849416
P 8.323597203872367 8.46647164319235 10.591862053761622 1.3244757685119706 -0.6863842710400437 0.23268560742732186
P 8.440021248117727 5.452175055672275 6.698947904370712 0.22752386072072425 -1.0851777979744537 0.7689549919544242
P 2.5768074208633474 4.058682527674474 7.241196638195905 -1.433465345739512 -2.467931476291711 -1.2452012018503587
P 6.5007180120206005 5.718389636976184 12.974477038268516 0.9795219131058357 1.4615564475487732 -0.6553695678260842
Ni 6.164064078882013 5.89434546401641 3.0522560314112424 0.4739630702887127 1.6368221222957295 -0.22083179341252934
Ni 3.0099832233719526 3.5796323960169745 4.660224843587848 1.236891653543399 1.6632029262821033 1.9161128311761002
Ni 6.442041544504574 1.6688488661529526 10.389467787666801 -0.1441599544810872 0.3036843072333867 0.16738704332982787
Ni 1.986170834602091 4.819416491162836 2.28848523883608 0.6210841642806529 0.0887349407435633 -1.7151970599612072
Ni 8.823184099160477 1.1754515104633203 3.1748686955612317 -0.6308132186429588 0.9833040058560872 1.0896348053045428
Ni 2.718569030626991 5.8254511978467285 12.302185433693614 0.22077805735645847 -0.4645057815305549 0.44075855851228607
Ni 3.0207068536421233 5.539950636545782 8.561605694545413 -0.5081741689527829 -0.4989634489877923 2.748792614982995
Ni 8.600986065432071 1.1164807409158641 11.691946492751534 -0.46482099877812855 0.6600921701127341 -0.1245889743276951
Ni 6.820909425276166 4.465518298370243 1.2571920603048488 -1.1685630443703297 0.03863853830780443 0.193336416205738
Ni 0.7556333414061689 6.86450291368149 12.121826112508142 -1.6840890257024932 -0.4927982007173448 -0.46385734931327854
Ni 4.84130520475032 2.3547105534582444 12.066354778053139 -0.07180911152250213 0.1912743914703867 -0.5586876043213024
Ni 0.9419688332173336 1.9134782328392879 9.989605135728187 1.0849615681985896 -0.010353832430498297 0.03699817449090402
Ni 3.248413853521329 7.582406734658544 7.723505245157627 0.43026048719443966 2.114413533365649 -0.1940918063145238
Ni 5.035323818969461 8.761031188898201 0.4817172438173195 0.3913082743009583 1.1217993058522293 -0.11055306505991928
Ni 3.3397026648950106 7.329895591693018 10.216875281029491 -1.0815661693637955 1.230903554280764 0.6221876817574767
Ni 8.178864982978991 1.6690420018610772 6.832921546627683 0.7227522681461166 -1.4343156095549492 -0.636776121094613
Ni 6.550427464516545 4.0030410498575515 11.653745169378286 0.9854002262634836 0.5567636478257121 -1.1634563192713834
Ni 7.0277945564318145 9.185819383511099 4.703554379858735 0.8296888194993711 -1.7964176946055963 1.668625125738939
Ni 3.63868593801077 0.772620086782674 6.8607983868608855 0.4970518337873762 -0.41646471896192794 -0.7563128777103814
Ni 3.9444749456033095 0.19392940391586436 11.64230417790651 -0.09302019838247849 1.2601452247547007 -1.633292511875916
Ni 5.979775825576971 0.2751999902009556 2.6916725840359845 -0.10750399382095034 1.1732712484792762 -0.2164004971140531
Ni 7.562145879182399 0.7972412107932003 1.2482931026295336 0.911109228859392 -1.2577638690067177 -1.1165807377657673
Ni 0.5281167181535438 7.934014889769086 4.387350759129024 0.7368925642022406 1.2255494890577023 0.04373986409011177
Ni 5.402962237854366 3.787602765913516 3.5661975082822703 -0.9277913175007635 -0.6064435315493427 -0.012544669434230007
P 4.247265751250673 4.341727506400693 1.7678677043208697 -0.8347760042142914 0.5810664862371347 0.5193206724879056
P 8.246848752238941 2.645821247233296 9.29877802133639 -0.6626504177582137 1.954040202349493 -0.24312402915182646
P 0.5423250684145957 0.32652534478821194 5.9548429253519 -0.5641720244746412 0.29169011098598796 0.8170217655546639
P 3.831352602273037 0.6463635956060628 2.42430286725872 -0.24252496211524682 -0.7621737073665326 -1.2441136252131348
P 1.395754974864406 6.450714257493227 0.7470884658624163 0.730624986025974 -0.14143792756423385 -0.5544285719346322
P 2.664702561937121 1.7950032713124118 12.553294043540616 1.1475820712432883 0.005786267664473906 -1.1825539593327827
P 2.4846632942108267 0.3292016538865135 9.467722102477836 0.7014216249891404 -0.345845771092785 -0.5146222385709718
P 0.9566931317272334 3.333522322235015 3.6367849308265123 -0.8069173301308104 -0.28187209645430167 -0.07174174861967644
