# total energy = -340855.72237037984 ev
CRYSTAL
PRIMVEC
9.46664626889715 0.00000000000000 0.00000000000000
0.00000000000000 9.46664626889715 0.00000000000000
0.00000000000000 0.00000000000000 13.85539371779762
PRIMCOORD
 96 1
Ni 7.349591824191284 0.07392220132690143 12.134484553477723 -1.1139643831888428 -0.01435806849388495 -0.44468720414273094
Ni 5.358737164203063 5.530007729906227 5.747646876079803 0.33311238268651666 0.4757178481962905 -0.2138445634614188
Ni 3.616665970204183 2.4383430327932505 3.1499129720837686 0.07867935627977417 -0.5352525132268137 -1.1434125132466308
Ni 4.855395577952938 3.4031268285633316 10.714874787319342 1.3390505810023519 -0.3260297648081224 -1.1080284773203821
Ni 7.938758026219923 0.7785994754124413 6.950531027437057 -1.0067619797687113 -2.5781652103389985 1.7027776032509319
Ni 7.814669225908345 3.5289764250953826 10.12394210908242 0.21776909532680558 -1.7235855411352188 -1.109378306480057
Ni 5.820955638723442 9.328300776916784 6.248644520694502 -0.5741597318149724 -1.6464755862250933 1.4148441310938988
Ni 5.69628937298472 1.1476794031869026 3.7540639286144835 -0.9663871754960903 0.1910908147046709 0.2860120867646042
Ni 5.690808184750023 6.801151134745831 8.09626124814119 1.65511474995733 0.47726436674780387 -0.1004054351029561
Ni 3.870722358208595 8.687806418396736 1.130870425933833 -0.9273238909460416 -1.1718959653983045 0.7550651213462093
Ni 1.5065978327728955 1.4742313689137798 2.2761083810279406 3.0796825360968962 0.1668332277088869 -0.5561404124194164
Ni 8.241719109251008 4.145898834212331 0.273376866533242 1.073031649530223 -0.05564767127129127 -0.3830102959582243
Ni 8.202924792522532 7.172906336777849 7.33109683722388 -0.8848374396470567 2.1209341080929858 0.895289231108
Ni 4.459869626944541 3.3139320866854174 5.1368730537649885 1.6204169414648284 -1.399858456318344 1.4230595770251557
Ni 2.21907657011269 1.6597397707222705 8.286537053049841 -0.11049624368005487 0.8579460145728515 -1.1879599608397025
Ni 1.0845368720549047 7.723013155980309 13.046986901469289 0.6288944043536911 -0.4060792619625458 -0.1317582383826247
Ni 2.8118400977530476 9.516535572873103 4.953704806933383 0.6316349432133057 -2.94970890041852 1.2441125967718702
Ni 5.315029658020689 5.590130400853652 0.4752313265884523 2.6526007037407546 -0.008684158037559238 0.7065139519103832
Ni 8.714019562130545 2.2266688204826846 5.556317433432771 0.3285247633158342 0.002075394471789974 -2.2539161915803825
Ni 6.356767821942495 5.154465869335559 9.92946784651904 -0.45496853146408095 1.8572240272596916 0.11954164171177477
Ni 1.3863524908780471 5.281205330624193 5.130042868425897 2.202470474205581 0.32136141279817554 -2.285708653500631
Ni 8.96935394739175 5.057839810075543 3.2833122190772546 -1.2181879064863086 -0.8523536080867384 0.33999059786358865
Ni 7.848938485683133 6.469231580540416 0.7623793235621317 0.22211245989716588 -1.1401865501101653 -0.08114170177733768
Ni 6.27431333226338 8.523938770136635 2.8001336428808092 -0.22028311999791095 0.4474100023905327 -1.7883300325014553
P 0.87699863753318 7.533424629596421 8.312557077198178 0.40644333017018386 0.4600580301718463 -1.143005250505883
P 1.0319780515384351 8.693647339192605 1.5900728269281774 -0.21389984217938643 0.7021631311408553 -0.3151856230047669
P 4.226507327853854 3.8675226317434355 0.7478546480725028 -1.8124246115568141 -2.262400060681678 -0.16747780327142126
P 4.222559736327311 8.411938877209696 7.250458050314048 -1.1727523998613285 -0.7241697173189335 0.6810248065003432
P 7.173010469887662 4.2953961133182545 2.131680491040635 0.22075723142085205 0.5699706334342893 -0.004876097145378699
P 4.184106218867314 2.313317034493356 8.94612279725713 0.36074454258148836 0.21770841729219922 0.16805938680650412
P 1.0204098097028576 0.27959361318907155 6.3387868738717135 -0.7384786777424379 0.632983229711084 -0.5180304929215724
P 6.458912936022594 9.077519848548304 8.877732904055197 -0.23746863063826198 0.6082584732708943 -1.4211690448706622
Ni 6.057820596962381 8.186973493428468 14.203580098856175 0.35392983365250014 -0.09935102569651276 -0.9760786917522416
Ni 5.024640281337925 7.821267478411944 4.611449568246723 -0.9592492788997286 -0.16829464274576178 0.8957777407086445
Ni 0.4984558500706308 7.554364851315159 4.403383094858856 0.4908912135026191 0.7295348382855887 -0.3445954436254517
Ni 1.0533726722818106 6.401857458491477 2.324367450773773 0.4111492202862855 0.6694967512560858 -1.5457593047499378
Ni 8.556343100581136 7.827439731829944 2.4622557814648287 0.023044797634605475 0.7026390423360093 1.2044885546223447
Ni 4.500491006417915 0.30848392450970596 11.93050577798233 -0.7221850827887368 0.2256965777039984 0.5630543659304303
Ni 2.7581547463213294 7.369897780604798 3.7763010808827087 0.6020009223969567 -0.3574584156310489 -0.0022121771599703834
Ni 4.83835561452901 4.409412401917022 8.101927982644279 -0.24091493731564959 -0.5681088976352022 -0.03443504174941812
Ni 8.69511466937633 8.627153615253901 0.17053879394057028 -1.0030030269469115 0.8798034767675751 -0.36576976371022163
Ni 6.999401642536881 6.23522554949816 12.359108191325838 -0.7704536879871376 0.8621538820066119 0.03680765574665274
Ni 6.4045175861148795 2.495748776239193 8.527122403303004 -0.30561494859719623 -0.7538312489391082 -0.34800061265225873
Ni 5.368213277196036 4.204052442719656 3.270704539472818 0.7249518469005967 0.60988521024104 -1.2833453170202478
Ni 5.720751187144402 2.408579896679457 13.07173271501937 0.245368602211629 0.32337201547030114 -0.9108117522236314
Ni 8.51544718836371 1.7504775759546842 13.357721994480224 0.10614028070420431 0.4765251745889342 -0.48859984636528114
Ni 2.40938456161892 5.424094890580171 12.565401561852982 -0.7559161564925949 -0.5004516034975446 0.41093273340010517
Ni 4.219946941935643 1.6312830318043114 6.86667736742791 0.21793878813545045 -0.1955956445535599 -0.11598220649529059
Ni 3.198495801134656 3.182875834662722 12.123677430008412 -0.2189687720618616 -1.1769448406761214 2.2458293008071903
Ni 2.337333916274747 5.784632116691437 8.745205535190236 -2.4019227735010698 -1.5480406445849468 1.216325142245957
Ni 0.7946435476407038 1.8824804926120426 10.138822730474685 -0.8211956944266954 0.003620627471722797 1.7955136947340886
Ni 1.9269453305021467 7.207592128991888 6.3216484573257805 -1.8222410834266036 2.338666179534269 -0.21343113007308404
Ni 1.7301242863094375 3.354600799390525 0.33310004500483853 0.3106250002172779 0.4167143730788888 -0.17843713049640236
Ni 3.1912727499721796 7.449322943452993 11.862613830378228 -0.1715835979096787 1.6326044846699561 -2.0118440007318386
Ni 8.924311644074503 1.127808912505334 1.7558527377502986 -1.6508441476064346 -1.3818365658196265 -1.2688540653826084
Ni 8.921698849682834 0.21996983450411461 9.175111505735675 -0.1874028243301224 -0.5348215963369821 -0.8975597723097316
P 3.934631687694669 5.391453893977004 10.785855701626348 -0.7179653882804344 0.5671861287106167 -0.924093556934202
P 6.933390717561855 6.953734540560755 4.127272260860709 1.3490467729831155 -0.3609263195749913 0.8235312845384075
P 6.29605821892158 1.7706131327339587 5.692017075488487 0.906224132852949 2.5733281939616712 0.5102063688914632
P 8.474920475353802 7.712940644267498 11.80626456466457 0.26600221930158063 0.03213467575101562 1.8131447775522902
P 4.00354887309811 -0.02649240980103393 3.251015808401104 -0.11290973821755391 -0.6729047484963702 -1.6634613221498127
P 3.9748365347287917 6.8736656457609895 13.616748371816614 -0.1536208427836709 1.5713474376316874 1.1699887210732625
P 6.800213936757515 0.7342652772419207 0.9171646713172811 1.4637418852358663 -1.176064237843381 -1.0638124449248
P 3.3346356422454893 4.736352500144111 4.099436533943088 -1.1175790971232946 0.6235434244544229 0.41049924540711236
Ni 8.769976908685454 6.161906373543538 5.525821578891749 -2.1887071018729016 -0.8013346938367102 -1.2185357767440306
Ni 8.943869735426633 4.788863987428847 11.414142819682418 2.343540991128067 1.8370550085109847 1.7153274148914848
Ni 9.180876693360771 5.9545016187353 8.958898036501903 -0.39475072432360403 -3.126708012916815 1.0057960163110162
Ni 7.527489042337087 9.375974807918395 4.759840196394726 1.0341365151269224 -0.8795489375546077 -1.1336821733327445
Ni 9.52874754666025 4.155952412632448 6.417153665658356 -1.3824770276171028 0.410430596952706 0.6924615875823752
Ni 1.8599688075997651 9.131924665102366 9.43591098593279 1.0455365294337478 0.807728513178196 -1.0679321235201285
Ni 7.709542118229058 7.751422561666534 9.78158936393839 -0.019147776573044444 -1.7476451531875838 0.4534320402148965
Ni 3.7283061305699476 7.359910468709106 9.496764481978174 -0.8983930668443044 -1.6626573381912786 -1.0025872795657313
Ni 1.6586511063924083 4.001655543828784 2.652324266818489 -0.10363628333542797 -0.1850710908731522 1.0024571817457704
Ni 7.527223976239382 2.2875582897841853 3.060420977510571 0.12275783465622729 1.6631808147949163 0.8492276608632472
Ni 3.703077518056188 1.429198532242878 0.7666535143876336 -1.3932190966249556 1.0956463016059454 -0.7868745525473223
Ni 3.623917421305699 6.277948524460484 7.163598730089847 2.3437114552676603 -0.15756774324656087 -1.508361323717454
Ni 1.9700659046110298 3.9630221600882023 10.289625460111807 -0.04650148599564895 0.7513532197122609 -0.25457006620523903
Ni 5.46189520944225 7.739532453855172 10.84785844853821 1.4157872117334585 -0.12987927619235695 0.9457255333816809
Ni 4.398677224959949 -0.052092114851580995 9.504301825799358 0.1968284885193965 3.2305556409321006 -0.8329762320013914
Ni -0.31993477993058517 2.3810224891644274 7.9011072803701206 0.33249377526591123 -0.13224289132852707 1.6518340223235295
Ni 2.0346284326950217 1.9895103962070004 4.88617353855509 -1.69278861035902 2.658780607299221 0.13969729072404327
Ni 7.225616623635865 4.125526611274391 5.121964979098322 0.04171229213712171 -0.21313622454048456 0.22167202992563756
Ni 3.3752759550115567 5.606952631411606 2.1521170871737323 0.5634266616681844 0.1001454965733501 -1.128733056857585
Ni 1.5242341949166602 0.8825129590300899 13.565968334148675 -0.2850564077195542 -0.438530954733348 -0.35345675067082355
Ni 0.6566274172239684 7.571868680410072 10.49454616691869 0.35434738080589295 -1.0061063484625834 1.327397570144456
Ni 0.29068189605487504 0.378105428401335 3.958859675689591 -0.019410029095495603 -0.35568461156007775 1.0772174054767962
Ni 2.6880447634782145 3.5792537838423155 6.458843829504263 -1.049421980531083 1.1409241996071384 1.7995469842631975
Ni 5.605617834276732 2.2839136309407344 1.5490888748997278 0.5644584453668086 1.6284819778611503 1.8631043972998689
P 1.1665464293557293 3.8961781702346734 8.169056918552842 1.3965260495110012 -0.039977311723885994 1.1735625544674497
P 0.6627731640321983 5.671411026385786 0.145065941951068 -0.38581254129370973 -0.3101591163244529 0.806502611190895
P 0.9187598012266875 3.1484172419610017 12.120892342653235 0.18198422441771236 -0.48157225009453836 -0.10245203321933967
P 7.91682380663479 1.4978127849632261 10.5393962973151 0.22464062563565826 -0.2814375800200444 0.47709853059390084
P 0.14554116759766866 2.6432769929050184 3.5951700563448985 0.6769244111787245 0.3260205088367417 -0.3078412668245537
P 7.08266079715546 4.147602830554724 12.290413472111544 -1.5240000586959754 -1.550975815953871 -0.7923018942104807
P 7.556864045950669 5.044207839336401 7.552339935661616 -0.8549375667638308 -0.07271979626222959 -0.34485769614790285
P 2.1911215634511025 0.14244746757159116 11.426044287469399 0.6633173619182512 -0.13511712755252858 1.7952599268520693
