# total energy = -381170.30907732714 ev
CRYSTAL
PRIMVEC
9.18001850751059 0.00000000000000 0.00000000000000

0.00000000000000 9.18001850751059 0.00000000000000

0.00000000000000 0.00000000000000 13.43588501622912

PRIMCOORD
 96 1
Ni 2.8226537498898603 2.868911863464474 6.839765616025173 0.7566319516126969 -1.174286577117668 0.5211716096537153
Ni 6.10844861665863 1.719371578082404 5.383907388998661 -1.514314198866779 2.949711214411365 2.8692837650922325
Ni 2.2931686388050108 5.603868895954397 4.5824559657585935 0.7976706147215616 -1.0676045649773807 -2.0284330154387713
Ni 5.216527192408606 3.7835446536568664 0.47290406662818546 1.1102391118184558 -1.304503696265418 1.9927422469053813
Ni 8.317968926253107 5.931053937810479 2.187039362118218 0.009487113554828822 -0.8315071036550324 -0.9599347350025272
Ni 5.874844684105903 0.17782797572465825 11.899182298618069 -0.16615754179810094 -0.1501130867407286 0.013376164196589865
Ni 1.7884879378965068 3.207039487456087 3.4590016211452514 -0.395528483029893 0.24642789671407878 1.8694179982227224
Ni 2.382012858526207 6.021183360131486 13.209987970220666 -0.581230779729141 0.43762155554520116 0.3762464948718295
Ni 6.232782788171741 0.7481614154407754 9.689395768485058 -0.37659847889460946 1.7992091413078046 -0.6825551271019406
Ni 2.4214502183032542 7.438734287666929 8.311586059341334 -0.2185075161547269 0.5079252861667704 0.5662623313447668
Ni 6.833752703861773 5.972602701858644 8.919708127499312 -0.8487350374975448 -0.8984347187155171 0.357804486116558
Ni 7.541265915076108 8.006123695427622 9.918007606939378 -0.20217535465360664 1.9977564122905207 0.8158598840360788
Ni 5.550633968266526 8.337090904934577 5.545729084344535 0.03343025463398759 -0.6791260468157336 0.4984073193740062
Ni 8.138114002428177 0.4921150914897837 1.5782866266844753 -1.8992960167290773 1.5372373833218558 1.2943241846292548
Ni 0.17460946121398954 6.761083676861051 4.11713184046372 -0.5202010182103299 0.08565244516349765 -1.1804803646332056
Ni 4.9288345904409905 6.11556313105044 4.95726418995066 -0.4955546804165595 -1.4466594758322828 -0.7704320907205827
Ni 3.461215841624354 1.39684080564135 0.0817728514166669 0.6937677079883084 -0.504909125048266 1.8089168555138717
Ni 5.828586570531289 1.6123050214996064 1.560524208753235 1.2596279187986499 -0.006791826110852819 -1.3180156147089237
Ni 2.6803451020165405 3.7777520619391485 0.37272894998594397 -0.3185817931705094 -0.3778225811096977 0.06780101880437356
Ni 3.3228270616804565 0.10668650381399644 2.3491034099543415 1.1253037194610618 0.6130322405104538 1.034471786979154
Ni 8.182820692864446 3.3482740731567078 10.604420545470393 0.40707787843038923 2.1893874157693776 0.6052194293342544
Ni 4.628794863496624 6.0067799109950375 0.6021926941635662 0.7217960748804343 0.7077118288732264 0.10208359413632741
Ni 1.3555490821131477 5.175373169158955 1.9402226288375808 1.0308650434645021 1.2244048339302978 0.7409855033246916
Ni 7.792679083654783 3.6865393974268725 5.955966672205951 -0.6865015133441984 -1.2976673900698747 1.2212729731695355
P 6.904824407631303 7.337533762950409 7.464117957015046 0.5668310593640431 2.32746696838434 -2.5000576674022943
Ni 2.159535108480413 0.35636740288849733 11.881676003204932 -0.7915531889699142 -0.6225697476872439 -0.22969232912695278
P 3.047472404671024 2.444326824579884 2.0043120104827103 1.0309827999892889 -0.8998490825645404 0.37776447417825265
Ni 0.8157373681388196 1.498518691323513 5.382456028062732 0.08130625237965998 -0.3563487275066379 0.04195731826839225
P 0.3766120978410862 2.7909367857302474 12.755734029319447 1.1555373215346227 -1.6786591129361734 -1.3567127741688054
P 3.48840705662892 8.652048162055317 10.520418785544912 -0.3457889497129206 -0.699814942623653 -0.4023550190334232
P 4.906398625055725 2.247020685453238 8.202137287939602 0.013505490685602547 -0.09830844336461134 -0.016269169473668754
Ni 6.099865299295608 5.32676085539808 2.4711682808769293 -0.9708380121785926 1.192223878322379 -0.06736136016379367
Ni 7.155879555485744 3.698115400843738 8.607579234100012 0.5962275102482893 -0.5990523812915941 -1.0811761330142282
Ni 3.381349680064692 3.7198628648362484 9.708662791459934 -0.4144934541681701 0.7170724441525198 -0.9760118430700481
Ni 4.9792328923907085 8.779329119529422 0.8093333871843346 0.7533882478644186 -0.9012588184278736 1.0418675652225928
Ni 0.8103854173124653 3.9874328660982568 5.693483319233623 2.5149541248981526 0.13616073832569453 0.3176801072918464
Ni 5.861809057736395 4.467612097443228 6.975938339486254 -1.9420699173614941 0.43391119657314947 -0.8016275424867807
Ni 0.1452187137600339 8.158089722836662 11.749466293760554 -1.4917471121995407 -0.4734791886737588 1.435922806141069
Ni 4.060010092913278 5.9925876022857 10.061395824996538 -0.09908980161532611 -0.16311515542735133 0.0307143983647213
Ni 4.039960932356232 0.19239207518608395 7.056634374724651 -1.0465472300864491 1.2046322792890607 0.9661976851931037
Ni 6.336140617252227 0.5948872353854997 7.268733195775118 0.9830751776747327 -0.7778620646360669 2.0304613587227096
Ni 1.7790141587321884 8.46655670682836 3.953025238495754 -0.1246023440641338 0.031209849943901087 1.1411432575964797
Ni 8.023143449856542 1.305270120404841 11.275784679559482 0.18172325744684187 -2.2018125289066077 1.2978167711635455
Ni 8.539317534014783 1.370769552902334 8.932753851889247 -1.7498781562831607 0.8306252152707114 0.1787754876724276
Ni 0.33345132253201637 0.7732265381445111 13.402550793752152 0.8536705271259493 0.357304663662004 -1.1175536432019977
Ni 4.054850922476895 3.5875512571857415 5.0487485830126095 -1.1119820626514914 0.1235098823309034 -0.20065454713370603
Ni 6.100673140929776 7.033858748652292 11.607731397047864 0.35481660713282764 -1.9532123071315588 -0.18362098869018698
Ni 0.06984800729413805 4.763851296699583 13.179972063502086 0.37149483911945697 -1.6851040972305686 1.652768875432973
Ni 0.10688295621139608 3.3703336577806007 1.8549448463308589 -1.7723961348800183 -1.5173375590741351 -0.6106822522210386
Ni 1.9020998477197688 4.716656821230822 7.816245109326025 1.0364831609822278 2.596810850464644 -0.22824017006145855
Ni 9.007250620587273 8.616778530709084 7.878386491030584 -0.2452971255437453 -1.1657016636621345 -1.1719725842725106
Ni 1.8417779456957988 4.310358379337823 11.566281777200256 0.4625080343742357 0.5031445769486753 0.11583745338731018
Ni 1.0691600427824834 6.684164301262383 6.065899230586328 -0.9804223134329179 0.9544338597889562 2.978367444695477
Ni 3.2268591475488813 7.497256906051164 5.8825393756713416 1.2842156354403431 -0.7596257441336982 -1.4066939911829386
Ni 4.884990821750307 2.077309682148241 3.450119953178703 -1.3557480962626909 1.1334435749593772 -0.4359583089101653
Ni 3.71281261057443 4.647329320989607 2.7522200574109514 0.4840284249445148 -1.2310673335521378 -0.4213019924495712
P 3.4497591784488995 5.168148494544305 6.3651026578389605 0.22020804378560138 0.04798938339508509 0.6205113224963185
Ni 8.815782973271196 5.81172287641806 11.251357568146368 -0.694196825105927 0.2517099710486246 -0.5812806591304699
P 7.018454677491705 3.454431807901068 2.3688946119895684 0.5942058518325701 -1.0012580192313467 -0.3919937304037571
Ni 1.4790386919178116 1.1824231119000825 7.8491233458347525 -0.0635216747027293 -0.3320816274291571 -0.7407695306591435
P 1.8572003768935264 8.885395054088082 6.268538960502187 -1.281731949786541 1.4769727821038434 0.5634703704219264
P 6.742292178848105 5.069637715268819 10.790534405956402 -0.7660822983923193 -0.929066070448129 1.5463547722420916
P 8.182976753180139 1.6812102408865974 6.676398923553955 0.19062261681900075 -0.18259434719788556 0.3997054972257181
Ni 2.223932938749497 8.358131507497191 0.5184681707989012 -0.3627476890544462 -0.014404091240471968 -0.6133466864270792
Ni 7.191250167036247 6.513526116081808 4.9048508739248105 0.056351125096219076 -0.6913524136785965 0.35222519225656757
Ni 3.248744311819943 1.0597780638038659 4.6755000439756 -0.2779606772150374 0.1907462868810586 1.1487642644768474
Ni 1.14111302833474 2.491502940011505 10.307500188836139 -0.07968080096109503 -1.1894833394627644 -0.31260269276893904
Ni 7.086854995857341 5.559896607003732 0.05143931605556444 -1.0258151397454205 0.2664063967185348 -0.425916351293131
Ni 0.49258510844057163 7.893769448148461 2.0727270168780594 0.37365173756145975 -0.3397427435188407 -1.2037604182070687
Ni 1.1473370809252517 1.0975079401268786 2.308016400840252 0.2106322271717082 0.21346095486975497 0.40234756283425543
Ni 4.087146227806423 7.745016427238948 12.527807020250455 -1.3345894599072048 -0.25628473490350057 -1.7214103878607707
Ni 4.247502792188513 4.541208306319527 12.114801656790158 -0.07981681231832706 0.7359973060814808 -2.163573282919751
Ni 6.477577163361391 0.430023281885503 3.882769638377105 0.23097068161874415 -2.4989757471920253 -3.4888527782799397
Ni 3.2798370347167904 2.2128067562425646 11.448784883518138 1.705700947545314 2.1202003152507554 1.0689111996039462
Ni 7.579436432290485 2.67909661949101 0.10745028135902678 -0.9943741476273198 0.12996437970699554 0.1569987581169683
Ni 7.026817674409044 7.866155952289672 2.3638556997964537 -1.6453718116379534 -1.3301419656588125 0.854124326833916
Ni 3.1420174159242378 1.4064890051585 9.390407153666965 1.019762248683121 -1.7117715792194261 -1.1688654061020967
Ni 2.028692303801118 6.988518636934686 11.056524526022502 0.4892732182832219 -0.029935354106851674 -0.7465995070773593
Ni 0.2030454867366573 3.307120049907057 7.879434849151288 -0.23591774121137432 -1.31051853500093 0.7586950047893127
Ni 8.224920258026815 8.693844786604874 5.730150149406221 -0.5344775827340021 -0.06991060894820862 -0.24020711261534758
Ni 4.627362780599691 6.658919250194674 7.496256284027025 1.0886845255761315 -0.4748848107720337 0.4991416264368694
Ni 7.135545814353025 8.110518866606528 0.03615274913267372 1.3832666133979339 -0.27503656158970696 -0.6185814524634572
Ni 8.723734927069042 4.485366253357754 4.008932469589374 -0.5937389394984806 0.7683793219566122 -1.577222665465542
Ni 0.9316066445284632 9.09150483102343 9.847831872982288 1.192037473343186 -0.03896686818150063 0.27068754059239186
Ni 0.07169686303415139 6.850451157640741 9.245769535082417 2.2110366186080372 -2.153878424229491 -0.7186750127529494
Ni 5.132484122399559 7.93464807084101 9.466642617882162 0.29124659569066613 0.1769759725698436 -0.7492099481170129
Ni 8.018571800608646 2.2103648713029243 4.098563416902027 0.9928129737877869 -0.3689453332247259 -1.6067430435221617
Ni 8.580921378174367 5.375616914228026 7.210569516116972 -0.5473711508672185 1.9688032195912804 0.4154180228649684
P 4.9567418468940225 7.679416014537184 3.4376250299029723 0.08364235671200435 0.5509467840336189 -1.1155571815972596
Ni 6.138265316974238 3.998577408642329 4.503318697673396 1.0465875964060813 0.5052454253417621 -1.6207851234375248
P 0.0017487935375994977 6.729908333797072 0.16766110515829896 -0.06909891168019068 2.821832770699121 0.23245189414996095
Ni 3.055780321476943 6.740933536099734 2.1921856805286026 0.2233571309375444 1.88314563222146 1.0300667159329226
P 8.582610501591262 9.019505945378324 3.6876933257611304 1.0200404420451723 0.20762635046584887 -1.2930854271261472
P 5.462120229213852 2.1036287953886497 12.498154642267252 -0.3678862958325922 1.3721206240834434 0.14988734388316766
P 0.9218574648070423 4.672087831073102 9.66475476263926 -0.7950005240885663 0.3612309952996037 0.5184891777255457
Ni 5.699405349213179 3.131249254141539 10.169917414522695 -0.8795209125301499 -0.164943981105974 1.8956591913074385
