# total energy = -340869.6820780629 ev
CRYSTAL
PRIMVEC
9.24955174172197 0.00000000000000 0.00000000000000
0.00000000000000 9.24955174172197 0.00000000000000
0.00000000000000 0.00000000000000 13.53765393302674
PRIMCOORD
 96 1
Ni 8.573141443274501 5.7464876242174325 5.060483506157653 -0.04551083994760549 -0.028324815086622185 0.23061021295553186
Ni 5.846290289499798 5.581864099037121 8.993158046506482 1.56788184768059 0.25876713500572207 0.4170696995357785
Ni 0.23197136266445909 2.4668924968923207 2.9423684885178636 0.0085219214280821 -0.5508855917783803 1.5556315695583274
Ni 8.348386581022767 0.4221772985619121 13.317924792822465 -2.646685880918216 1.1475411907030235 -1.7028742767297962
Ni 5.349385860927113 9.299684497515887 10.52831450427414 0.9239601166801314 -1.5119855507336024 -1.021665379243105
Ni 1.6112719455225355 6.8234869513859335 4.905639532228784 -0.6226185986473083 0.40609366014024906 -0.1540479030187605
Ni 6.290102290016803 8.27873745501941 8.548094581613878 -1.6065622949699234 -0.5630736492041399 -0.7473327856989581
Ni 5.484660557845983 3.699802271326769 1.1908529867817705 -0.41406433705055146 -0.03605689362355726 -0.20179585982700088
Ni 2.2608494781870396 3.3573191121599324 9.34978099570271 0.49704926268421495 0.29853001672595686 -0.21426930970366323
Ni 5.727470545457418 5.813981604622013 2.4531448878645934 -1.0466467317787909 -0.08098409315355086 0.3925146359042337
Ni 0.3521951886892169 3.569198598130568 12.48082369431907 -0.3037079613824705 -2.5122765780659893 0.49429201165405195
Ni 1.9272551384211625 0.8536087738258638 2.0584276590608175 1.371739843705257 1.2124296638462926 -0.48722482039462534
Ni 4.272072048993126 9.041446257291756 2.703077030459108 0.22338721284453142 0.7138107426821126 0.11139715822776945
Ni 3.0689643308644956 6.820961823710115 2.850677680274667 -0.6079522548843852 0.2434909255729419 -0.9689521080097894
Ni 6.447797900804482 7.549798766829169 12.177728827074239 -0.010577004184897912 0.4798190148488576 -0.30599675741664717
Ni 3.9310133208229048 0.8969947220903184 0.4508823580092981 -0.7439551274759768 -0.23197418318259405 0.363568899404161
Ni 0.7969136452949775 4.545812538245361 7.605670685238635 -0.6702827374924907 1.574321946878979 0.34958055554486894
Ni 4.3568996897071735 3.989775724209269 12.281373756226696 -0.1695359713520306 0.017204536803744563 1.6248852616488274
Ni 2.779629097064895 7.371078924513517 0.6565831432933146 -2.248515846500418 1.532885019890431 0.4203805090765663
Ni 3.913069190086316 1.0878305524739373 5.766417633752549 -1.0655813638997647 1.4639542583569882 -1.1093950186506056
Ni 0.07012917774831981 4.384269113856433 10.354112143119185 0.010545636726330226 0.05446753492026103 -0.31418109299965247
Ni 0.6859856189559267 1.420805172260767 6.601041702250141 0.491126983662509 0.20352698358549462 -0.24744913888974154
Ni 5.015329043564933 7.979606945730094 0.5125306215965982 0.068817632994346 -0.16282462077012602 0.4416247631673233
Ni 8.224294592382522 2.888033845638512 0.9871334555203197 -0.9428458978410408 0.5007022860557699 -0.34904088099131503
P 8.445090646409897 1.6962290799635484 4.956378874274469 -0.5172833303429027 0.31245485433716513 0.00015760862378682533
P 5.4069550721150135 0.9502712162293268 7.482992953087889 0.9951241384194669 2.1732406308061862 0.785132373045235
P 7.8435737855532865 2.026114349407069 11.547104551261455 -0.9710781532138565 0.8938118752315253 1.2308382482604674
P 1.161863966090254 8.197091660167931 2.41935442476825 0.5693813365897227 -2.1632866049172677 0.7266482607664131
P 3.9942617568934162 5.5116045026066445 1.1215377696029456 -0.2461011095022794 0.47209336406982566 -0.735297966021611
P 4.141375880277664 9.050649561458203 12.11705361634956 -1.3120825370539404 -0.9675436576980367 1.0699193291534865
P 5.80326137393969 5.65080100954217 11.346733357797246 -1.7586682437709649 -0.8363703452846046 0.9623307460385296
P 3.384559042582228 2.6734349914016104 1.7909500414177282 1.5761631138527759 -0.3998808464613178 0.23001654523559095
Ni 1.1913792862863644 9.369703605596287 12.596882447111515 3.010725035090576 -0.7160506877562248 0.6075257088699278
Ni 5.934059287726338 5.813454380162226 6.785613736069421 0.4070511389575119 0.14301889889810854 -3.102837376946805
Ni 4.296740603979972 4.501035457371224 10.05553938181101 -2.7639958050859943 -0.13461113445038753 0.06680265944684624
Ni 6.225420173397749 3.380979465986836 10.77223628802709 2.176684623490728 1.163367359102003 -0.06863251356673342
Ni 5.54546711220801 7.4498296096121335 4.086773925347648 1.172001380627917 0.3265496418673344 1.0597285046634137
Ni 9.316241195463563 2.5804677449926148 8.771425012868995 -1.353458786007882 -0.6556367054445418 -0.9074392362069728
Ni 7.3290119623537215 1.1112134197430588 9.594338223672983 0.21186738513038997 0.6769130983248148 0.8129367968520129
Ni 3.711743442863334 6.5715014082638294 12.286910538009645 1.2660564480328131 -0.3420374530902883 -0.6875448670070481
Ni 5.056554296499455 2.0469813385522975 9.461845791973476 -2.1636213625488674 -0.15978094884779578 -1.0987768768151271
Ni 8.331210163096042 6.859680448072671 2.985513023477048 0.24836599427705613 0.4342508393007553 -0.3679086644300954
Ni 8.955471672138875 8.836448437954122 5.278710034659962 0.46704808833643435 -0.9943409803965392 1.7098075135145199
Ni 4.327828348003514 3.8433645667714034 5.790718056572738 2.40002401381646 0.5274204187769045 -0.6634837122927865
Ni 0.41501722041593625 3.5719272159487603 5.4165912553116 2.4301486011159827 -1.3145520816403553 -1.8150988159548676
Ni 1.8170744758777388 6.167786215346367 10.17473835748236 0.41267414157124416 -1.9681401320859846 -0.3680585597443984
Ni 6.939346838811969 6.1573157225660475 0.6363182999784733 1.1656445851719537 -0.24289211564667848 -0.268808321291808
Ni 5.3405710379415625 1.6702933363628298 12.072744562802884 0.4984464001420577 1.289286365095031 0.7248600585177387
Ni 6.142266701582321 1.3380679302820124 0.7416050245978102 1.5647944670045182 -0.5434921275277865 -0.36340717701531605
Ni 4.809008538301869 8.481025155642703 6.594015742607093 0.738465050895683 -2.5449339590896947 -1.977786139816181
Ni 1.681559290608791 3.9004528012591475 1.4863798706406868 -0.2779421652722762 -1.4344325947487877 0.7236300427653796
Ni 7.634358170537361 6.131786959250077 10.510634910722638 1.5361534062290576 0.41943460022352924 -0.45586481802610523
Ni 3.8690413229181915 5.972472676875334 4.699298677951483 1.1335351062319188 -0.04406022354400799 1.272686294644505
Ni 3.0112748755015564 1.6181813608113145 11.090060141759006 0.087978522193513 -0.8195956969294272 -0.8188163955612415
Ni 7.906516986410237 3.945211383029432 6.432525040664145 -2.056882529028716 0.5042786905531187 1.0899448803457936
Ni 7.706097695276011 4.218507893789216 2.9599944346681952 -1.1126387223988838 0.6458659992110232 0.5642147047871185
P 6.151007528152464 1.3989114828517437 2.7931426924288933 -0.4639748487277493 -0.19176650061545683 1.1668689444973581
P 2.318686926380796 4.662430888929334 5.051196956023872 -1.291381299950847 -0.9823871504687725 0.10879340205633521
P 1.8562925760443034 1.2913206948476215 8.723623328515032 -0.6312690752334549 0.05474238584820249 0.1747715087193571
P 1.2387462416998023 6.933612116617801 7.9998468152547355 1.1728431598029219 -2.1030333165531654 0.011523941479199508
P 4.476311405072821 7.000810111360748 7.964432130840173 -1.0813959623345182 -0.48461077981054607 1.1833481730993038
P 1.47070650490195 7.090965493984215 12.199105466530593 -0.03011250311466427 1.2349165320948992 -0.22567343777554683
P 9.127568835275456 5.2229352365457204 1.4860145133396068 -1.4973307769349051 0.3009674225228559 -1.2772983394952195
P 7.466784038292631 7.38665516995703 5.748995177744591 -1.4532402143735939 0.1749201184820794 -0.030553704417140927
Ni 7.259131597552213 9.005262010156946 3.8443422444099893 -1.2742991476575796 1.2405739874909925 -0.06373764736827732
Ni 4.2138923673781035 7.164221945238742 10.100254490687242 0.3058358063587507 0.22127119494279313 -0.5354934255930262
Ni 2.7767432368639593 2.704411740802041 3.9665870975305952 -1.1658610720581342 -0.07264292027770715 0.08878661991710517
Ni 2.563337574825521 2.9692911593090954 6.659943773870589 -2.2170954232076077 -0.6113643658897278 1.5651729333898592
Ni 0.47469717935336736 8.840277752451518 8.11405010793081 -0.7121138145956639 0.7543099883477397 0.5155367799654412
Ni 1.5999412444130916 0.2704541234529006 4.37643936815101 1.4466463632061601 0.4188848983676463 -0.7793998414368319
Ni 2.9852188877257984 5.641375716129498 7.032730315057638 -0.39190888399943474 0.21245282532021478 0.761952592494662
Ni 2.3430409966021557 8.604784160413608 6.585852088077138 -0.1820382175840994 -0.531520042767575 0.25533085563066354
Ni 2.404088039314261 2.45661624470245 13.167805490017434 0.08463454542194455 0.4895802080006794 0.27184068036022857
Ni 7.251898447946021 4.293336768871175 12.766346262814741 -1.1435444108388046 -0.7202842662215982 -0.5705445036598884
Ni 9.059131400574415 5.725713130591464 12.595149081080569 -1.134553263083788 1.3741471675951689 -0.7334696545636207
Ni 8.169712986466745 6.673496217352676 7.902375962012933 0.29920775951927175 -0.46610449347624233 -0.5266395747468221
Ni 7.662180822730999 0.78043834340425 7.3537757877254055 -0.09016550254250279 0.21476321862094624 -1.4624447636909974
Ni -0.01781093718885301 7.424957564482914 0.6351010589450017 0.2991010587380784 0.3843128168197317 0.27719654535550325
Ni 6.469885830803953 3.0963245054618302 7.943841703297534 -1.106610771037249 -0.5381774001830925 0.013201586291938553
Ni 6.067918803200518 2.07698688500049 5.4839816407346085 1.8525646741108095 -0.39429461062279186 0.7005201962207935
Ni 3.6153631117936165 0.16279118894375474 8.807029313098043 0.46951968980537845 -1.0498891499754888 -0.4954112128601597
Ni 5.096706601410554 3.1740392407447255 3.637418668361345 0.11631259325151583 -1.271130777231927 -1.8006705563446797
Ni 8.753470707625288 0.28236662137849455 2.109626703837229 -0.5757049648149053 -0.15886332212953286 0.16615728468778482
Ni 0.4167487365364978 1.2950667633776825 10.801410299757128 0.47628991864967646 0.17509495349704685 -1.0155564381318896
Ni 1.7943298276915165 8.405928043554889 10.308490578154197 0.2569982160307574 1.5066494832326698 -0.06134652142828145
Ni 0.7830753906583744 4.797566842569312 3.3714311535335475 0.7162221803370827 1.143948845366075 1.5465702306870075
Ni 1.9324626361555437 5.235560874924816 13.35153858947702 1.6290044260235235 0.6758481473954102 -0.9395523146914335
Ni 8.724852593966009 8.211187977303272 11.422450189864108 0.6622696373800272 -0.6703922664871615 1.0270855218174118
P 7.094702312962351 8.323708776483995 0.807717121944635 0.15308348222296214 -0.1829206201890527 0.5349087567341497
P 4.275781119315482 3.758740416199729 7.96320009052362 -0.27424491892634706 0.015446930682689526 0.7485095796158786
P 0.6020912580312198 1.6554293064176249 0.5239556681356881 0.8171850306054056 0.7756025791779287 0.6714163368763016
P 5.754266497387262 4.966139926422057 4.42868083742949 1.789550792282434 0.6775350481795299 1.101428198395045
P 7.806372087706606 4.529394583576575 8.751213816955326 1.5856931648303982 0.3641605102415728 -0.5040305790980546
P 3.536936161012413 8.22340663539762 4.644078852952806 -0.4948124029338963 0.5428195269407942 0.45908178230150615
P 2.212224583711655 4.03145420518817 11.447088221329599 0.8724038418693942 -0.36483002550477167 -0.6598481724227281
P 8.095365088084943 8.333050823929332 9.49790979493325 0.6537230333615967 -0.2882443185292326 -0.18308028569536858
