# total energy = -340889.97980154696 ev
CRYSTAL
PRIMVEC
9.09444149937676 0.00000000000000 0.00000000000000

0.00000000000000 9.09444149937676 0.00000000000000

0.00000000000000 0.00000000000000 13.31063441457765

PRIMCOORD
 96 1
Ni 6.818712209707258 2.0394558164916328 11.548599426591577 -1.3697621511535958 0.5551973317798568 -0.5950640860678075
Ni 4.552795702449134 0.43730622527234936 5.915392244746533 1.645584441869392 -0.5183184564756365 1.2802743914044081
Ni 2.8257248611447725 1.5893991840687824 4.849117165403931 -0.15037508215286363 2.3289214414426795 -0.2594405069236629
Ni 3.6547195925261957 4.727381698218153 4.938299078812805 0.3381795127967789 0.02357958709215294 -0.5344742402998924
Ni 3.8306606600965165 2.526754187346224 2.69976957304756 0.3257597989761874 0.7921941649880228 -0.3389827254243646
Ni 5.479983119996005 4.761576798707371 2.4913777188906367 -0.05364863856339148 -0.5873528334664788 -0.4474840501615777
Ni 5.315801165439662 2.859046895238521 0.7206735655843686 1.0798329887227724 0.1835137736883614 0.2544052584926006
Ni 6.0806618945205635 8.045325023133651 12.249470754993705 -1.4799989705246768 0.8479953311180427 0.14973513457601953
Ni 2.170152037005076 6.745511049112122 -0.03864046355281601 0.4297976886254082 0.7425505338189663 1.583061897855138
Ni 0.7690541761116398 0.1806829094307138 0.3219232255577741 0.40710333235168594 0.9410962621397857 -0.16639331195799084
Ni 7.855996937499468 0.052709564738140424 6.885684587237218 0.6775239924359364 -0.04497965003448382 0.3442097781512588
Ni 9.147280325281933 2.901536126484698 1.2318530306875333 -1.621207298576608 -1.536867915797579 1.2492805141260548
Ni 7.2059808171892685 0.8246630488380682 4.801665097366007 -0.39474763899981047 -0.020533601176977542 -0.7600057531809362
Ni 1.13989731258472 7.711577204582239 2.3400498481192575 -0.09426821185696668 0.23900203656365293 -0.07615941807139787
Ni 8.105166448989783 4.119336425981822 3.7800337224892355 0.47284181220007604 -0.5118593311138541 -1.3786609963051226
Ni 7.893347809230642 4.083904481432356 12.408678959428357 0.20230133870850966 0.21621126392138248 0.09056325220155372
Ni 8.22182085164276 7.766462159755758 8.778190597153085 0.6968126654622192 -0.32288222031807623 0.5668248887164561
Ni 7.261938916473885 0.9836002389124606 0.4281481225615402 0.6586196993322657 0.6571369441391522 -0.400055167255653
Ni 2.089475245398733 6.485364546587103 9.220316876483755 -0.3893843178053681 0.7876055171760759 0.4750462760505626
Ni 0.4259836454561057 5.266218269730297 1.024098696888135 0.1516932867436549 0.12526568867974558 1.0559420410377878
Ni 6.579237372983302 2.254184677569005 6.67565573358879 -0.18522792816599065 0.42676327267445857 1.056482229811974
Ni 3.905089570310282 4.725490054361303 0.3756704660846964 -0.7521101524829434 -0.524022191728633 0.4093589611550821
Ni 6.543669011809544 5.978895092798663 4.5452227609125995 -1.0549976748466476 -0.6340288973667789 0.2887330852401931
Ni 5.436975505577518 3.0995584983070983 9.242305417431318 0.44404905633809977 1.212822528409337 0.366230248286408
P 0.41728663093540386 5.763538715249547 12.265549727776934 -0.2243999703797619 -0.07316408288849979 -1.2568539555979386
P 4.384057432641436 6.349193472218737 12.408639853329396 -0.09539512637255829 0.9675446861393014 1.7850441626613323
P 2.748058329714475 8.630415924722433 1.1308392487317251 0.6563013356117342 0.5975482859422419 0.3561258128625544
P 6.421339677586014 7.841363980933735 5.729709211313432 0.19418436602833009 1.0671103989497814 0.1646922701064841
P 4.890008503257565 1.5692004292319335 12.435340224480004 -0.5585400229998445 -1.2990766117125758 0.14333925835200476
P 4.093362700716607 6.405851843508053 8.265677886908506 1.2373544521124302 -1.02099560686959 -0.806580772726998
P 4.9906839719851295 1.149055415295529 3.9093203045516605 0.9750613062313209 0.49434420504822607 -0.6364866148786522
P 0.521008737605491 5.817223204129296 3.2714743660166405 1.1179143689755264 -0.4137817728131261 1.0159323334140695
Ni 0.7490782350944679 0.16609360618475555 4.60227128374739 -0.8627881731565012 0.028915654593085687 -0.5636526616360615
Ni 2.108400778408856 6.60980379126635 4.642988917766094 -0.7514210968357188 1.2876172049227244 -0.2111832145791718
Ni 6.262787182392126 5.9450728644158435 8.903869414225065 -0.820821084696096 -0.01897191311681249 0.9786338540739274
Ni 8.714748681859806 2.4778988469664163 10.057994980723452 0.29710665401586894 1.1109831890733317 0.3025129126331048
Ni 2.342555366785422 5.686172300392692 6.96110206325502 0.6133418013310727 -0.6035081030701025 -0.025563193181085003
Ni 0.7665713935495239 0.5049434064846924 9.413227262671851 -2.1005912827705755 -0.037941769351095944 -2.3755363130877414
Ni 1.7396302651808535 1.3131555198772962 11.430827317063567 -0.5366262536458888 0.3732974395458345 0.17999316212961258
Ni 4.647141439809545 7.017835008965616 1.4323309017471917 0.01514379761997392 0.9828044405118492 -0.528208976116471
Ni 5.808574390149177 8.161561081472133 8.004189954244614 -0.8737413297338953 0.4369425272003056 -0.6029352612857681
Ni 5.574374329564513 3.3403884068323575 4.475075513813281 -0.34921494467533404 -0.5225075548563195 0.5766503594473101
Ni 0.7926769882182205 7.610301502707791 6.811571254147649 0.12266913159716292 0.7050764481329084 -0.6342785514837399
Ni 5.4114292190684194 4.919647288495427 6.835756102746313 -0.014901085481548532 0.3300573979102768 0.058288194217931875
Ni 0.9886294651280291 7.601270722179653 11.12996681829649 -0.02655049679501879 -0.18409201478933457 0.3124779942656167
Ni 4.79747255977943 0.39987986967573297 10.37870136999254 -0.6409582774967606 0.49122854223737983 -0.03951271338264163
Ni 8.423390055696755 7.295533783816218 4.335100234515489 0.9578297728443828 1.1897257944908735 1.4083405256474262
Ni 7.627890152799851 6.341590519024858 6.789288962735779 0.15030617658814113 -0.4979877153380843 0.25469605026014197
Ni 2.9102849793226304 5.823161874506811 2.454454285915577 -1.4604555011751108 -1.2370513190497148 -0.04817218882985252
Ni 2.4380015315817887 5.364783828002143 11.404711718509088 -0.2849736181977608 -1.1133041238970247 -0.538602146425337
Ni 1.7008606605570409 3.412643745499069 3.7153977070113178 -0.8735814071172632 1.1423236510578263 0.03021406168953506
Ni 1.6575165517986337 1.4137673275135239 2.3847863158896057 -0.2316939329380139 -1.2333373605332374 0.49364537920898854
Ni 1.2656552512987898 3.5795995047493503 7.9166859653145325 -0.9740693746316965 0.15038099569013458 0.6192720507725786
Ni 3.9561548600036214 3.0807057208299313 6.997294303123874 0.8512896855985984 -0.6595635513027738 0.27801235638857924
Ni 4.1746488199114555 6.985404230150576 5.771490895001614 0.9286356677789297 0.7305190565757289 0.6108478312646254
Ni 8.571975042875703 7.462580487482693 0.002490058115411651 -0.47222037656599314 -0.5496509480403309 -0.24687346889192968
P 0.34604805084174955 5.969218606915544 8.178001103587656 -0.8879734141728771 -0.46074065806116776 -1.9425473712185448
P 8.668348840717256 1.918818048409326 7.860755149354775 -1.6271501464236042 -0.11176174065603979 0.6651189339033643
P 1.6832265382568832 3.4588798866924684 10.172679527321652 0.5704863967284433 -0.5648934760216981 0.8897940123213838
P 4.643794685293579 6.413291096752782 3.614396657273777 -1.1845766461897664 0.45422214021635965 0.08256429315647716
P 6.9946350883943404 4.347525060656014 10.34841960773218 -0.011670494359392804 -0.5207921148271095 -0.06749274353533538
P 6.615733367202245 8.149938385082447 10.153671234892792 -1.177953484446294 0.9812748912412004 -1.2483212355365791
P 2.471932893264042 8.841607048009832 5.759125182731617 0.3596831911965096 -2.7333796228620346 0.7423438171247989
P 7.438107345084692 4.30963761686929 1.5795599076806748 -1.1753116759480726 -0.49400970452694276 -1.210998844937037
Ni 2.8160210919367947 1.7491339566732027 0.3233137656813915 1.3197333687309787 -0.05312773306291495 -0.37657945273121596
Ni 1.354908101352296 1.1608509060759855 6.997041477646854 1.2308184507661253 -0.5804591916704389 0.277739819453483
Ni 6.793029506573868 1.0713706949819926 9.285924178326633 1.2834065092754865 0.012344380497965837 -1.5676206235994035
Ni 2.8566368682093604 1.8389142843406379 8.924368285635358 -0.26858437820646003 -0.40310449560493805 0.6363953407164266
Ni 6.798276999388303 2.162076172846984 2.796843642893813 -0.8832294717299886 0.29138157860663366 -1.6886493913796659
Ni 3.984402195673704 7.061961239703298 10.522057053240289 1.186787537798156 -0.21426802415208257 -2.6322108272304923
Ni 7.4963481492157955 6.541013434856657 11.030217163725789 1.021071711523164 -1.8308136555869632 1.2847277991900714
Ni 7.79126270205206 4.115280305019537 8.191510896613382 0.025261602780266172 -0.44259098373533456 -0.8877512708597421
Ni 3.3542756191852927 8.535142554316838 12.105422984738714 -0.10087157610609726 1.3079793135188442 1.9988758706069447
Ni 0.043114928829596624 5.020686534887771 10.047039816348633 0.5783328893560556 -0.29638160292438637 1.2778526693367926
Ni -0.04563772693483838 2.422677397452977 5.658390600133527 -0.4623571106186683 1.2285144852232972 -0.7398876422748224
Ni 3.6219614138128544 2.7972228811093447 11.137673448124833 -0.04470865576128429 -0.2552254404010508 0.538656139591724
Ni 1.2481484511813048 3.477878175235547 12.700914289763524 0.7730435602015009 0.3584272073022214 -2.0738986039707377
Ni 3.2468884525425574 8.393587570509743 8.00281942189256 -0.06814091864229554 0.9175457285133553 -0.45536859511597705
Ni 6.141894769944474 8.18661626813378 3.463147908144487 -1.4313004768777091 -0.09200898350914476 -0.35190123325824557
Ni 3.335550163890798 8.714575887469035 3.5265461701179937 0.46681566061065416 -0.8581200782568704 -0.793206408302621
Ni 3.445119996522206 4.430966562514676 9.32597609921879 0.3046803525980688 0.5663160674008376 -1.254395466755117
Ni 4.991138694066103 4.660119208000533 11.331383235731279 1.6607608924995139 -0.23193124575980054 -0.347527272560266
Ni 8.159533020990992 9.033063232982972 2.5257592554330537 0.5269185394398216 -0.02494689975332478 -0.4544581674865657
Ni 5.117869738033456 0.3589312368398947 1.3027487503321336 -1.7680190888582457 0.7968445192758405 0.21532191933789369
Ni 6.426732681466362 5.891733964317636 0.20605094488407122 -0.1620445480709919 -0.4917571610473402 -0.4180456902958026
Ni 8.331963634096196 9.189387589980091 11.120250316870248 -0.473859454831313 -0.5777127392735534 0.5839438077849298
Ni 0.39328276172496734 5.100590298956458 5.523474558708648 -0.1923123458165978 -0.38605396788055446 0.4206741290575852
Ni 7.717161191736596 6.38483458892545 2.2955516547193384 -0.7136757597661451 0.19613994709280413 -0.5213976096215924
P 8.812895895817155 1.8719362018609436 3.36522168911849 0.9293249805364705 -0.06854895271399163 1.0535041210202567
P 2.1114474163513792 3.732304273981918 1.4146140200282966 1.3779739975404268 -0.3836304460407264 0.6672593772851347
P 4.807149045662549 1.3808545432926518 8.196289116240253 1.01484912765222 -1.555219164611257 -1.29954918047362
P 8.834113228115386 1.7608385030374643 12.369625608226018 0.29221975823721286 0.9721533885559062 0.9860717984092116
P 6.727585904680142 8.07052572086121 0.9906893561548397 0.4023557903643716 -1.0612032894367271 1.7871090156101608
P 2.221471971063761 3.558818705648855 6.022183725463192 -1.825367287760411 -0.22125988208888342 -1.8580714628616515
P 7.1518961728782635 4.228242364375008 5.700718859763039 0.8345782863811885 -0.4568292388219035 1.6670647232303546
P 2.4787537244786466 8.809803785666535 10.014655419185853 2.351438648708589 -0.7128694618147658 1.1471565536700952
