# total energy = -340885.9730768401 ev
CRYSTAL
PRIMVEC
9.14283640897352 0.00000000000000 0.00000000000000

0.00000000000000 9.14283640897352 0.00000000000000

0.00000000000000 0.00000000000000 13.38146525660275

PRIMCOORD
 96 1
Ni 6.450115696220875 1.951337300562918 11.27677449310448 0.7091254213913012 -0.3517968464698974 0.9465115196180862
Ni 4.52062977480383 0.1876530612625038 5.719760319637637 -0.14279778402623794 1.4619670527236306 0.24670171920075576
Ni 2.479345249120788 1.153323105588345 4.512296993651718 -0.5948139177302142 0.5386859643883948 0.9741369946448384
Ni 3.8782632277704043 4.508277802742711 4.860696662750621 -1.654314879763854 2.1772844618582563 0.4829449620723489
Ni 3.276152589682283 3.110136965192425 3.0357727905393403 0.8309298909953237 -0.8120232838988081 0.3998037133664792
Ni 4.965154483620711 4.653630616826849 1.9775662698071357 0.5068155980423594 -0.35722033147831384 0.9058520942255108
Ni 5.61722158014107 4.68955282128883 11.655697521734133 -0.8937306283716286 -0.27814836774581125 -2.4796029990923683
Ni 5.96398193866221 8.120850202906812 12.353647943042596 -0.7367300704824473 0.4563389294490463 -0.41519022312487847
Ni 2.1316248927710637 6.702137983315431 0.13037501939092855 0.24235706907881482 -0.16990621020725577 -0.3871070917354172
Ni 3.3837729176848232 2.049741649411048 0.5065579399327099 -0.4519276877552281 -1.3397944011469118 -0.15400290871343802
Ni 7.642487856341448 8.696684329001108 7.3987060077507305 1.0632054074684205 0.8604731518700794 -0.39520503825220327
Ni 8.319286325493433 2.5515188001574076 1.2441334144705491 1.7987622835783732 -0.38919174217858776 0.5046844106319694
Ni 6.650965527633652 0.8409315836141723 4.667548756774029 1.0139777807908603 -0.8697028979984635 0.39637051931521416
Ni 1.0946900953529963 7.38195358850011 2.236431055710382 -1.2877974392543305 1.803496712939565 0.6429277425183056
Ni 7.752969892156815 4.179821402819914 3.9280222009350485 0.631897452846073 0.10918678084001196 -2.324044572966352
Ni 7.98662422079779 4.241142406975299 12.803145440611543 0.428389752534288 -0.6427611350334543 -1.235898179281878
Ni 8.570686899708525 7.173048918163687 9.195903314105204 -0.10639687679970064 -0.4173851738936683 0.5506637055755613
Ni 6.7822749449110695 1.1657939345234791 0.20957666881643217 -1.0023314548011835 -1.8484213413663972 0.6887741114284589
Ni 1.9797532362890156 6.699111704446274 8.998232446930508 0.4940379866617169 -0.06059961595992789 0.47436570504377007
Ni 0.14908400564456864 5.169752877983198 1.360265723219871 0.2577803456124206 -1.285562893496857 -0.9120759636480358
Ni 6.687427159446933 1.9729783944701484 6.966578070893637 0.15645394135709184 0.9846612912149302 -3.1690512537697164
Ni 3.463187595199908 4.59489703539041 0.21482739979696558 0.0438355091277116 0.41465003435069236 -0.7728201313367851
Ni 6.397928385691737 5.843506782593102 4.911519862079524 -1.9187739229480307 1.2526566296871395 -1.2732750772684394
Ni 5.333537650376155 3.2865937089226964 9.50209782152495 0.5877446695882587 0.14431499200171274 -0.2140847044966829
P 0.37162430228147497 5.799538882043937 12.39304351107676 0.33678726043494256 0.22177281716956002 -0.27975067923592467
P 4.256612086270201 6.435240301296049 12.401032521577875 0.6546889968192918 0.28432055799479417 1.1148411293668412
P 2.69709104231665 8.574298320111295 1.2948779854058732 0.48223868003394366 0.4078610364533169 0.6466897806638993
P 6.247665868427124 7.9338974829173505 5.699835336134456 1.3074198414709481 0.04598675114275951 -0.4332799907470538
P 4.838891912070708 1.2725639787349872 12.449017784468753 -0.2532616318064606 -0.9153533488477268 0.40555167159384997
P 4.133476364790446 6.379176428106722 8.17151248831397 -1.8278072646604715 -1.5599348249193716 -0.558696860292683
P 4.592638754784121 1.525335978419485 3.944066050359809 -0.044384182542330015 -0.7271462834487541 -0.589870714792326
P 0.33921660415575894 5.538958900020286 3.613370569787294 0.1481269095486352 0.9640919517040107 0.4615592973077212
Ni 0.10147634189959998 0.15730250134089718 5.548022193805769 0.8465660548706839 0.6701739798287684 -0.00845430141494028
Ni 2.020960000226442 6.647792963381092 4.723603487126894 -0.7423096214527538 -0.043303290773325426 0.7495349355565994
Ni 6.442527141956827 5.63298383020278 9.32147560150227 -0.009240801871977634 -0.08160270057415624 0.34324921401020236
Ni 8.926087238686923 2.427898508345128 10.1235336730443 -0.06946529388067392 -0.7330317956952537 -0.35733937355468137
Ni 2.335089575412175 5.1892636909946175 6.95155090488353 0.6147703062474832 0.5027355144357148 -0.17578220937205857
Ni 0.7653322117549757 9.088528014119863 8.879980828689131 0.5718537093896151 0.40494386280652195 0.6902373262375467
Ni 1.4547532809273767 1.2577800121747877 11.243562225370045 0.9413019503926886 -1.480588781589876 -0.26034424968485487
Ni 4.413859730592322 7.114909621097325 1.5252198643964086 0.2672265786269849 -0.4691232256979082 -1.558414274509787
Ni 5.625614704013837 7.756087599390598 7.766094433899033 -0.2299417261335975 0.4250866563029841 1.8216173337996757
Ni 5.651973501535824 3.263306904452178 4.739608022354865 0.3363177769976918 -0.563035853987669 0.7947382715661152
Ni 0.4804953703121135 7.367306764486852 6.9962045181673975 1.2507308734193363 0.12642011399916292 -0.918698868281192
Ni 5.305158285995909 4.76787035842839 7.1838530080116705 -0.6793049955957592 -0.8218793507572812 -0.23032096384988723
Ni 1.0754352817625323 7.705408856877806 11.339306923091174 -0.00033090097685749465 -0.13748382801249226 -0.34625071984068756
Ni 4.828862220471117 0.32354761102596935 9.94305773840502 0.6009799373316101 0.17183942267422664 0.9744429559210315
Ni 8.461110004702965 7.395046130314708 4.643970295820352 -0.6582155219153116 -1.0919819653804808 -0.4833995331112642
Ni 7.332435986218082 6.066335992862229 7.053839130661018 1.1055903001925347 1.019818041621721 0.26981876483419337
Ni 2.2558668974628078 5.502515553879931 2.5407521959389223 2.069020192832514 -1.7711512067293238 0.010724071285723466
Ni 2.7401172307101556 5.507178400475913 11.277390720282067 -1.6072986589153158 -0.7948634842900698 -0.30816239760939834
Ni 0.7541870941069343 3.1565002888948195 3.224117050238425 0.7386254877329472 0.78652205430391 0.4398355324773845
Ni 1.4610435524137197 0.9645875324886564 2.3038731888775503 -0.268664339514776 0.28580099919506263 -0.10349924353693142
Ni 0.9877737657580847 3.296879399943243 7.864541754078538 0.553298314984931 0.9146187846745475 1.0118455649392057
Ni 3.7969194117616882 2.687271635955701 6.519557367722438 1.3098528763924733 -0.05856484491808624 0.6558421365871286
Ni 4.097545017492002 7.107915351203353 6.071251181744581 -0.7095933621666554 -1.8573019316854786 -0.7116785268304582
Ni 1.1603905181740184 0.18984002774438363 -0.05938820852716836 -0.21102432040380428 -0.20784592267582266 0.19041898544862693
P 0.18677352039479125 5.5024332683517665 8.040708669892942 1.8804961104137548 0.23864208212107288 0.06454625931250174
P 8.742224797421859 1.495118903910234 7.807455711772679 0.3688707712330486 0.29775405779188074 -0.4753980029630264
P 1.994811487943096 3.2368018215467864 10.424215050077034 -0.4847151665988943 1.2005856200235128 -0.7156945899683868
P 4.399542048691721 6.125426144920714 3.4688634680759574 -0.45819886547592054 0.5609008099225372 1.2111718801797915
P 7.2805321036192865 3.789065715240222 10.593570552726721 -0.1318911644160632 1.5733292439484066 -1.2200979790248276
P 6.787148076745693 8.314943478173646 9.688542199807086 -0.7069808642444727 -0.6444048412844644 0.2144595713375984
P 2.3723740625071 8.616062797072946 6.089034912948196 -0.9757107668898616 -0.941284724001508 -1.3534217621223597
P 7.080834269600811 4.268022346175662 1.5172838823467778 -0.3483667377424258 0.43091251895614174 0.48969025121598253
Ni 5.503073266904156 3.167572263851159 0.12335057813662971 0.534247211890751 0.393165125004039 0.37952825094689474
Ni 1.7324303671362917 1.3249707173392313 7.092015958594703 -0.01959823384690173 -0.4403667223905061 -1.4557048738640026
Ni 6.9549374115093165 1.4217567841334622 9.092785833060546 0.2975753661221714 -0.9865870474827332 1.196186462514553
Ni 2.88589975810804 1.761294301849062 9.174935132961627 0.49293292652299625 1.0887251490060799 0.3118092503333662
Ni 6.394316965288966 2.2711628628649185 2.7950263636542427 0.3473478095596082 0.2271883317581765 -1.9853999476076964
Ni 4.510289226764507 6.935646026573003 10.208305138442885 0.5025951322031086 0.769540946364881 0.46964644519122983
Ni 8.699207751864817 7.546204645552666 13.614838233217974 -0.24316696657461992 -0.3697261772548084 -0.5854761852690562
Ni 7.908425540532246 3.9866972682181254 8.200348994517354 -1.8208789129717544 -1.4733958633858624 0.4423917232403349
Ni 3.4058620105787267 8.693274051000518 12.454129544335053 0.40693518220493785 0.0009207120420564787 -0.3630829609066779
Ni 0.2363724939213378 4.681086554724362 10.23873432675807 0.2350800758014274 1.9136291455222978 0.42078468649352047
Ni 8.562595489439028 2.4121636867928067 5.378318349086855 0.4436682759599133 0.010012132820363402 1.096847521002898
Ni 3.8614404086790213 3.0307771446961165 11.496003254374592 -0.2820728996111981 -0.3473362395953825 -0.0018555651515000302
Ni 1.3265249995378918 3.302374244657331 12.51228529850705 -0.6542200276026733 0.7067546071662796 1.1185748853776607
Ni 3.283686286927555 8.9426174870115 8.090955870524693 1.184458118334031 -1.3286250147936538 -1.8757845638706985
Ni 6.014624109829151 7.962578560900868 3.328934184581499 -0.6490156005835984 -0.3326940642021754 0.7301148791587748
Ni 3.3210073453683306 8.217508269990564 3.4596840602673984 0.20789580207715164 -0.06410222979654766 0.04027298858743387
Ni 3.4269453914617323 4.5118526517996305 9.073784276040099 -0.5775893263218117 -0.310023362077537 0.20738595232026866
Ni 7.556325765516884 6.605818201180798 11.331009799001267 0.534959150356111 -0.3435335780198406 0.2493419850370803
Ni 7.9894402144283045 -0.05732192748659628 2.2030578740542044 0.653111882140159 0.037266083440310016 -0.34573984164254
Ni 4.772012063345996 0.4168456857096767 1.8769914115827586 0.10126392644850947 0.5778410373213017 -0.24311065941538776
Ni 6.302148030908404 5.750204136491163 0.012978256358814503 -0.1669689819558028 2.618063074975201 2.851786122528101
Ni 8.305508070944132 0.18717854805008924 10.89006359637589 0.07814508104285897 -0.8262841646931963 0.6055346465818281
Ni 0.18994059894547344 4.684359690178011 5.864560906399426 0.32807173493881564 0.8947495565544461 -0.5380084787053961
Ni 7.717833971630627 6.5823302543081015 2.4237174892307314 -0.3295184946876712 -1.1608312229437103 0.19099568388770333
P 8.664528973161763 1.38711457677626 3.506412183144654 0.3003812110020827 0.3379974786929598 0.7384395969743862
P 2.0388799596933502 3.408714575555092 1.3775145984904162 -2.1004149050937118 0.985044899806594 -0.1744992288945769
P 4.983897298369262 1.662304811467319 8.109556057024427 -1.9983932745435713 -0.7093316238648364 0.4670383181444215
P 8.652597571577928 1.4782503706365369 12.67536515820873 0.9893993201205477 0.5608411603291954 -0.9125469897471832
P 6.65997122154942 7.913902099573408 1.01114468432406 -1.2566354118292296 0.022765318720973694 -0.03628957845965363
P 1.9581487137276357 3.2691034627695355 5.729153669819423 -1.0143842722006593 0.00973933877495097 -0.6806034026922085
P 7.181204328288423 4.113234124862009 5.992420731479464 -0.464372084166168 -0.4782174746896925 1.3401312156610403
P 2.822128473780649 8.602074257285002 10.110888215932729 -2.0045940040376444 0.0013768257428685966 1.387654200942668
