# total energy = -381174.7220264977 ev
CRYSTAL
PRIMVEC
9.16455448115091 0.00000000000000 0.00000000000000
0.00000000000000 9.16455448115091 0.00000000000000
0.00000000000000 0.00000000000000 13.41325185052250
PRIMCOORD
 96 1
Ni 7.970981185376224 8.500307519827441 6.542260142990047 0.1950582839928512 0.609901408190956 0.02178392864431087
Ni 4.654823825082667 2.6377970417908543 3.792113912053604 -0.6716883595907658 0.09366580238627739 0.045640680657250424
Ni 5.245085281902494 1.7199485870666888 13.06814231076804 -0.7926127405826802 -0.9604271012579136 -0.700655179136761
Ni 6.747164916635154 6.964456502040438 10.75093604603385 0.7629450383149183 1.3980000629533667 0.277314044769974
Ni 2.957456700117986 0.5934149799973032 13.225359325465176 -0.15281351639102714 -0.4807620954884172 -0.574192641935437
Ni 9.152209769706566 3.4949394880070233 2.0488470327091757 -1.639144599781319 0.4427141395767601 -0.3340580344292376
Ni 7.01378929850761 3.3907385042002716 0.6688969996039474 -0.21090270722427548 0.5997226678857414 0.7512550035714998
Ni 3.3344956336970144 0.6990520494823763 9.07678731970368 0.7469198665312556 1.2376334168054297 0.5601099385901257
Ni 0.9498969015466993 3.0306265026433246 4.19457898542801 -0.6944598489593266 0.16907163012110238 1.2135488650524002
Ni 5.049229589296154 3.4054567786060446 11.08383940195985 0.09791403613967008 -0.6967931250781936 -0.18175205380224826
Ni 6.365076313568217 5.037443972306225 9.830800118525325 -0.984337332216608 -1.6663306732778078 -1.7499120948448896
Ni 3.497221462058728 6.2280937185849705 3.0803267977429196 1.5138560282834381 0.3157147560353595 0.4714791275245944
Ni 2.24011036709339 4.0563600920528975 0.4043300601997961 1.756246007482717 -1.9808704351684596 -2.2567804005020555
Ni 3.2144674643991236 5.185341551609071 7.446701771046587 0.04777958137712416 -0.11907601492926591 -0.25234837596357185
Ni 1.1833730900656787 5.742326511313479 0.9940883829817172 -2.3513008375791444 3.252575339736302 -0.29152247505987217
Ni 2.8042161855856476 2.8143613473335867 11.76554111700573 0.7530640317557805 -0.8588608130776371 0.1412764622857051
Ni 5.425920269807051 7.733325960039664 12.456041720754591 -0.571461359047203 0.28942111244615315 0.5256088194894626
Ni 7.807632167313643 7.447987558032346 13.124759095091818 -2.3268576169351154 1.0368138048487694 0.49214874005880405
Ni 7.322955542018669 8.397994434232139 1.6339887323864948 -3.237931878791514 0.8021114241017346 0.3549366776504597
Ni 0.7581414305898881 0.7913281150719468 3.6628506212621277 0.1909532606855421 0.0003823230400832125 -0.9794206116412809
Ni 4.7313386899729535 8.4177165553537 1.124014271058086 -0.5230418300932347 0.008072235485173196 1.2991241771210593
Ni 5.063297180337786 -0.13480692976286626 6.005193425871883 0.9488993031239722 2.129210232058849 0.445365204046362
Ni 0.6028865469950409 8.470238616760604 12.908712056177382 1.3418870220098824 0.9852678144506775 -1.503125015019179
Ni 3.055783204538622 3.8013197069730307 5.529210296904005 -0.015889417536746827 -0.5822437943746877 0.0951596133229845
P 0.034404653765076974 7.939528434591284 10.221085499069549 -0.6318223766337635 0.4392943152619338 1.4450476512604726
Ni 1.2414855296715372 8.157012475639482 5.146811931897519 -0.6483705108004317 -0.4725826450014184 1.360801085305566
P 8.137070405211734 4.027033517894445 8.535992461845623 -0.6999964625068397 -0.3804132246550093 -1.5670511242491787
Ni 6.036087138836928 6.03822248001784 0.6743334132885705 0.4602264374289106 0.04336216903571887 0.7075012555243171
P 8.192919199874737 5.325540905195322 0.4017795647034532 -0.3382029098355466 -0.7416151664888906 0.0019046732218805905
P 4.948043743895068 0.440366004652437 3.5549407422797743 -0.39954454616782153 -0.7079527412394389 -0.14034289472784217
P 8.062324299325379 1.0202165276460136 2.5038112561044246 -0.04516194124861899 1.273166319604717 1.3964170347369629
Ni 7.261717989354051 2.3498009190004265 11.911932960016628 -0.42513473593210005 -0.35951195572596795 0.1250340322849137
Ni 3.699437355435682 5.871885817212867 0.7380444791923662 0.01739299866546682 1.3483294352011166 0.6371232200213867
Ni 5.2996693680549125 4.636375577026115 2.5293501199192243 0.07823044166781365 0.007012169651775021 -0.3412152142993091
Ni 5.964347006801813 1.1985129339749798 7.932757661782451 -0.5624411578264636 -1.0597079358381234 -0.4873937418723219
Ni 8.517161135414128 1.4746409587856586 0.4283082003961008 0.08302889149772152 -0.8485568600484678 -0.3463787607781196
Ni 1.333076086590154 2.3084504494370086 9.896404581373226 -0.48600868859933716 -0.06730608144582602 0.6824088313320634
Ni 4.05943021778511 7.926679729288112 10.542359951886281 -0.5930239157093271 -0.4123077593707609 1.1617262239541541
Ni 8.680006102983358 6.3025923815018645 7.308425140978598 -0.16778119344445297 0.20171898384247838 -1.1650462894663225
Ni 8.889920222076906 5.1042627386153745 4.091269712766765 1.8367783578108305 0.3817165168474652 0.9042032457681781
Ni 8.481171930189051 0.8811618269073838 10.478338207587495 0.7721773555464637 -0.14971662263325827 1.0654525516313844
Ni 5.773696781108598 7.391258966144591 3.449700498001283 -0.9374856619703918 0.9880551473878274 -1.2790960548255907
Ni 2.82435071165631 0.11812102552214929 6.894612516315755 -0.7627630042110992 -0.5118205074561185 -1.1085486114899104
Ni 8.346086397971678 8.14586837745927 4.021266263795097 -0.688674352625801 -0.5466196174131747 -0.09114252174379142
Ni 1.7527851855697312 6.902284164824518 9.875385675800597 1.0822462261499555 -1.7665815850807705 -0.09847067997408847
Ni 8.118933752005615 6.30438863416907 2.2808431456885954 0.1283589828930886 0.28395289024273035 -0.3598675392931738
Ni 6.017336460484366 0.1141280291593875 10.342703718560093 0.2828285468303 1.0876851377773398 0.3435993982607695
Ni 5.671621973928335 2.6750784491897868 5.958072952842789 -0.2243068964453234 -0.8720042924381305 -0.7586795781703449
Ni 5.814689833049461 1.5722159697434848 1.8744217341691247 0.6044555545850364 -0.18339730271515514 0.9540291681513698
Ni 1.6402627863455188 2.085174409992516 1.3382980497012433 -1.740391299838648 -0.6895963502194381 -0.6455258422627851
Ni 4.047314676835899 7.155445816247359 6.094243568304024 -1.0493638735996378 -2.440982715617009 0.26416876563726766
Ni 5.532357404893384 5.928357801576737 7.494520583122829 0.1318551689718052 1.958019755822531 0.08445302553875779
Ni 7.661475853351456 8.44624581327722 8.864911985963285 0.006303573620524628 -0.27530369920816455 -0.8951820161061744
Ni 1.1474846949392725 4.716776212992397 8.608437348115983 0.5121573219702469 -0.5496458058340081 0.6840923896820734
Ni 2.144221634149675 6.017171498504726 5.06635997442646 0.3872749847718492 -1.2815162342313091 0.764207964187742
Ni 3.6760402479898913 5.041219768729126 9.949588323609577 0.09254017342226643 3.1250257401183856 0.9391779620711502
P 4.754378379796187 5.719286821490245 11.718004573205764 0.1324542360083848 -0.08854390777867976 0.5091367899763684
Ni 2.978021960246601 0.7078188622448686 2.401079350371923 1.325276410036395 -0.8978731897850925 0.725678440653976
P 3.535822565294791 2.9128344846250154 1.8871641306409723 1.220868281531949 0.5603027713272221 -0.3645911700210882
Ni 0.340479693068748 8.582110332620674 1.7806628436736673 2.072557259451495 -0.20211004863330995 0.2064241026276316
P 8.219349774835042 2.657354200932772 5.751401253104635 0.38588864594728384 -0.21202705063670582 -0.3820839274892129
P 6.8852472581493425 5.657416914570335 3.9865655949221077 -0.6374960299797731 -0.8804542229776966 0.17631185662328344
P 6.848973951737107 0.28087251463625096 12.729524855158354 0.44715392051566866 -0.07876291713251597 -0.2158302264328799
Ni 2.5978304199455384 6.74543281584892 12.312895962920857 0.1332592484081834 0.8337131101674158 -1.1018781414482701
Ni 3.3324244443970743 3.2327140922583357 8.965618525167969 0.8612732791738715 -2.231025660135454 -0.8622412995140956
Ni -0.18576826755127457 6.195128816319985 11.911960453679901 1.8490438054417444 -1.3017916966508936 -1.940480204276871
Ni 0.39801476574586186 0.885725775010793 6.007862144120302 -0.20152795087759487 1.613857028859124 0.7076588641481039
Ni 3.3132888547586834 8.455996899184905 4.3859862033166905 0.47894432555338806 -0.43994634702363583 -1.2177220225934833
Ni 6.885742144088266 4.813599730487413 12.037306813910341 -0.2655016255160782 0.19407278015113028 0.9114437293806754
Ni 1.1031282515246132 9.04865030470953 8.533564771378568 -0.8302282369426088 0.03805978298619897 -0.14715246145050784
Ni 7.185450567433225 3.4120277641284233 3.8365519200026412 -0.3545780087594603 -0.9429081185375439 0.1386513659580322
Ni 1.6424072920808557 2.45623805408676 7.639772355563316 0.08844929118234444 -0.5582507738941999 -1.822158036794494
Ni 6.77737128801836 0.7566063677237816 4.653539871007791 1.1651406489523417 0.6031160098380065 -0.6451260357212052
Ni 8.6081376671863 1.5641419972954855 8.197415330275405 -0.7148245286586077 1.0351148198797915 -0.9965953236483547
Ni 4.7196080603095725 3.915134308371099 13.490780401341693 -0.31270065179938406 0.238700189052518 0.383627617827249
Ni 8.516317996407071 5.959205691769659 9.518030372214543 0.14365139027578486 1.1063554604933334 0.921983709680051
Ni 1.3593875223429404 6.896015609598149 3.158243839460158 -1.25120678461449 0.4816352421219899 -0.8807882092783477
Ni 2.6087270751562883 1.5757901459690462 4.952011995960884 0.762196847294984 -0.5218424104684948 -0.13496543246601272
Ni 0.6790467436290994 4.3795572683878925 6.290922237897685 -0.22790181288543332 -0.19823179662482635 -0.306956036006123
Ni 3.5434291454671394 7.5603449952769175 8.436800823487312 2.1645736991598077 -0.31238492033117815 0.10119964886947733
Ni 0.0014699945296924287 3.6030629011074673 12.822196829499063 0.6239080068826932 -0.29734499527892017 0.8658123046948057
Ni 8.6545652999009 3.8554638945130733 10.591492961066997 0.39420359357088236 -0.3170381028324733 -0.19838143482881318
Ni 1.8138944344724062 7.1221234963598175 7.324266073301375 -2.5631232284042116 -1.2443329403127925 -1.8110483000345778
Ni 5.65627134526727 3.850487541460561 7.870600904309053 -0.7957199187530941 -2.0794336748563538 1.7897130288919114
Ni 6.795892852510308 2.4805424524205772 9.608260909256561 0.016790332084461408 0.8352465160928068 0.1548104922163979
Ni 5.0510625001810565 5.079197682264322 5.056581394855501 -0.4038747981120593 0.11168615022309798 -0.0077986701088123755
Ni 2.064123428479402 4.402028755836806 2.657312960437862 0.9629238995378382 0.13222566493734647 1.9515711719837099
Ni 6.485324432172296 7.096151149120738 5.623090159517867 0.6398179932447304 -0.6025508813631558 0.5518492412432302
P 5.679008604794495 7.988925382939427 8.144579841107182 -0.08857424679598296 0.8498935765820201 -0.18961037350440246
Ni 7.185963782480999 4.545325728818544 6.256491006924776 1.3574871904409846 0.32603824944855464 -0.12371737035601921
P 1.0015300011744246 1.6273590937157998 12.12323184328372 -0.39661631677743303 -0.2864771993264808 0.4500782932513152
Ni 1.6407393431755937 4.791421508780083 11.531882553853704 0.38207158619403875 -0.31496836478763823 -1.3547813614740474
P 2.2483767951843037 7.774887214354846 0.8056055744099009 0.9994145382647046 0.38236623461632213 0.8189032988480929
P 4.264697907785428 1.068412919364545 11.169657206046463 -1.0148964359503876 0.27892329823862283 -0.1708508335087122
P 3.772176423903068 1.9961774219760373 6.894250516415987 0.9409733634086761 1.0455545271558768 0.6167356575039701
Ni 1.838684554190723 9.133706534323467 10.838269667422278 0.2519871359694112 0.49632395448241623 0.7847752468161323
