# total energy = -340898.28493890003 ev
CRYSTAL
PRIMVEC
9.02103246902391 0.00000000000000 0.00000000000000

0.00000000000000 9.02103246902391 0.00000000000000

0.00000000000000 0.00000000000000 13.20319287835672

PRIMCOORD
 96 1
Ni 6.363815257962611 1.977094603116026 11.388308481827687 0.2426676583406982 0.38346538121777185 0.8970252399625003
Ni 4.586211769090683 0.24094546521117363 6.043827505376616 -0.2939552528710808 -0.4725453640055797 -0.06998877048431172
Ni 2.7728759702105763 1.6630544173031676 4.862828201288563 0.3964430244243624 -0.5741396772103143 -0.167551336821834
Ni 3.218397705725331 4.432583584430423 4.881207653045862 0.27610022696753095 -0.6519811109698256 0.32556002426055547
Ni 5.307244860313542 4.583857279590018 2.6743464482789094 -1.036125520532493 -0.298880200976524 0.01094570037822631
Ni 7.344329330017397 6.225143945302745 2.5224169240515044 -0.037790588485212336 -1.0904357039392834 0.5246318002881739
Ni 5.067916866242097 4.395434972308816 11.613409405433622 0.475627088254697 0.2407650420013466 -0.5511442447564057
Ni 5.570117749391637 8.014122956244936 12.223331340599993 0.028484737703254173 -0.41267748400535387 1.134467131127885
Ni 1.7826913512411813 6.591650456540387 0.32210769523985017 0.7893710937169309 -0.14047453520970002 -0.139668751478953
Ni 2.619112470061772 1.575360959694102 0.4185677923000516 0.6288188139207492 -0.10918729506064422 0.10895769554834138
Ni 0.6843003487027106 -0.0781122189168953 4.5158486171510726 0.02306330957736673 0.3546124615418216 0.3057458177481057
Ni 8.615122188096718 2.2967278291220357 1.3322287961880575 0.12351836697133567 0.46473563815317376 0.6463910184765578
Ni 6.858276095167437 0.8169708704972799 4.912723532431011 -0.6088760522502352 -0.5169614282271097 -1.0654180988490234
Ni 0.7975449789619068 7.242112009971278 2.542790024006685 0.47211727532922565 0.12416731340924421 -0.39046340980215977
Ni 7.621112651317814 3.6520567834110635 3.8812234863961126 -0.07602983447206905 0.6687917547692611 -1.0503542625373652
Ni 7.661256246252526 4.047800461206775 12.61926897059595 -0.3124152593484813 -1.1770772524889275 -0.19627595845003615
Ni 7.853115566942745 8.680714115910268 6.940047244894561 0.0722251160139982 0.9414557023617334 0.27901354395958394
Ni 6.8757047300919005 0.6107843458800257 0.38144985168918216 -0.20146418751919495 0.0520974920261877 -0.1429883027704892
Ni 1.9013810767593868 6.4700920426650494 9.303141006424617 0.2221471697898432 -0.24485335313810735 -0.7417807455324773
Ni 0.20748555330727633 4.86884974052877 1.2979236135323888 -0.8327818566023979 -0.26820231227669294 0.5584088967386189
Ni 6.193092216582962 1.9621738152459105 6.927385323579872 0.6339651340083791 0.20439395957148027 0.47522085395521385
Ni 3.530119486167802 4.401280601413917 0.46678340717804095 -0.647529245846059 -0.2857814588110369 0.45981531803342096
Ni 6.087212357313586 5.630179784240024 4.817118629258407 -0.16860137535290318 0.46170456463633386 -0.5295456926500236
Ni 5.487349775565574 2.7221146199414465 9.163926627604061 -0.6024531794430269 0.8619780185503799 0.31162413090575364
P 0.19437889508690687 5.558724185256235 12.335043297425615 0.8213895556050563 0.18002864335323834 -0.3062685230207951
P 3.988983328852993 6.204990958542262 12.548526033185158 -0.1341529638670464 0.1580374837941278 -0.08926664487731722
P 2.323980368514792 8.540409996355304 1.4711130052165662 0.07710686958633171 0.17922414517407195 -0.32973189625005794
P 6.368037101205183 7.808317119202119 5.694840741492391 -1.1989732812310707 -1.1593070729897 0.2581953216626521
P 4.704820305315763 1.0692629904744944 12.697431707295234 0.0019010736774547903 0.16755493636625984 -0.5838407065481621
P 3.9736295314195367 6.020258253582027 8.32809909272655 -0.296374918056167 1.2065639490941347 -0.9552023625238646
P 4.729745418305563 0.9333881979112039 3.9409679808980487 0.23606480831219992 1.5174679140044125 -1.0411813377888455
P 0.06849940661073127 5.526086089419428 3.6452431975112463 0.800828186513937 -0.8639192014371507 0.16342034537259598
Ni 1.5233547069303672 1.3216353976415782 2.69757109662934 0.12276940462045308 -0.7727566250887014 -0.5651163906657816
Ni 1.7854698292726174 6.4962259740191755 4.764609904980547 0.2458959354700088 -0.1339832710584015 0.16680880222885466
Ni 5.931301851413218 5.593482223746897 9.305108493628047 0.2299856919976555 0.445169285985472 0.11903976237469177
Ni 8.466473613414877 2.229620367836793 10.250127508831234 0.8982426573093693 0.5336720561135712 -0.398301674899656
Ni 2.2701699092371377 5.25156704729398 7.127492574348475 0.07117276349008388 -0.46638808615493227 -0.186440203306537
Ni 0.5516000575006618 9.077323812832661 9.184972696588936 0.356043023340761 0.410882339778144 -0.40650477953573866
Ni 1.4585295668852334 1.008632630574224 11.332485430183757 -0.07815690811740088 0.9350536554901315 -0.14519893726856284
Ni 3.989335149123207 6.7858552456987 1.648828248940911 0.2933068206538046 0.573385058432477 -0.807746510900325
Ni 5.59411369602677 7.749779638857995 7.9749662622733375 -0.7088760243846566 0.3576314508738035 0.15061316630559868
Ni 5.256844351347196 3.1343307032092436 4.752185236822439 -0.22352168153986665 -1.0415965709493933 0.1415981072911819
Ni 0.722274385304435 7.386782309289926 6.886204309899656 0.5929141296043401 -0.45548558030981556 0.22697544441642198
Ni 5.295102550474862 4.640915310592728 7.17816642060168 -1.4929066797252804 -1.0199098300045788 -0.4364686728876806
Ni 8.17643839526972 7.276139344823803 9.002398724722605 -0.4811274492476359 -0.7152469609080069 0.410500530958693
Ni 4.688365941908815 0.5262852359038548 10.403257732493653 -0.7459680441409475 -0.810845718650939 -0.16275005877844875
Ni 8.254551516289872 7.181905638601778 4.812154355035357 -0.5677628271496932 -0.34822609839950347 -0.015380082000496093
Ni 7.139470701394388 6.074745290302402 6.988291727076773 1.2454513701879517 0.8161195654553686 -0.3523149237568965
Ni 2.2686633967980145 5.229375307172768 2.5804059256153966 0.312384663220862 -0.09617417063042791 0.30790425885200523
Ni 2.4712938303763337 5.07166059475848 11.326649724214484 -0.6990978619519701 0.537808446879448 0.736243617764332
Ni 1.0376803554483305 3.403563420248907 3.840505251686716 -0.04737180441574422 0.38297764294807585 0.31373834903527903
Ni 3.734896925497685 2.6774334456242253 2.777938573688635 -0.0025672465065439657 0.14594481429565187 -0.5607948804722922
Ni 0.8625568543812313 3.2671834498617187 8.192291055804274 0.3389647277022356 -0.11848286142995723 -0.6321771888700208
Ni 3.627402301398351 2.730477117133464 7.141791813074544 0.21208490045783476 0.10796807794156243 -0.650414537813654
Ni 4.080411493945872 6.655212652025777 5.971579859733217 0.048900068134812555 0.5601893856778094 0.08067221834008688
Ni 0.8476865842935054 7.411193223423259 11.26633780676392 0.0958988054818542 -0.605602523705286 0.35935563265376175
P 0.18708268394461572 5.588457508605631 8.065038566171006 0.18089022002258523 -0.11886364180814368 -0.41033880856984817
P 8.397598029745993 1.557012179447539 7.922470167441074 0.01867057982630978 0.3497235088806364 0.08060768365073859
P 1.7529219437615065 3.2214197516361462 10.30097275470326 -0.5631263568189463 -0.6371535590386898 0.24096070295192049
P 4.04858529104033 6.0320036379876445 3.699428931743795 -0.16201266639179196 0.8374147273887191 0.8903550270311763
P 6.9508048262338065 4.000205493369574 10.352174331361788 -0.3841958316258932 -0.5026570957892956 1.1421796692807942
P 6.3968502792324795 7.760749214462627 10.197591721455664 -1.2517847686051475 -0.19877327095059313 -0.9527510727698946
P 2.426044331007228 8.393764090903915 5.7578995633603975 -0.0006101227801731428 0.02482811478727337 -0.013543543012389579
P 6.995964115277217 3.949624563751835 1.6491187261896523 0.9354714597538405 -0.0897862648262131 -1.105223403771419
Ni 5.34368081086215 2.8816786440325024 0.4964806463971587 0.15424793484470856 -0.0012485276951204303 0.019184029127618574
Ni 1.3508364800693682 0.9676500796105384 6.817138382443554 -0.5207723173327676 0.808148117214118 0.6692242143209893
Ni 6.813621983947924 0.662033734011171 9.127842497325668 0.004879182469172242 -0.37717851976779554 0.0007957564284179844
Ni 2.6494050974304835 1.6114360689399259 9.085539267193793 -0.24426534184512128 -0.8080660990232729 0.46289498540000923
Ni 6.4092451779831086 1.9143533215944695 2.5432519008742482 -0.19512384712346395 -0.3617824969276995 0.6224206237038894
Ni 4.201663192713844 6.917120290618927 10.385684761048074 -0.22638331935837788 0.3265013051279022 0.09435974312950847
Ni 8.165577072055923 7.13402199772235 0.2756087828598554 -0.2946628204610667 -0.07127509339590306 0.32163009307852997
Ni 7.496414918108255 4.0380306829339 8.177806885910528 0.7492587990770773 -1.0699098160717897 0.06264801384852436
Ni 3.11644199562373 8.415549884559493 12.328402013247874 0.030791788569876 -0.2974257279181845 0.4295750310916408
Ni 0.1299497783715784 4.758369154648899 10.121633725116387 -0.4608535294899482 0.3011378866624491 0.9919246576455626
Ni 8.529810283086027 2.4445374477749047 5.7755257588981355 1.0267533352889735 -0.8298561983151709 0.7673488238095687
Ni 3.5183470386644764 2.569036718267932 11.346705283823216 0.5875963169358526 -0.04721265313006062 0.6718364551328558
Ni 1.1389504670746418 3.335725255325527 12.68120467390904 -0.18411464049715387 0.16114620462643858 -0.5966170323772241
Ni 2.9506083538968033 8.358176117416848 7.896447194787553 0.7506055429129589 -0.4629330377267963 0.3936940009243155
Ni 5.545219699499547 7.899790389457847 3.4664589614274037 0.4416152500856265 -0.19377324663284048 0.7698173399547193
Ni 3.0514544769923435 8.274731566148063 3.5968796376991152 0.3651856090719775 0.22719733061924097 -0.07434087680542037
Ni 3.4557951988268814 4.181068175357451 9.247331486329541 0.33028494054005053 -0.5703236458983338 -0.029950780725819387
Ni 7.162925386075343 6.172785872268796 11.438902942994282 0.5434263072868576 -0.8448791540865642 -0.4725821307807862
Ni 0.5655375528206912 8.951011314793144 0.1503490393212112 0.48005375656748295 0.1386462237517096 0.7931765835059501
Ni 4.515198200702805 0.33962112787046844 1.6534488218230594 0.007604551820135291 -0.18420360066653435 -0.18683101098705243
Ni 5.960024819114818 5.615989700008045 0.42238639538676254 -0.27526230444726785 0.5509542402327866 -0.12379707455401906
Ni 7.97584671505213 8.720677290193589 11.230582944174317 0.105733789294405 1.2895833275101598 0.7927757485231056
Ni 0.15631555026274355 4.898330474966217 5.867802803155814 -0.46723475042594376 -0.4168773810193143 -0.07022968285052422
Ni 8.05111821081286 8.668580827104158 2.4606661519060897 -0.8193588983282727 0.954815154387775 0.017373972502073304
P 8.465345984343678 1.5039414448405917 3.556108178897558 0.20612405488870952 0.6587395127395816 0.12905446629821646
P 1.8242332062241817 3.291937163232697 1.6900877456044832 0.42579088145886024 -0.438464877382103 -0.7986712880719341
P 4.561620434305959 0.9427610507510166 8.210775151539382 0.7968825716026275 0.22781259560573672 -0.7604464402627806
P 8.580598696452865 1.6461760653654491 12.475116478546795 -0.7856278246244147 -0.12195770735243514 -1.135228948994574
P 6.251115498070619 7.664115913577089 1.328782761746471 -0.25346886272126024 0.7101911436516544 -0.20286055364608932
P 1.7489707314960226 3.177514386119911 6.062721155990383 -0.2248871944288256 0.2459519855189248 0.056596922558438005
P 6.932492130117522 3.8731352285942107 5.953940132646625 -0.4898514593841951 0.946197845032409 0.25483411849990306
P 2.488533023616836 8.430154936289673 10.123416281152142 -0.22924315740467616 0.7628879598247377 0.45555037210947996
