# total energy = -381171.81358984305 ev
CRYSTAL
PRIMVEC
9.21304093225715 0.00000000000000 0.00000000000000
0.00000000000000 9.21304093225715 0.00000000000000
0.00000000000000 0.00000000000000 13.48421667280531
PRIMCOORD
 96 1
Ni 5.22960757109142 2.9571649887667157 11.037572992410954 -1.3791770167095925 1.6309216976508945 -0.38183658736509724
Ni 9.112959553031201 3.103016637915456 12.85366786663417 0.047913792962143285 0.6534381551313262 -0.5107689262631526
Ni 0.5221509308214676 4.422701817355454 1.4324279238104036 0.06713227487212309 0.8320074403302186 -0.5858690498321006
Ni 8.714550816009655 2.279149676038322 2.065741562502433 1.5831236043310088 -0.4199524204002122 -0.7268297806495999
Ni 3.6975618008562434 1.3992397868810558 1.9048744994327396 0.37578086808932054 -0.1756629101853749 -1.1661258956837464
Ni 3.073286155204131 5.646221276764215 10.541137501113456 0.01980495054106912 -0.7509552129428937 0.5564782553748093
Ni 2.7095092386077066 8.53714450206814 7.394097268965651 2.308869922108443 0.9680177691209779 -1.5984682051078793
Ni 7.697799631621119 5.73452827297991 0.8621130582141409 1.4510478347079656 0.10556178249291498 -0.046952457490138495
Ni 6.75622686028632 1.3163961238688981 5.950355731033925 0.07966897388655311 -1.1401155876629139 0.16905183262676046
Ni 0.30706143733676616 4.5873020045635515 10.557884966707709 0.32783596477892574 0.17730944464986237 0.0743043671405301
Ni 5.365969788200288 6.373397375283631 2.496926613528878 0.6208507081136081 -0.5174712779839927 0.9775519338636584
Ni 0.5593559535463336 7.437429885136845 7.223980312917288 -0.39913188411043515 -0.15147371453368105 0.6906430463163976
Ni 6.4202641139116166 3.8062941085597006 5.240950666943352 -0.06378392722518048 0.5949725547952657 -3.343322682924203
Ni 2.2475305199598385 2.5707424178460165 0.39835990790522463 -0.4957945643415074 0.4210207137637265 -0.31046867714507176
Ni 1.9703101218241819 5.170192670872847 12.567694158419792 -0.626184718732012 -1.089483367328343 0.7436607361640096
Ni 3.0610328109196367 3.1472115947069725 5.096804351649544 -0.5385568950096983 -0.9780196175286964 -0.8196602316187754
Ni 7.434021060035144 1.9887730556182615 3.922221801139992 0.7345479752294639 0.9832860081339582 0.059840883417032434
Ni 4.199792294826635 4.98757177582981 5.472043212324418 0.8700705657505273 1.350741129966403 0.13988369570323653
Ni 2.5924299159254893 3.2988398204469735 9.867817153984596 0.33702894413210344 -0.9411003759048437 1.5417877216966995
Ni 7.165728098449619 0.47895190374209634 0.044951347442462 -1.2503061271770919 1.285754697792689 0.3612993866436939
Ni 5.772062201261886 1.3164606151546059 9.66467697443748 -1.399396686190577 -0.1475782361340168 -1.0361491746815767
Ni 2.5530994446845083 6.141781529184249 6.959959438357868 0.20489763868077615 -0.6944050844619912 -0.6350383124678999
Ni 3.6961522056114866 7.16676917206176 12.282853654225711 -0.8616514884488966 0.8526842519532799 0.5533201693618018
Ni 5.549650182937098 9.04804446744583 7.104631818282235 -0.24102215231747526 -1.2185378336265595 2.7236634240155353
P 3.2123385802310986 2.735600570196945 11.937779210484566 1.1157746969247044 1.0008217030248763 0.4754234568843231
Ni 8.0976640290915 7.770508949736326 12.919955695301036 0.26226383530507086 -0.9063398324952068 0.16991495195800416
P 8.841497305405175 5.471938183659122 12.450516256200851 0.6966859100763678 0.3463931589558228 1.612275543304617
Ni 5.264138048067573 5.971008604629828 10.97537022604164 1.5567122042170158 1.4494403810115297 -0.7826180912638135
P 6.561297342713897 8.238393227546872 2.788994748242648 1.3857767814142972 0.07238092486557211 -0.4242713594905403
P 1.358158837885147 0.8828387148324849 1.7736872473498864 1.1464752113323544 0.46628164248405507 0.4942177067726908
P 1.8269459936956027 5.082143639799984 8.916289692048748 -1.0476679739544539 0.706833282923015 -1.4657920828966755
Ni 6.779932014304367 4.0082716023559115 7.290080195551521 -1.0107685298249431 0.2003395869964485 2.804772472782725
Ni 7.500216758293858 6.288388647679851 4.241311784565356 -0.785964382028227 0.4157193561554712 -0.8675585979619511
Ni 4.418813914131352 8.405582279224099 3.1576121964834876 -0.7418429662289805 1.9239266707935638 -0.34104475015971586
Ni 2.1724442373142554 1.4474700555497217 6.541139209409782 -0.1877653498758637 1.7805424181362366 0.048693351440645176
Ni 4.398674206908868 4.637586781334054 12.667706322991464 -2.7194596703468323 0.5378737528997447 0.5325765090565472
Ni 4.1400365120978915 8.510942613989117 9.901231010413921 0.9781260611995736 0.8903568268033892 0.41463872149678266
Ni 5.694958262677729 6.410949729647238 0.18489190960403531 -1.1567501108958014 1.3941796607660117 -1.5866241612850995
Ni 1.4779836467303564 0.40139191963757576 9.173649538098626 -1.1099753166341078 -0.17289151808782482 0.5670352049550492
Ni 2.0328666689608093 7.902891133212938 3.399748413889985 -0.9624148211119037 -0.3404587957492588 -0.7328397342891056
Ni 3.3643261145629006 1.3622217888847423 8.511385761252338 2.227538215807486 0.6547836134156272 -0.03193284415285468
Ni 3.2858310068156165 7.386140886917464 1.5395203102487176 -0.8435856320861214 -1.070058425834512 -1.496698799777861
Ni 0.04453768190985014 6.613314171157697 2.6364747001517155 -0.23220095448141945 -0.38354817073956526 1.581461643247554
Ni 0.9778905782291409 7.085031073947452 11.132340172846416 1.0730375630674938 -0.2711508533820556 1.1841565279332122
Ni 1.7676140108443688 8.808606749694166 5.396788331031914 -1.821100542064257 -1.1790428608557308 -0.4937209696419304
Ni 0.5767897906813322 1.801140266371642 4.418575296374232 0.011373274833948155 0.09939576289151913 0.44213435581389016
Ni 5.194966537625483 1.9220245749106235 4.046424646980683 -0.5985854689575045 -0.6078370694627597 1.17735004653434
Ni 8.420986483467463 2.737185213217195 6.251970418640623 1.0362833862665959 1.0081596314471863 -0.41014854693591296
Ni 2.724360660402146 1.0792524532802708 3.8286817977411447 -1.0717170444838575 0.001286322911591333 -0.10486552775683874
Ni 7.6874625998262305 1.6201040143488554 8.400478254612363 0.354241451355648 0.3087514373436489 0.20201491781634243
Ni 9.544157502314789 0.5269490824781325 13.301775431030357 -1.8991597482615292 0.3066426185307622 0.17785503274068726
Ni 2.419427435493739 -0.09311436091317558 -0.0953899819945816 1.7878240393993146 -0.23808980916202865 0.8426057846713554
Ni 6.778697466835103 8.577958272880402 9.858823383540592 0.05376742352944289 -1.1099244087915143 0.05048875277817111
Ni 7.23309385289189 1.8905067622811091 11.50716076146827 0.1450341295559244 -0.27253924908914995 0.6244610511726859
Ni 7.938683796780802 6.628248510319475 10.870085438211309 -1.633078081872265 -0.6311022106382872 -1.3213413366480469
Ni 8.793994866960928 4.685881541288428 8.202354575789236 1.9234119359406745 -0.9239722008649893 1.045953048145876
P 2.339614862909851 8.795588723021993 11.245553703602486 0.39068503889466266 0.15810407536600513 -0.5887977934431214
Ni 4.372610514442076 3.6611334374721167 3.0254944272782778 -1.189772331458093 1.008778753088424 0.3748244177133222
P 8.690228388256976 2.670482797713634 10.218609210855783 0.22291644385569997 -1.1553164637730684 -1.102319856971379
Ni 4.564370745973998 0.7519591783128663 12.091634228189655 -0.37060086655027785 0.28842095331641293 -2.2529160324506425
P 1.0383649781414857 6.366220416488427 5.053453309396719 0.027858159862848796 0.15884712417961674 -0.4584539189095201
P 9.160738382699913 7.933699541699666 9.410189754513846 -0.7135348633129066 -1.7855658394927572 -2.946115783750623
P 5.4476526080697045 7.019406584219293 8.989832790357749 0.9595493266386507 0.44762417528386783 -0.13323019494246088
Ni 9.52637633354105 4.301872787061366 3.967919404888502 -0.6678180780020821 0.5179538740473659 0.3891112666496395
Ni 4.903401434940235 2.5749067122945815 6.593444406031104 -0.5354749136502649 -0.14293945181042478 0.828507140486444
Ni 2.414000954453463 7.325896813025505 9.103208470632174 -1.8392134496148842 -1.7523147907491112 0.9824735395349917
Ni 1.160990551394579 3.996451270989742 6.203858998198475 0.6527493565944177 0.033578864396709915 -0.269076230241214
Ni 5.614998281440793 4.3329299476501095 1.325031507025181 0.9517061764451481 0.04383448068644709 -1.043607430731835
Ni 4.133744005220968 0.4504089819918778 5.428880116104228 -1.1800481621917935 0.04993133761280433 1.3579067944769065
Ni 1.4634546813644562 1.6216518052058442 11.577481138100042 -0.5272936633910532 0.01155093806239301 -1.0877674130785009
Ni 9.156601727373795 0.5526663646102653 6.804580583701914 0.03636131223785351 0.12240250819933758 -0.1844573685485533
Ni 5.872336937496797 8.372231071472319 4.863311809136063 1.6650546347788613 -0.8154045416662151 0.2117470575024418
Ni 7.503441322579251 6.519368793962971 8.143293456337977 0.8500817813334264 1.3720478618639789 2.237675561351804
Ni 2.959145792542029 3.665924218696129 7.636381816329277 0.3739913802890656 -0.14168886723277532 -1.0826938552103353
Ni 5.007564074399248 2.5878786737626776 -0.023414021928280408 0.24929313407701584 -1.6900958940182054 0.3525609783294315
Ni 6.601595183240496 4.504439915469764 12.260591262399355 2.756930156488465 -0.6999015888001882 1.050849457006229
Ni 4.817056816418221 8.805253202837356 0.42676739795545676 0.8778710356315527 -0.17886419073149196 2.476621547866541
Ni 2.5185136894634628 5.346134111324713 3.5200274256473945 -0.03834877498152751 0.9653962723377308 0.6988188972589706
Ni 0.7416728182424622 2.602269443516346 8.130362032249469 0.10364476797586021 -0.4300956794818012 1.263494857953224
Ni 6.051982020356457 1.5768303616388795 1.9897717492426519 0.9377422580658882 -0.39471498598966215 -0.941242815019979
Ni 4.617032487274876 5.362349063159833 8.036943640989383 0.18269230622833052 -0.9597442162582761 0.33256936569885304
Ni 1.0363657482845419 6.732586197553982 0.6448557362255737 -0.05015065271246202 0.7995251514317971 -1.1812889765774301
Ni 7.537981012596219 4.219443710885901 2.6496078898340807 -0.6144252642032386 0.008341429986159828 0.8308491583560594
Ni 8.835877350507776 0.054957631072077705 10.849562468490905 -0.05178510299209146 1.7194023562918066 2.2897969646373917
Ni 6.184235221261653 6.388525188302532 6.446399668096769 -2.3655498912989903 -0.9295756630946957 -1.4916337265501278
Ni 7.765801085879653 7.977756302878952 6.167734665161255 0.3609792843001138 -0.02736502227651416 0.9797137174016675
Ni 1.9397044002353934 3.226554302209275 2.8092339563059383 0.504975202399511 -1.998407158500642 -0.43878497972568303
Ni 8.182700395817726 9.04595310718073 4.2775982671209265 0.3118038510167275 -0.11166249607401414 -0.1360740921491592
P 3.438712206106513 5.239189133539446 1.554945704485957 0.47823495819118933 -0.5515741332049727 -0.7852920385515508
Ni 8.555460027209174 5.349598214671307 6.042790169534923 -1.2289178913093028 0.8834804113985301 -0.407811157051988
P 4.89114809065574 3.149680689645502 8.836247714748556 0.21833499513260463 0.3116056189629924 -0.745866999786709
Ni 8.72513659990656 9.015983085408207 2.0372760302950637 -0.7987412220779212 -1.0320824608113708 -0.8096645538586443
P 7.322045761964664 2.8394499662682353 0.4991883478931422 -1.6488425437953733 -0.13587046077878534 0.04024290668044682
P 5.839437168744972 8.08568707603147 12.10936564654299 0.9926502229576776 -0.14808140102268047 -0.30890313243016476
P 4.142256854934405 7.377545119836688 5.801449037550796 0.027920380559351914 -0.18458001016934664 0.5434034244687221
Ni 6.834215250788757 4.602641717521208 9.793006341259392 -0.01936657745206987 -0.7230939677562515 -0.663736965954173
