# total energy = -381169.89002623333 ev
CRYSTAL
PRIMVEC
9.23687385503942 0.00000000000000 0.00000000000000

0.00000000000000 9.23687385503942 0.00000000000000

0.00000000000000 0.00000000000000 13.51909856436569

PRIMCOORD
 96 1
Ni 8.340638497893334 4.213529345043938 0.8506052435668009 -0.8409672206266678 -0.857978924693316 -0.4299804940601756
Ni 8.495744084397263 6.1960026423874375 11.63165630713267 0.3024445212890146 -0.7136932432676418 0.4513245069535905
Ni 2.6523129187162873 1.2012369767545752 1.4279006253503286 1.2247861285291166 -1.0518120780298144 -1.6013295858160743
Ni 6.402197378424073 8.224780388584213 7.270246458348227 -0.032552480014724584 -0.9418177136868424 0.5689113389318395
Ni 4.394821469050167 8.080444997045957 6.179255266322033 -0.3475105603897176 -0.8926816182818239 -0.35004026879010686
Ni 0.9674332246352668 1.1700994748426683 12.657053686543312 1.6688112736078164 0.37618735949911986 0.13512766907548984
Ni 1.2822535977184837 0.045117510557315166 10.357008351382229 -0.16504168302610284 -0.2436881291854126 -1.216429529034305
Ni 3.1152280910144565 6.49750344330899 0.5993290207810543 0.49076420100645163 0.17143113149221445 -0.5644319630042473
Ni 2.735684942524318 8.448007920089717 2.810580287155678 1.9543654468993954 -0.7033314404173435 0.27400117834665716
Ni 2.1319998120127224 7.053073697683201 6.632037587953527 0.8839686638888583 -0.0897942352460131 3.1202136634417235
Ni 2.768780661702711 6.771967914329579 4.604105015718467 3.889891906715417 1.6696931619921376 -1.767724440435962
Ni 1.910231706583184 5.794170917180174 12.151317290539001 0.5720087469102406 -0.734159995762426 -0.6588274444676976
Ni 0.15361106030714766 5.670978729995628 7.608899813464402 0.5280346553221358 0.49906089379760504 -2.048057217427602
Ni 6.718412519465966 0.5048237928631388 -0.0964034055040612 0.604570482896346 0.3832920888647012 1.5380495948105062
Ni 1.3463390288264072 8.491661386134115 5.179788563006703 -1.5383686687128215 1.263152901232773 -0.5761996450631367
Ni 5.003485274593064 4.164490781516702 3.8915670210623863 -0.9229615002122877 0.8609050972011754 -0.16359132373282148
Ni 6.399574106236894 3.5272203775100914 6.1730637897478555 -0.2588316696950704 0.17449460090888658 0.8288665807083919
Ni 7.163676025744066 8.323993651128204 11.808067666970922 -0.84582249183644 -1.290953468384809 -0.4400754164023324
Ni 0.4047090114266527 2.743443916599074 3.969032064012314 2.0791323415658516 3.4872049582638716 -1.5818066852917985
Ni 9.363696177145481 1.7273785508881057 9.354121233662276 -1.9718378926525457 -0.12279434432111756 -0.02197856115362021
Ni 5.471018883840492 7.7724968581432385 1.4861409626552695 0.2842922758600201 0.030495854596011993 -1.340962196202768
Ni 1.8137710324609522 4.206924980206497 6.027328088126586 1.0947209615781983 -0.44690040974396583 1.0000801968731616
Ni 3.691100994217612 0.8472134634712648 7.3866735590894965 -0.2912075149226146 0.25526992048574104 -0.18848063077533345
Ni 4.668177515202933 6.618977571948412 8.12738494282345 0.9524230000065145 -0.775634975077761 -0.6056241209718408
P 6.895926762047702 5.368314082962862 7.583605557980698 -2.0237788044962115 -0.49591669174166847 -1.9483328675520704
Ni 4.983801496315321 8.285983915035798 3.676491954459715 0.4684125727841288 1.219254657187926 0.5336301471320423
P 3.651179225228214 4.039303429570076 7.822542240925413 2.0052393509311273 -1.3204206246059904 -0.9518653277308317
Ni 3.870647349057021 2.8074000314724183 5.456578878874938 -0.04179765276207641 -0.1785597721171957 1.2790240639370747
P 2.051204876022378 6.437860948546255 2.42479947772187 -1.8670831794419587 -0.8834487868296462 0.2906022772384479
P 3.665071483571586 8.988873071217485 0.18942703884865436 1.155657392052255 -1.1051920363128516 0.15631638733796305
P 5.796387766915817 6.486354536513478 4.309293558874222 0.25587850060401734 -1.5444668111907593 0.9105204462354576
Ni 3.354306098129819 0.40145578443959445 4.761589097251263 1.1590903289932037 -0.1387351839210901 0.9070525422915153
Ni 8.202454864371493 1.602671516384203 4.866374965818231 -2.352348562117368 -2.6139719356249627 1.4288306751809778
Ni 4.288735972325678 4.9143863889679515 12.29482228711378 -0.27324321713471006 -1.3424122983857332 -0.36078568023206903
Ni 6.032445316266365 1.9792403914790182 11.203561378369749 -0.04117878823115489 -0.8614614839252775 -1.085702817239988
Ni 6.171127740978727 7.168894859496729 9.882420541538501 -1.0576471966543526 1.4766763339093472 0.8188431350341189
Ni 5.314841819964336 2.556674326371023 8.963689658220565 -0.9875432407484153 1.2903587722236034 -1.1741621357246619
Ni 4.26951403774286 6.0928082871931855 2.6788772443610376 -0.42471024680017183 0.44844332875105347 1.111277580385299
Ni 7.8740101022879605 5.904080479698649 9.205533185381144 1.1897350504622544 -0.6865187397353789 2.885680204172385
Ni 4.582413141055185 9.225180016163293 11.235060042051087 0.6542228558161508 -0.835045198715278 0.9931065937688058
Ni 2.4742259899528447 5.575792744471392 8.494955255366328 -1.5510565485931354 3.5059554993984974 -3.1458429339740532
Ni 2.107244989964692 2.5953491173841217 8.206768484482101 1.052235281610162 0.27982935499266 0.21794393034177303
Ni 0.15993647155285334 8.273412529659915 12.249803611107177 -0.4585148540544426 -0.6880086940173441 0.4870358443122709
Ni 4.905694490629445 7.195358503215985 12.650928715461205 0.3148261827828191 0.7483648265078983 -0.10702731129484794
Ni 1.2181589297366617 0.4034999046333366 7.629314228467519 1.6134687922817696 0.2471802014990711 0.4013836562590894
Ni 0.8850495463343776 0.39539362409999645 3.008012924612179 -2.2089630239084603 1.0006766928065798 0.43861477269640586
Ni 3.3323869963686334 1.444702498971734 9.957653955754546 0.3182380366778455 -0.08621268854234185 -0.9094320982672853
Ni 3.638201417400795 8.333406025630794 9.14899612762309 -1.3960743066855634 0.4981106140691937 0.13254910971503625
Ni 4.397998953671257 5.352768424191655 6.140847420964603 -0.312312672332346 -0.22217365215240448 -0.8192043750282795
Ni 2.273259324542771 3.2068486432138648 13.378594862188281 0.5274900956725754 0.712427746291657 -2.0946720890726636
Ni 3.0078586688180735 2.1483306050653037 3.3915768843103424 -0.5895277296306105 1.025664473100169 0.482935191880336
Ni 6.951200215456438 5.564366731458924 2.5386707354554203 -0.6143496737702968 2.1619164640426187 -0.5511627566991669
Ni 0.9891675889184817 2.530072129543289 1.6047304155761828 -1.8532069356804985 1.2482399886766826 0.4341266550180653
Ni 1.5480446441483626 1.5767897957205532 5.4919579532810445 0.9739269355165613 0.21859056278683645 0.4759106809333868
Ni 3.8261348537400584 6.419276358262434 10.484696125093183 0.15949555639689306 1.8195020872288856 0.6526362280553212
Ni 0.16770283512672796 2.5579859624646133 7.038231888703061 -1.6669338540794452 0.5915779272914199 -0.10275748027490045
P 6.419581175101086 5.784315172730454 11.850463070790344 -0.8551599671872822 -0.734967836375702 -0.5077216547963966
Ni 5.68355935224541 1.0102276614071044 6.073455189001009 -0.8166535835819678 -0.4391477623817404 -0.325998911570187
P 1.504252624995485 7.764857963429163 8.563483622819438 -0.1910720456515935 0.06036178891750895 0.49791263912577477
Ni 2.55482695159132 4.738701047418124 3.815062612997904 -0.4776770288051903 -2.185539502778197 -1.055972637165407
P 7.376918496565271 1.685175274045773 7.02140045708518 0.5673969591698422 -0.2109764978850044 1.0537046670668369
P 5.803056789870548 3.081707475636732 1.9604184135360063 0.0017748325122356528 0.48905287474229964 -0.7494835134933737
P 8.976153895859225 0.6000070073252056 0.7274961882473421 -1.3391307994209842 0.014146209593394993 1.1399217264845527
Ni 1.0419655601224151 6.491730397122416 10.202323042640682 -0.1015644884080638 0.6768423929878795 -0.7960436206411
Ni 2.999055927992785 4.432766547025282 10.045879956796249 1.2162868328088536 -4.285665930097213 3.5926358716058773
Ni 7.594594666857766 3.3584811651319497 8.66425514599011 -0.6072773403045477 0.1782602385989059 -0.8308417021568916
Ni 7.286674238576743 9.13103779738959 2.6139992894726207 -0.1527358690755563 0.198405088977897 0.47689284234099805
Ni 8.452644830786772 8.211627080152722 8.95990438729695 0.1617799815556956 0.049678855282366055 1.5246600608774774
Ni 8.139930464952418 2.187291739169256 12.432176449359533 1.2677238084329072 -1.5038354108226424 0.9297268439605795
Ni 5.601849965739113 0.3682575359609279 8.97655939462337 1.1300669451776602 -0.6373949856255345 0.6195055069396235
Ni 4.67343329645119 1.725161701152461 13.342809365330638 -0.8133126921341929 0.42964008000162135 -0.4088892206075151
Ni 1.5695388497102158 2.6798942241772647 10.851888649493612 -0.013307258631867403 0.33620593401017584 1.468158526246323
Ni 5.066332964598587 0.8842533278043253 1.8167231373589188 0.06586060724855108 -0.38434187028545425 1.9919925132235499
Ni 7.240693080309915 4.074523629745128 4.059068492338127 2.848639863589636 -1.3187429797932515 1.5914100127095174
Ni 5.935051717880382 2.0170931007151482 3.89160766330754 -0.3214765982198012 -0.9439545575241872 -0.05463259974321559
Ni 6.2905974679821695 3.396638691206731 12.93914319696713 -0.5531260510731247 1.8836220576372464 1.4992310792814116
Ni 7.330401599612331 6.441620356222952 0.2602138219699533 0.01684998167780324 0.5857847176484104 -0.17408399573402922
Ni 1.3868150102497168 8.324547863562113 0.9645023645472669 -0.5879267036920778 0.03653614725282095 -1.4242073174763537
Ni 0.6967900483464959 5.939827181685916 0.4926957774343836 -0.6063910810448524 0.3886960334890919 1.128078711103038
Ni -0.05204239491903472 4.977483474568734 2.8814742180142 1.657297873651578 0.24206370620811213 0.22592823409883026
Ni 5.579173440318249 4.83107902327721 9.654448027911327 0.3793762987500628 -0.09197504494741579 0.4748750405800209
Ni 0.5816625757627473 4.18689020072061 9.342480925175362 -0.2466549251232204 -0.18753189370881895 0.5066621031836306
Ni 7.845948479384259 3.823520818426778 11.045185014818356 -0.15718670575805832 1.758522976442352 -1.3335023974906133
Ni 8.710492165663926 7.330503205225215 2.1286763847840353 0.5068544217000948 -0.10170847018509578 0.7078324136114906
Ni 2.395361560607291 8.484447387619374 12.054736537056089 1.9325455228108266 -1.8175084538376245 0.6635564745122507
Ni 0.779512719919461 6.119004061569385 5.031335373084489 -2.1838793414669553 -0.9340910344665461 -0.6086811626306098
Ni 5.359862343345718 5.25875552165253 0.9296581051398843 0.07711175468233816 -1.1542286300255282 -1.4498234753825612
Ni 3.5489455049194074 3.743492542970011 1.7484654103110342 0.7400200540876287 0.15513239433219092 -0.1633434693880735
P 7.645850080120646 0.5437461320967174 10.397687544031305 -0.06913105046970675 1.0207084146464742 -0.7179846715541441
Ni 7.827225335991962 6.783541717324423 5.467690838174857 -1.617451945299234 -0.7820028262773177 0.7854915561568666
P -0.3170307570071324 4.3242702262132795 5.77535909979845 -0.7746875235628271 0.07056135515833009 -1.2624527898419549
Ni 7.969491667776949 2.182543985985417 2.2462654842617393 -0.8520859562476487 0.06887291171231365 -0.11027667147008104
P 3.866869467632527 2.6389563990590292 11.679108899411533 -0.8248119510230439 1.39648362630884 -1.1471984626516243
P 0.3133276942612162 4.118324885771904 12.533448611095505 0.47866201842627887 -0.008148854359379515 -0.29754168467075853
P 8.5435264330743 8.440849342818364 4.394950785284746 0.21034940582396677 1.0795735644137987 -0.9358792367152204
Ni 8.524008918526729 8.923512951511567 6.83525620322006 -0.5386553682607755 0.806440904715024 -2.6717250832750308
