# total energy = -340859.1538129617 ev
CRYSTAL
PRIMVEC
9.36889744917167 0.00000000000000 0.00000000000000
0.00000000000000 9.36889744917167 0.00000000000000
0.00000000000000 0.00000000000000 13.71232843953070
PRIMCOORD
 96 1
Ni 5.584265630660671 4.385337216955593 9.871971443029702 1.2712513619701913 0.35188837774243914 0.5760417793290338
Ni 8.33613561000809 7.142313245310737 3.03711636227224 -0.6598013783451927 0.16447526899967158 -2.0889038191303184
Ni 8.265269271119257 1.885490573952651 9.532344232838044 1.2740852318745606 -0.3014353632982099 0.6020569724458729
Ni 5.374308643022017 8.807868956040837 7.1350176850129134 -0.5318357742357809 -0.3543388961654607 0.4699017557351456
Ni 1.0234770746819155 0.7657490167946803 10.115008133120586 0.27962289540880875 -2.923579036100688 -1.6324134517050723
Ni 4.1913916747374875 4.100878758290498 2.9720784143700194 -0.948016900519019 -0.019278388613637766 -0.28873874166714786
Ni 6.868956929900965 3.001785313807977 1.9258002544218746 0.8972571534676482 2.3060337382112284 1.5802902486472719
Ni 7.293798945138018 6.50606206335944 10.200134870531723 0.23427763450479008 -2.1345892369825754 0.9434246531626461
Ni 0.8940204629864842 8.491144015205839 6.934790297180719 -0.21188641129378347 -0.9462924616287444 -1.8632252391484492
Ni 2.1667917142404938 4.624412737284158 10.796497972390581 -0.11086339721148648 -1.9493651654713264 -0.6774514873267882
Ni 1.9836204038735457 2.726274152027974 7.225409742685224 0.641132855401412 0.3403104430968526 1.5987949923196787
Ni 2.952017731552889 5.065031975510212 5.947489345496088 -1.345934966827011 0.04871032072150966 0.3611654321689909
Ni 4.975802597988099 4.225719314305003 6.927413227476718 0.2507319234060714 -0.26426492489549974 -0.6615576989146671
Ni 3.9225043233216312 6.847623950835673 2.8902298541108133 -0.37906159572312137 -0.6156303402549332 0.22203429836106275
Ni 7.108172983688458 0.8576897531843795 1.2776383933815543 -1.4136825066856298 -2.335388794334578 -0.1651481266969801
Ni 7.922442582512671 5.292199627418931 0.7580281085611679 0.7957170905396166 -0.19938005129665662 1.2530623497659903
Ni 0.45386030072626316 5.3859822890103155 6.906625518232066 -0.04370746819027957 1.830921384809421 -0.22332936302340248
Ni 8.172498450432157 0.3585598777784551 12.66269049176322 0.18939157262537704 -0.6242486780515637 -0.8334616562782421
Ni 0.9379671493727684 6.150072074099917 1.4086811593834212 -0.2156970432891253 -0.8411505402820676 1.0294679060066594
Ni 4.675726187587456 6.57371487048745 5.629048022682714 0.26084072970529915 -0.03843130739300478 -0.6406906256576708
Ni 6.9056642693729975 5.013343769316439 12.4414008859966 -0.9460685185433966 0.013639188049989412 -1.339108687933797
Ni 4.396589262567107 6.653584719644948 10.232838880203754 0.661541500964751 0.6631666952729998 1.046097029922908
Ni 8.252536939740367 7.998049583416015 0.6405346417794268 1.3680271707403602 -0.12324351604339417 1.8906943911029954
Ni 6.762769848334857 7.029324344332506 5.022537468199518 1.8731440409240578 1.676399113257403 1.5876582589765689
P 3.5385669135299307 6.549833551366927 0.68051266328558 -0.9033419262091474 1.1240690757230125 -0.17905213837258196
P 3.623673976256817 5.078663721026242 8.939450433635262 1.6975852604167152 -0.796005568314313 -0.20163130922467856
P 8.284381821533485 4.720125391711489 2.9012130123709112 -0.01851399964378747 0.9126763162361959 -2.1039756258617768
P 5.452370295007972 4.473039464224019 4.585759477850835 -0.9617195948170919 -0.04995499176188816 3.787999345543973
P 8.762532862190616 7.145461194790727 6.023167550018622 -1.1759050865576974 0.8195823271929884 0.5087593520322916
P 7.670119441455813 2.4434365125891837 11.80887852515553 -0.6574413627534483 -0.8481768510012295 0.4629407510362801
P 1.5898737586486607 3.05302381293318 0.6985393585071566 -1.4525007651044082 -0.11989645394803222 0.837386188143629
P 6.505303182681228 7.891806288466335 8.95716701835747 -0.9511557032583167 2.3577370801227913 -1.575817557587899
Ni 8.325530018307646 8.65151142963738 10.388212672394717 -0.2069997726254435 0.9093405669947436 0.11267139695450273
Ni 8.5824251812283 6.736714945049578 12.420846462293769 -0.7830942595692836 -0.28341167302727965 -0.6799215461338355
Ni 8.049840847479668 4.310020651867368 4.920271270137505 -2.737299526741731 -0.16830441293777465 0.6167685676244345
Ni 0.7053168187863981 3.573578482597563 3.6098660954722637 -0.66211537119035 0.3771258121529892 -2.9297694811821158
Ni 1.1568058516156803 1.2398798636367396 4.789359668697305 -1.0386657704558433 1.3491784134649731 0.4010244731474577
Ni 6.233127348326453 5.7646169029517935 3.302504430560785 0.9337601334896887 0.2634267452649205 -2.001433604031792
Ni 1.1927917859985482 0.6706059913208718 0.40306682422099954 0.15080419927048222 0.539486091692187 -1.0149769114793359
Ni 0.5196664982039577 4.144509712839057 8.970056747210359 -1.2569336597959386 -2.4654971558186056 -1.024887228614512
Ni 9.27600464552502 3.306827239757415 6.546086929351903 -1.804474503471802 -2.1133498679878246 1.0251636222043508
Ni 7.171206924466364 2.4162386038379564 7.30060825966795 -0.7750269091801169 0.09885454567606845 -1.6688981768946676
Ni 1.9383311545096344 1.690252123912406 2.443344697396017 -0.980898481738388 0.6172766176091047 0.28318078796339613
Ni 6.05397529488485 1.5765886623313201 9.211873606877749 -1.2794369831047774 -0.3008452951226948 -0.607555790776915
Ni 3.179129170078038 0.9387260300509803 7.784913728936408 -0.03578924178446739 -0.9743385691326831 -0.9458083229034744
Ni 5.76369875102013 6.402507641923918 1.1043184784854694 -0.44311060368423044 0.41835190868231176 -0.9019455600822531
Ni 3.7059703698051405 2.537575192276519 5.03707331230132 0.3674268396976704 -0.23438767772009308 0.1444322343058674
Ni 4.655311360453827 3.8497079915968504 12.527966686027161 -0.5054696255374262 1.1132894686090054 -0.44738711957239724
Ni 2.7058405870998214 7.847069804040875 8.164566742010251 0.7620757483360876 -0.5159119039166727 -0.9011665158243835
Ni 4.085232699863164 2.946649353421834 8.864485202194356 0.19732599698110534 0.4353908664424695 -1.4205810335776758
Ni 6.227684019017302 8.587821666051141 13.55994322430505 -0.25010611689661444 0.16590351680576587 0.30558640935210596
Ni 3.233777947806564 5.920243655368824 12.157281581412384 1.0874884483855012 0.4407073935593765 1.7745381209236857
Ni 6.150343772120513 0.19763595084955912 11.107479779204048 -0.16880449250264476 -0.6209998320969627 0.1597783777446345
Ni 8.048032650308127 9.141504756433521 4.210521089166787 0.926183092473379 1.0316996235506555 -0.2340333797044679
Ni 8.750362664647438 2.203639587171454 0.21953200064029077 0.16407880489220128 2.4166683072413604 0.228748991377077
Ni 4.2972133693103824 8.159597478902553 12.423753631114128 -2.1078027129173504 0.19372079612835025 -0.3730441858844478
P 0.30842597164042757 9.31889545718989 2.3309722698576176 -1.49150208606827 -0.580111321412717 1.0654985743779715
P 4.948792067182109 1.9848008849285421 6.875443954365089 0.08388609729169424 -1.0514359256373185 0.20099598963352483
P 7.634096031483897 3.8572499538926612 8.860974676390331 -0.11854482501614422 0.8644588759907048 0.2922444408275612
P 3.8679117589766765 1.1537609600055705 3.027146918695877 0.9172911893003879 0.6771249572253047 1.6655968804355765
P 1.4598615713456002 8.964235851341556 12.32358512914905 -0.6035885785990508 1.0377525146129547 -1.605233805966487
P 1.5861636753329578 3.4551837278992297 5.348315574458667 2.112216782824646 -0.22433157903567172 1.2226323154109071
P 8.169753363534426 1.9293089064464475 5.074782186890647 -0.18417120476670218 -0.44318593700685605 0.0006782570139472191
P 6.12846739701403 7.248659598130297 11.93065826243458 1.1359935950747402 -1.3110934336677935 -0.47851366577387267
Ni 5.706520371030897 1.6660616311822407 13.125947796443143 1.8487285881941709 -0.35780242923402894 -2.238248660246455
Ni 4.442243898924231 8.952609049839568 1.7218571619356202 1.0524108879560778 -0.43853558271903825 -0.3901044838008442
Ni 2.587417725709702 8.225029857379498 10.56651402996494 -1.5474585468292317 -0.710364178894409 1.5064502227376702
Ni 4.202952893958643 9.066544209441247 9.33507835343033 2.9383628792780816 0.22196616412728867 1.4353026560585667
Ni 6.291411258192587 2.593994691587539 4.172222910939688 -0.24037423432083116 -0.36106233093222334 -0.24157905326220974
Ni 9.359219191005009 7.200606524074133 8.889359624424639 -0.6044231586852041 0.48132490997042265 -0.6107120770177095
Ni 1.7710963383851386 5.8471287811371395 8.766990583507816 0.8580982238799997 1.42317219134362 0.09011562314117383
Ni 5.034114614546018 6.451741197035079 7.990941401063429 -0.4714613869127816 1.2137638092766838 -0.27106574986741705
Ni 7.695228086117641 0.07837551004422807 7.571769442449264 0.7104181720607958 -0.7877885797211593 0.4867918466222649
Ni 0.18557818007352403 5.975941749590681 4.490335385459169 2.138867552642955 -0.7636191815638075 -0.6490153434732822
Ni 1.4114993236797935 7.036922520011888 13.054013403266456 0.41290194131133406 -0.1755281843797235 -0.1474681929187138
Ni 1.1226187455070928 8.341616414906289 4.343050699164113 -0.1684746199670518 -1.4031312135323448 -0.23942318326147155
Ni 4.807415407500393 2.273362920594339 1.3029362897680734 -2.589943691031165 -0.6519332884510257 1.787393636730115
Ni 2.057653430036894 8.302004717283076 1.8156220226222068 1.153012755340556 -1.1136576505817015 -0.046466518992655456
Ni 8.549484138455544 1.848595856535381 2.586199769065658 3.211481655019785 -0.6227867487940564 2.983290335918391
Ni 7.018100405412778 5.453035486713566 7.477524894222869 1.8369115409545846 -0.11320541508110181 -0.3698429053383308
Ni 2.6475566772336876 2.4221316402156767 12.72804323461344 0.6511735274668657 -0.2060078410258194 -0.6055055931161055
Ni 3.2474378000143798 0.05571214756774877 4.820020321876521 1.0424596902806371 -0.42776805978988913 0.17957278676274235
Ni 0.8438462705902305 4.41333148197408 12.885899784578795 0.2595677765301465 0.3958758390669827 1.1283792730625921
Ni 6.070445816271229 0.489622318464572 5.149623748887694 -0.71530918160451 0.029579513429329705 0.5821581766394167
Ni 0.43150517496969953 1.9645828046374125 11.703677988471096 0.11260120583819963 1.1250252689886948 1.886116027703694
Ni 3.2656134607024203 4.408113006199215 0.7954905811525074 -0.05386461122893949 0.1926944117463649 -0.6228116884947208
Ni 4.513363198039135 2.120097130287301 11.117119437596791 -0.46296851895042196 -1.0278733078260298 -1.3453361569007474
Ni 8.910149207448741 4.073980654251651 11.005830054581866 -1.2345761180363446 0.8352208050611938 0.07000034044853752
P 0.47712327262750254 0.7733265809000861 8.016336733981472 -0.5905160616858087 2.1150743068780993 0.5936306960553906
P 2.6424131526369172 2.0045224136647923 9.894829678569227 0.06177718120779683 -0.43231634128220375 1.313723672201789
P 6.374494639110908 8.455495361124397 2.744700899162633 0.8481650239266877 -0.6677995660593209 0.1938696630013887
P 2.7634499363631 7.4881286121438615 5.87253723051135 -0.35801017436946087 0.4698783586963779 0.5552772930881728
P 3.7887539460110817 0.6451019791945916 13.640159722661236 -0.17819698946113827 0.2835250586766923 -1.0431981111085582
P 2.282244635198598 5.387584370442096 3.859252087237524 0.47929965201027774 0.3924097348952532 -0.9799188914339382
P 5.982247017447923 3.8692608801823867 0.40229201641744233 -0.36696326979769056 2.420467883493109 -1.594504592474441
P 0.5708375412688749 6.168575646192124 10.771349041470526 -0.20586591613131644 -0.126308271011647 0.055475407359485106
