# total energy = -340864.52661390166 ev
CRYSTAL
PRIMVEC
9.21337135552269 0.00000000000000 0.00000000000000

0.00000000000000 9.21337135552269 0.00000000000000

0.00000000000000 0.00000000000000 13.48470028065610

PRIMCOORD
 96 1
Ni 1.8033332137093707 8.56925553265077 13.402134186499731 -0.92981580412996 -0.694656538351165 0.4966934220066929
Ni 2.114754385510272 6.43046346076351 10.926113367759603 -0.1367389794266677 -0.1126837382496769 -0.1440087736152036
Ni 4.6951341424732815 0.8944248968154703 6.456529010218907 -1.6571842308918492 -0.46229514703248126 0.4553148590599062
Ni 5.686981230070763 6.582622291930986 10.32411627729231 -0.4500757221481539 0.19008088538291779 1.2938834975474103
Ni 1.1712774985564036 4.3316389946652 12.083936579839841 -1.1539175265430126 -0.15415563224121837 -0.2924580995002641
Ni 1.746551204839546 4.078022515976302 3.427500440223337 0.7630969905117504 -0.11066876470217715 1.2050914783136666
Ni 5.781436715213298 5.88821969149129 2.1092899348432765 0.5459107642716081 -1.5788997960576485 2.3319219188319003
Ni 5.898474174027736 6.866302001991332 8.134551157460894 1.3817416921129753 -1.6821745822885998 1.6495102592863593
Ni 4.691808115343311 4.124199934190737 0.4398712339557675 1.3915476224598036 1.0881361092718291 -0.7272614688703798
Ni 6.395185461094101 3.7794632108608264 5.8988685063301265 2.0458969765514894 0.016530393554855402 -1.4226929377143562
Ni 2.9790884108396405 4.032748008173882 7.895629085058949 -0.7898678308476913 0.6734966164440982 -2.8111457232989197
Ni 6.021094936002181 4.013906663351751 9.766267820623884 1.2296123462731663 0.06922978083110011 -0.6747970804230765
Ni 8.225946881911288 8.5726644801247 0.6383484479224123 1.5896387797417073 -1.5676676747872549 1.6515337174742912
Ni 8.289666559559139 8.105417555278958 4.792935002826045 2.226879499177565 0.6303365361168564 0.7164191268392371
Ni 5.8991283234078695 8.802934275302947 1.1716239213267274 0.15199873379921564 -2.049405246815064 -0.22168719943428916
Ni 0.9473925698631134 2.9083757841844546 1.7922780891851289 -1.0427193716999268 -3.5275638216968925 -1.5337093155639392
Ni 9.13921312354889 0.8253411942505309 6.1311698499354055 -0.1630480496348418 0.10666812818321629 0.023822556340894457
Ni 5.346455017539732 0.5970697793617313 11.392090690005595 -2.3370499840870846 -0.36207071759207965 0.37318071146231213
Ni 8.466876547974232 6.896558714165356 8.658350678224837 -0.743121575831088 -0.5356039830289615 -0.7631234728743115
Ni 3.704494006549003 3.259727708288102 11.985660309515037 0.1711197708993827 -0.48418397668577257 -2.075046858642568
Ni 8.456327237548148 2.967921804519629 13.281243695702596 -0.6751259245174049 1.4890819066625516 -0.1417660003276139
Ni 7.1688414836169105 8.526440995052509 9.934893710764758 -1.34932805166896 0.9919940774309175 -0.8056466909485029
Ni 7.480492989706592 1.4072135172386169 1.4297420533555234 -0.8059097148019024 2.668355909692482 -0.7028251902048863
Ni 6.967280554192092 -0.4776276305724385 12.398710497548214 -0.4171548030504171 -0.8936054156476738 0.059330776549833306
P 2.4331132260892003 1.7548524526071447 11.018510585697609 -0.7032537931018726 1.3416705351237024 0.8291185488181978
P 7.991577136392772 4.64542800295475 4.688994351671585 1.3976215965680252 -0.7527431580812519 0.6458068638383136
P 5.220222613917231 5.013741744084091 11.848008853192024 -0.1535524514395807 0.28309182779401565 0.07698397085522224
P 4.639208977157715 4.63972492596458 3.9862389085836045 -0.18439077697667597 0.8840799926557419 -1.5498242188479308
P 2.6436940462626097 4.015021481309442 0.1599551861740721 -1.723422276084477 -0.8167034629832967 1.735367364261495
P 7.8510363667513134 7.187784175526105 2.3260704327334643 -0.5884301256910576 -0.6876916769975576 -0.8560061172376612
P 1.145931513419151 8.484925542842962 8.717818384901827 -0.17603597725407746 -1.4098322797016043 0.30664313275139443
P 3.7802739875573286 6.473139797788502 7.917959533687505 -0.7469183238693587 0.173747695440533 -0.2380463575186029
Ni 0.8302288878584235 1.6169098537431144 3.764186519491841 -1.9216419885244453 -1.4217938229388547 0.01965839766087582
Ni 0.019527741002692542 7.706386433398036 10.731825473837272 1.0197810177361986 0.7355663891916493 0.6821568632222574
Ni 7.428713841589049 0.32072022770749153 3.295646958617471 0.586867409189628 -0.5143692420199013 -1.1714578494196213
Ni 5.069768256486721 3.09067155369579 7.564148560716852 0.3999150421333629 -0.6156131138637526 0.9040754619410623
Ni 0.8774990119388266 4.9081933595939535 1.048290965731378 0.20395147271742298 2.2963921013564064 -0.6534682370383132
Ni 5.1495744808629045 0.6843701601576326 2.9679420739370417 -1.4700313177890039 0.5535906494143691 0.6094280680989633
Ni 8.389410519972042 4.651619388637133 2.4667162348106064 -1.3607069829298628 -0.0017573490107389087 0.9586352994648135
Ni 4.455144240308556 8.662706760294228 9.340622953680269 -0.204089540957184 -0.6920237287140082 -0.10508458574618032
Ni 0.47873323515857813 8.284175390114646 2.945166619462564 0.31358922505192444 0.6711913653496893 -0.9056551477233564
Ni 0.2610664109251686 6.740281505914508 13.164384976296247 0.35343695317648166 0.8592876162024105 -1.5321939073606772
Ni 1.9402623417027733 3.8636550000953647 9.888047401775708 -0.9536954389610349 -1.1485961143300993 0.8315999204791549
Ni 0.6578734249136394 7.6003405268441355 6.733221299294851 -0.5856330225618946 -0.8020654013551477 0.7562851097962394
Ni 2.850432890499183 8.544361002719523 7.2637769854172625 0.30138059880087453 1.01123029995271 1.3839500126182036
Ni 5.193734170707635 1.5151481649605056 0.1515627260281166 -0.2700601914210381 1.3652591210769198 0.4264292863738075
Ni 0.42462218270143565 0.7201889847370937 11.777834287435427 -0.3072846229901353 0.6952808021987251 -1.3726466717902424
Ni 3.2164248619976306 5.335177850761108 2.0558238183947157 0.43900866570071495 0.9292355061464578 0.5741715588895144
Ni 6.109699930209727 2.8626313944329245 11.771752540874504 0.043370910786467244 -0.7149826515030268 1.0033395843507238
Ni 2.4357851038390383 6.122524943408947 13.103326120352374 2.04394705191397 0.4398597008471005 1.5158725444928345
Ni 6.985200561859107 6.3682824161647025 4.120020748855129 -0.8754197458775826 -0.555419732203308 -0.824046276501613
Ni 4.620588753252812 6.942210970201374 4.072433684793366 0.19364134904066652 -0.32329925325083675 -0.7727293713951917
Ni 3.974021977906761 5.120920895338784 9.756410434401293 -0.9190156281906625 1.270629412115476 0.6961014983278077
Ni 7.829246743032811 3.004369902376035 8.011071709257882 -0.749789731879883 -1.407129021837828 0.611482893745463
Ni 5.718048718941287 1.470619940253729 9.362117749509135 0.6751542066521791 0.5809153053712511 -1.1634784307585704
Ni 6.71600427187719 1.5682448252098649 6.2353657114818315 1.4675741144977628 -0.963230889255296 0.4577903171835922
P 2.8625024072312084 1.9285245063465901 3.9243038610052134 1.1842668282588316 0.5037914665040549 -0.2261778882157911
P 1.2877529417062217 8.450780787874349 4.971377740354683 1.0041911337177414 1.0418433968528766 -0.5440634266502243
P 6.530935277528955 3.6034509607473852 1.1862261938981675 2.497711278657305 -0.7246870232749841 0.6539189514224867
P 0.04809656350854252 5.550144235792871 10.380333506486048 0.7591369774227378 -1.572754345281543 -0.10486038555051619
P 1.6821773778115614 7.076293166385467 1.6704708679186522 -0.013064032272809759 -1.3070123216198846 -0.4521449459723568
P 7.5006702734036415 1.2758492656621174 11.256933293361481 0.35797957824184157 0.4656702341523012 -1.5450903037073713
P 4.0219591500874685 2.9179484772261146 9.543392677452601 0.27551093012296424 -0.6159800102848682 -0.2544811060358585
P 0.484817745730967 2.270202390321515 7.785755943962695 2.528083206080943 -0.16425389701748486 -1.0471776645815964
Ni 9.156755382982306 5.222415396346409 6.762388990951527 0.09259853746402763 -0.8995693465405927 0.264395536936093
Ni 3.750652998020336 7.7233298236806265 2.0045550910611074 0.20643695814343804 -0.17792059587130002 0.176888812172676
Ni 5.206540757163753 6.512563814655934 0.19518804032287915 -0.7834092197065411 0.866392859788624 -2.914427965729039
Ni 3.4309029383371823 2.909905203861948 1.9897077428064063 0.5286656040379153 -0.8173256699483278 0.5418170538182088
Ni 3.355417785218494 9.100609096749512 4.453672864871835 -0.2131681062196845 -0.5390973408942007 0.7057819588403652
Ni 1.5256974753865884 6.071261744098271 8.735227050447751 0.6673709631623346 0.09086638526426931 -1.4880856041875534
Ni 2.1343880802858033 1.1699139195668316 8.962026168562675 1.6033795263665676 1.1809745306608048 -0.7276643607357532
Ni 3.0025548681804555 6.955035983400594 5.717904069007934 -0.4589439711720612 -1.3655560834920482 0.5899172517595453
Ni 5.217421748965678 7.753872150372737 6.361650631322174 -0.9544839963006013 1.803176610595985 -2.122303220526371
Ni 0.5633497608216254 3.3375622711523376 5.321197480769372 -2.3601246065183608 -1.815887373294434 0.7670194654946081
Ni 7.65474548585376 5.805345414388569 0.3522833959674699 -1.6971659134911095 -0.3034120274086065 1.5361055837102577
Ni 7.480373215876426 4.704107966364115 11.823466274054034 1.0871266941707083 0.4266329177441814 -1.10939604709187
Ni 2.476185738090893 0.6649677210080358 2.1754870881012365 0.07676954085157102 -0.6862644576327278 0.129459415046119
Ni 9.06040194330023 0.9148122453838865 9.364814503362162 -1.8207351883050384 -0.7981259570914255 -0.018314739148787812
Ni 2.4012441738937236 8.91961241262689 11.08426181177249 -0.03898255191078447 -0.8145100548764038 -1.857852147761994
Ni 4.8127796838100965 5.26958785868837 6.0507601497226196 -0.9219425720294703 1.5283650205328905 1.3615456767810745
Ni 3.864392069819458 3.1002903135952056 5.4245576895161065 0.8500023342457425 1.0951824745956493 -0.2709089125745786
Ni 3.936698609752995 7.601197370398395 11.972755139983324 1.400550340179046 0.1283427849431725 0.23960418892402607
Ni 6.005745458997941 2.9979021155471175 3.3816933995452585 0.5500384132867365 0.07889327206279315 -0.28712280333027973
Ni 2.3346775644365616 1.6587754140716044 13.422144708171706 -0.11896777148617577 1.1365610375424362 -0.7797865353522894
Ni 2.352394877929451 1.6068857054954475 6.1458006839586545 -1.1497664804891168 -0.8412065903309836 0.6283639857715179
Ni 7.53603119341701 6.792705590040632 6.298420183703689 -1.2455279890621582 -0.770794102045692 2.6111509212364
Ni 1.4639678859937884 6.227704793037039 4.217164695816295 -1.1840575404615028 0.9837542060196285 -0.9805392986267566
Ni 8.799700381888488 3.016135377846872 10.548339336721527 -0.6248222911668465 0.7508899069225972 0.10415487484305933
P 7.874594957807641 1.9722603810999666 4.421619545245335 0.5840157986734459 1.1409301131444092 1.0039337662912968
P 6.175907218176393 8.476476881130546 4.589436501364015 -2.1262249241782802 0.08033746070848745 0.2594477060125145
P 6.884535264291086 4.769467624148074 7.902560304476889 -0.8347880883991494 2.9582264509712277 -0.8298271448494483
P 6.949332906410424 8.982466033348931 7.664609321436437 -0.17588942437388416 -0.3102946134610527 0.2594978425241595
P 7.3588396317450195 6.810662451193851 11.546719626085938 1.3180253849009365 0.8930166330237393 1.2771494726221813
P 3.7573695458811343 9.157096277729698 13.935898889933414 1.606631457644962 0.4295848012836538 -0.9933125391320248
P 1.920960328303084 4.759765943904699 5.742149977581978 1.787205174868393 1.3875585559050683 0.8390990570696775
P 0.07068775055199716 1.1092254411593128 0.22472703085306672 1.364113951728883 0.5816079605629015 2.7834932516889737
