# total energy = -340887.1142919388 ev
CRYSTAL
PRIMVEC
9.14540209161336 0.00000000000000 0.00000000000000
0.00000000000000 9.14540209161336 0.00000000000000
0.00000000000000 0.00000000000000 13.38522039249071
PRIMCOORD
 96 1
Ni 6.282772224565647 2.3691438019793742 11.785606283117371 1.6964030671831556 0.42687922942703255 0.36023083616986346
Ni 4.364487591535411 0.7219883267870386 6.242424540402281 1.7473188801964163 -0.03464432954674679 -0.04736769065068617
Ni 2.7929417266655365 1.9997701640823227 4.683354832823231 0.12907349246160996 0.7408806023157112 0.9775305937074197
Ni 3.5318444742921744 4.903243218278221 5.019471216660697 0.8395533709982766 0.1452069076883628 0.2388138318122468
Ni 3.6531490852770094 3.523595321765914 3.030868502855333 0.6420957335353135 -0.7094262404611718 -0.7020484599398619
Ni 5.513186653518161 5.039628597018935 3.0402654033217775 -0.5006377513664216 -0.5978082244718479 -0.9643979129802036
Ni 5.54231475861366 3.412542706326465 0.5952888432132446 -0.6306280992153461 -0.20831283500991218 -0.6342664672988818
Ni 5.816219545932403 8.34912091458054 12.743813939556896 -0.8932904555104164 -1.3970839788970002 -0.7750361651514974
Ni 2.325300745204548 5.614600015340449 11.66622312107463 -0.6292026796227292 -0.7195162777073222 0.3911802333635263
Ni 1.3392160746513329 7.978777864080623 12.032014505042039 -0.43256419562695175 -0.6815184583073102 -1.07029830975946
Ni 0.8280704162863294 0.49935357713733103 4.956212471622842 1.1381664343563431 -0.12436811656614065 0.11888781017785975
Ni 8.862187107347443 2.8019408021487298 1.7704766472991669 -0.3372773126974837 -0.40810837657743265 -0.3948630815317522
Ni 1.6453675491181852 1.6864212583092983 2.5453336280097756 -0.0469480866147643 -0.12080379625365001 1.3214683491442145
Ni 1.98343647626425 6.715907604605813 0.6757299693667738 0.28502144071656077 0.9257364918542638 -0.3457886926026045
Ni 7.900529805306027 4.0940489115420045 3.8116151223984382 -0.16356509848057638 -0.12617045988220207 0.6584795742099757
Ni 7.682540005288345 4.183088544574902 12.677369851032461 0.6096579247215823 -0.5156100564055377 0.6218788922678063
Ni 8.168791879643946 9.054889871073428 6.983297207601154 -0.5120200250614343 1.0956460444956293 0.705653660792617
Ni 6.837413414432753 1.084388595724807 0.4193980718254255 1.0260144002404201 0.031037586032094933 1.6549298876400338
Ni 2.0800302112779585 6.97119235362803 9.458451764944892 -0.4172959566139716 -0.12732797052541298 0.1613647483951479
Ni 0.25629623047388445 5.242967463170685 1.3545309646962065 -0.345761696019411 -0.4057259923881851 0.04345087209478323
Ni 6.761515723950006 2.1417799650000338 7.445153722351654 -0.11785731203081638 0.5604814629969316 -0.9455008189653845
Ni 3.6679280547697335 4.934072368129689 0.8189570232792133 -0.3312899847657972 -2.3399103363540155 1.4013548383582124
Ni 6.283311803278563 6.06630056126566 5.023205284262107 0.33870813160673924 -0.17884902122284035 0.24948493837284777
Ni 5.25064960077829 2.7969199764980455 9.835874271066292 0.15689668532146525 1.728787397051132 -0.8377003769499378
P 0.29558304801524854 6.019851064945396 12.549902153697905 0.1506162516293922 -0.2809495846400323 0.42607575968913075
P 4.073791846302905 6.324347221665847 12.838487140168704 0.145919103264039 2.4517854626594677 -0.10555072674932145
P 2.3444054898025066 8.923479590973828 1.880208666702261 -0.5983977784267308 -1.633956113601844 -0.0824485935142193
P 6.517132294009057 7.911111035320309 6.098815208689843 -0.8781808535624875 1.5235202908460792 0.18778051938451532
P 4.888445957981669 1.2659248237140237 13.004704819952282 -1.7896811472127114 0.18895731330143586 -0.18165023811706132
P 4.145189999044055 6.536602854683567 8.612318265338589 -1.426437492358453 -0.3918032116595059 -0.9835240922866934
P 4.829723332293066 1.6363776190369057 3.7298314512439608 -0.6686971381729258 -0.9666450571431675 1.5185380071401398
P -0.2852304530488106 6.00142308008906 4.3911281473103525 0.06775165362367686 1.4134894168382173 -2.3018610948907776
Ni 0.8043280383778756 7.465034911572096 2.781274937444083 -0.5778243251507533 0.40521280019719247 -0.37237132818713936
Ni 1.8974788436763081 7.043788554019889 4.881121405588895 -0.1479919266326677 0.0401446905396857 1.0454282859906576
Ni 5.901317510740446 5.524243444431963 9.304735849577499 0.35512976749787223 -0.02129516193335042 1.2317481616692463
Ni 8.476653544268682 2.3622481689363584 10.28892467831398 0.47674346124732725 1.6578182649314221 1.1139193888835202
Ni 2.5467749433513927 5.91379183895089 7.06251102081785 -0.8783975975589838 -1.207584162828533 1.4543005373173084
Ni 0.9160766189029658 0.45171609310846295 9.329739378409869 -0.318311056007626 -0.4680515899002842 0.0035645774228067638
Ni 1.5388967800375575 1.526587069061563 11.647684476855135 -0.36784078730663744 -0.9380531044380878 -0.8967560454615138
Ni 4.3403162942772 7.249368043640525 1.5832977063291267 0.23039398317966775 0.6855417205340903 0.1528176301560852
Ni 5.775312163171911 7.985426571271966 8.36471839754455 -0.04545478989868946 1.2265995275887716 0.7592040832152473
Ni 6.946563786274128 0.928139404027287 5.036095728259629 -0.8329482069769332 0.22078577066594232 -0.23088532099378947
Ni 0.9184910050082128 7.940943336363173 7.402401712025147 1.1150074797413765 -0.0733106357686931 -0.5535451408884144
Ni 4.951604103598471 4.98694193659345 7.101823445484572 0.2991856480320847 -0.6132230163650213 -0.171364282810021
Ni 8.692256394386858 7.493632583356594 9.494083165341303 -0.896824436805604 0.7378536425639294 0.1643649686740524
Ni 5.315883752629528 0.41420988531971853 10.7329522320335 -1.550516616929265 0.19791246561219464 -0.7016414543094303
Ni 8.356391509102021 8.113453052663456 4.902738392092578 -0.6360613544157755 -2.3833833199359855 -1.674384653930536
Ni 7.244749615674048 6.375872416048278 7.484680149423161 1.1851062934409913 -0.47185810813056805 -1.0096382728752418
Ni 2.6250230021259893 5.8455945768795745 2.924964748693361 -0.2397494562526387 -0.4025416811229326 -1.1282355483958761
Ni 3.389432275690256 4.647821288227298 9.63015760041695 0.5915686713200392 -0.4839842019701407 -0.5180909138458626
Ni 1.3251230103021445 4.162868060943458 4.111123376915096 -0.19412805886909792 -1.010748732330601 -0.7691689077374431
Ni 0.8226956635815806 0.5983662709572433 0.37610465370561924 -1.5708514718318753 -0.6168115050472279 0.6684443987321713
Ni 1.1438977259779974 3.8235736499409416 8.567718883825489 1.2197652782757575 -0.6839440370296673 -1.0200887787846045
Ni 5.495051321523067 2.9057228230666956 5.3476228699714214 -0.44742388634760366 1.0289436580720732 0.0462762573587203
Ni 4.218572704000501 7.318232920051546 6.455316693393201 1.4433586935938238 0.6540477636908671 -1.3880375524240158
Ni 8.310582190915724 7.627658448403545 0.4374245735377451 1.8763558629931365 -0.422833084382117 -0.6244301979347504
P 0.28197377542730123 6.034520289615155 8.161985871539684 0.8421388723372657 -1.2928787104319799 -0.37864276301814787
P 8.873216462055504 1.925235138484735 8.151893920527792 0.3980034269329468 0.36248980740736925 -0.6061807648062592
P 1.8281749879734221 3.512474513038716 10.711321527426946 0.4243312661941982 -0.07089045636297468 -0.6746741816919671
P 4.258373493129422 6.755488904088803 3.952040025164485 0.6335856391817735 0.2177215299183218 0.13515106611425756
P 7.149609999564636 4.253480703105531 10.552050694937103 -0.8150404734585769 -0.13654717513083578 0.015824882847398553
P 6.783848795423541 8.045274081395968 10.583171583109621 -0.8016152011916066 -0.9250914020710971 -1.015205225440058
P 2.5505428489398843 8.812509284151604 6.160735066887517 -0.8035471281069967 -0.1001167002179437 -0.32966787578134193
P 7.284193734128329 4.299628401162639 1.581543618242057 -0.7394770370999652 0.9536936391888219 0.5866822897620154
Ni 2.5231980972175787 2.209126704693363 0.317529268987829 0.9832420422699003 0.3859997176038513 2.100257553580241
Ni 1.7173510075818188 1.6198610231805568 7.12309199217534 -0.1628243636598099 -0.5281410989930131 0.44851789074273074
Ni 7.5021469525383555 0.5694311338421256 9.1941871457835 -1.4012064857058062 -0.8782872972333648 0.46660431593079643
Ni 3.0223724244773993 1.7472290356342506 9.605836318567352 0.08242622491671611 1.2053154213990145 0.3239410005998937
Ni 6.368830456574641 2.4094475882135553 2.555546298326932 1.0570566142582052 -0.42831673320450747 0.7769130704592362
Ni 4.1013286514654 7.009036026747394 10.83268558352422 0.7810525465489064 1.647744682745504 -0.44576346792604515
Ni 7.378784626122913 6.366031963589014 11.755796845579292 0.47565048529346465 -0.0857005247926137 -1.2715794347335714
Ni 7.916991528750893 4.273481697091043 8.417696796291086 0.05510465428362767 -0.9156341133129392 0.13198655234334689
Ni 3.0205067624869812 8.980949296600238 13.169330285262664 1.9269410321398555 0.05775186209848763 -0.3664068830735883
Ni 0.1644800534199529 5.236931497907568 10.228302552647879 -0.12232846042829257 -0.513305062421445 1.9145352022763351
Ni 8.850270648653742 2.83445270595234 5.976112265752387 -0.21686998055130394 -0.33686722174325856 0.6128311802432413
Ni 3.7834527717450377 2.928421710616784 11.993090759956653 -0.32748809452120375 -0.44095601923507277 -1.169272154622212
Ni 0.9344863129554742 3.600974567358698 12.69141078659074 -0.6921350574808919 1.1220954969364094 0.39000138256407674
Ni 3.2711639381408077 8.83760426700311 8.327106103093605 0.7063285753724545 -0.2452629298717002 -0.16972237633122383
Ni 5.87742057553965 8.383525916580309 3.363559019135884 -0.33851092799426863 0.015311690656405889 0.8476307486897724
Ni 3.433147296838289 8.93607280940915 4.050621970554256 0.05299943501516679 -0.9125572741598285 -0.941866821757223
Ni 4.0232452099252525 2.6450514323172425 7.539358678385475 0.060872667115656455 1.3504801629955323 -0.09738310333686453
Ni 5.037442845961533 4.767260237221714 11.732507165065572 1.3429334609965258 0.03560026570211288 -0.9098804986586136
Ni 8.160533581715772 9.261914334196446 2.5398052325528746 0.2806040283751554 0.6901349963317276 0.1396101303268757
Ni 4.263046793507382 0.8395250321833819 1.782028204456506 0.6413704253335148 0.21832111117553368 -0.2592399608770825
Ni 6.108598045117051 5.890141829601766 0.2857727753822998 0.119182201489827 0.4812171807479648 1.4304666681225042
Ni 8.43570043449862 -0.20192864517664028 11.490033295044228 0.25855090522985796 1.3542038917040224 1.0571800272099472
Ni 9.641997237734575 5.130853981109234 6.052957419873404 -0.022119200496542552 0.0004838816149540053 2.601400526717855
Ni 7.4549383878592455 6.401863648287339 2.5459893533269957 0.4558486200761891 0.2058201504950455 0.43381015221891095
P 8.684171859095047 1.8824163667242557 4.024614276591751 -0.514066880288134 0.6637783607150697 -2.0600930655462135
P 1.926716693594773 3.7999785130033006 1.8020255402812524 -0.8979508371005632 0.16228700309910116 -0.6062977500000978
P 5.245363558472104 1.0987926037390647 8.581009896426835 -0.7007402826513996 -0.9590037385478258 -0.7362747281125835
P 8.456551950862117 1.8016441770214466 12.619987026724232 1.0115735422247418 0.8681877469055176 -0.5290273582527083
P 6.559786448535087 8.166999380868837 1.3427251653656633 -0.8260856755291449 -0.4141332426152738 1.4080764733527622
P 2.3678634457114405 3.4997166773689443 6.2398821186702405 -0.6602389801032436 1.1890696489641137 0.38543458912900075
P 7.066597186392943 4.200711734062822 6.395578928092165 -0.9057469361062143 0.49186077650474 -0.7844870261517523
P 2.685510690383958 8.985650033183939 10.54152982457545 0.016440404944210396 -0.8169865414413543 0.898578443382233
