# total energy = -340861.58964352595 ev
CRYSTAL
PRIMVEC
9.33882239049637 0.00000000000000 0.00000000000000
0.00000000000000 9.33882239049637 0.00000000000000
0.00000000000000 0.00000000000000 13.66831055112768
PRIMCOORD
 96 1
Ni 3.6655065220807783 4.788471915277876 12.636188935871653 0.023360271992495255 1.1236913806686197 -0.5963300972644245
Ni 7.086588041989796 7.675017911009031 13.173613891741407 0.49520552460725675 0.8685045068149883 0.034795767522946525
Ni 6.423653046797547 0.9980679806328095 0.48716995016972675 -0.5423855247271692 -0.4672920860264404 -0.25684574961329315
Ni 5.005132598057261 7.5247282399759 1.7690755657128239 -1.1169895431684118 1.0487023287562391 -1.3490825113170573
Ni 8.358535671065322 0.6326099706611623 1.9116364272171524 0.04975804525973366 0.7677164915616327 0.8603561666762408
Ni 8.732648901761104 3.877609859463769 3.189541291186858 -0.24682384660091686 0.6086400249800291 -0.2706142641522952
Ni 4.481215315100094 2.9355748140325244 0.3903422364946624 -0.3626057641599433 -1.8205351564790904 1.8408373583715523
Ni 1.1636826594435685 8.80601469158502 4.441654195083283 1.1327591472978427 -0.07684718816704185 -0.37012264136227874
Ni 9.034713116610208 2.7774498708937077 0.7811495463514976 -0.5552412976439147 1.2181318564373924 0.2664444490453218
Ni 5.385792343349093 6.338837860547445 13.52762250528687 1.7133996017411526 -2.974674569224922 -0.1455419224302784
Ni 1.254801550903847 9.184479813581458 7.008973087913095 0.6379721982852432 -1.5194880297582347 -0.6720238885533136
Ni 4.759923134792679 2.403047136699384 4.234811416433466 -0.18423831055921175 -0.3308549541109076 0.27097807524961715
Ni 3.7236500311749356 0.3317504639188925 0.8370498702730855 0.4487554606748336 -0.6017456118530411 -0.7352766258653723
Ni 9.22239543306785 5.47303562345793 10.64548163214481 0.3689273355025969 0.25988582199119753 0.18307720037157502
Ni 3.3810553265300336 2.5750775865907225 9.97618596492493 0.47953233684637414 0.5242744169487552 -0.8121137867300853
Ni 0.9176709913233506 1.15191574305124 13.424932812707468 -1.8398726804654377 0.20177966187708474 -0.00825735491278578
Ni 7.808105470935282 1.8377868863859963 4.037045039404049 -0.800296482380183 0.8830548938253372 0.26388748695142294
Ni 8.691539404968223 6.904424969649509 7.526073030420738 1.7905735771199938 -1.2266959439573195 0.6124110619866872
Ni -0.28863031863452815 6.357394100921697 13.107705151710567 2.7017406558005144 -0.16869959149366429 -1.472309315189903
Ni 1.909107474075055 1.9939973709054262 6.99853041655603 -0.3543142135751124 1.5103359309453215 -0.22749403592405334
Ni 3.6958296788473586 7.419152851233618 12.904361629864088 -2.315559675423793 1.0138461403090022 -0.7617507608965011
Ni 7.390053080218939 8.744051604074624 7.578149106514819 -0.6433969688452403 1.2217797376026247 -0.10919243726696677
Ni 3.8851182727807787 6.091956748049349 9.058330998797667 0.8457777546414337 -1.246837451902201 -1.2620758661185103
Ni 4.120241807709079 1.9332856856145304 7.422890248011563 1.0036350041039555 -0.17862867768191817 0.07885444840505774
P 7.837354663110499 3.771530174304673 5.440985718404887 0.5660363313768896 0.041042005542974484 -0.7511979250813192
P 0.9841157797676199 4.463789072252408 -0.0898394727731759 -0.05261376954097391 -0.3693651943709639 0.4864699445064719
P 7.024895780332874 6.339687693398003 8.836727277251251 0.5510786816257929 -0.21997175940507924 0.2708623756073593
P 4.888742852821077 5.635689895525539 5.371659903209005 0.2987225923527372 1.3093787649695323 -0.4403536097643836
P 1.0752346712278982 5.3043297943885515 8.09723074716409 -0.6353021076522478 1.1220137358558806 0.7600939420193683
P 4.92564987947384 1.5821086030612552 2.1611099968505734 -0.2824739917043587 1.2856266568552568 -0.9011451756681448
P 7.853893717817495 1.9031773217662227 12.685860265163333 1.9018172404890339 2.2683719619943963 2.192339813529482
P 5.293888990795992 4.869813059545481 1.3987193433223066 1.420485388540076 -1.0288788662724087 -0.3981841754851852
Ni 1.6884124199611579 8.484282916480167 1.8272209425714878 0.49371505610465943 0.3354759978226868 0.4768061961644627
Ni 9.205977783053791 6.342069093144069 3.298053739615955 -0.1340730025587304 0.4197212782260126 -0.3942830406585661
Ni 1.23820646326165 4.755627276427226 5.899734829958128 -0.08060434121662893 0.4436798459241391 0.12893876665595858
Ni 8.909236697048836 2.902767530472008 7.5115427564407184 1.1721366206542008 -0.08531100266367887 -2.032013276590862
Ni 6.674204316551345 2.3006002535058565 7.6646826361111025 0.2792747680407706 -1.9270042812776231 0.4963344960053775
Ni 8.859638210572918 7.97873509744658 0.9461413256992659 0.6237622253334484 -0.1490892734619045 0.8467254632666836
Ni 6.177238875426132 0.2147536952180248 3.287392539811604 1.060676984619612 0.5892577637986754 -1.3603902230203926
Ni 0.41414876289730057 2.6704736587713866 5.103227589950134 0.8984030941466333 -1.2135416659635487 -0.5475467572131345
Ni 7.8779972187767004 5.166796954936309 0.880159742852663 -1.246071520270454 -1.0613655260462043 1.3866666402184182
Ni 4.554478377876141 4.851452934444435 3.392283392862174 -1.5936589566446941 0.05474701383389281 0.5377223149235448
Ni 8.261085057927268 8.983162816224768 4.465751158866716 -0.8815276585475333 -1.1737204202015528 0.7178306624747831
Ni 1.774170827287153 4.552283754580746 3.2238483896462693 -0.16187871191708894 0.08992433306597417 1.7096383349265072
Ni 7.099008675959476 6.633897958496353 5.710442500495693 -0.4809418155993911 -0.19809244283348465 -0.03569359674686757
Ni 8.299402246782604 1.6535132401531163 9.417411526861123 -0.22083230763316158 -0.03525522365786832 1.080591978375984
Ni 6.153817108511878 2.517671844476719 10.223185680469204 -1.050659966703242 -0.2559564050298043 0.034211098664070114
Ni 1.0465364695821633 7.180938166046698 9.480737148579173 0.0625215155729891 -1.6607238686139916 -0.4930571108056863
Ni 2.9671587118411398 4.51020302024437 7.671394447865996 1.038772728347353 -2.5824008456869008 -0.5263253859405129
Ni 7.966996197521853 3.5939337861833125 11.413299075447348 0.7698600202671967 -0.5909127829035952 0.1698329337671591
Ni 1.062309740841404 1.8390569662505651 11.263330659909373 0.15244096354295683 2.7254865932672026 -2.0044610780042063
Ni 2.7533463699345013 6.761914537786861 7.128187826965691 -0.14809965585512558 1.5777042330876507 0.7938543262992651
Ni 6.069580929258858 4.00059281340867 12.906917665591532 1.232536719008813 0.3872611008147782 -0.6696427899156467
Ni 4.710203243623824 0.5622064553449025 10.697147733929665 0.4777094247050224 1.7062483354083517 -0.8666535696491784
Ni 5.4516870751461335 7.7980662367116675 10.971129175537998 -0.17784269144551304 -1.5623874002249223 1.3016824247665388
Ni 2.3864987431698554 2.8569512671221955 12.907546168348043 -1.3540403695429648 0.2709827032353075 0.4611926579969218
P 0.8457069587617274 2.803972126889115 9.291171191616504 1.327427909161759 -0.03618570589193768 0.26951331777863263
P 4.206756659660296 2.6847994125379206 11.916210544879704 2.0552228819381058 -0.49837929434954814 -1.0000508862971227
P 2.7899545542661905 3.119727055572468 5.13850592595304 -0.741985919564748 0.3160927082000686 0.6300274895168698
P 5.248623717975662 3.683184913136872 8.463185582494525 -1.181101286046656 -0.9968663179215542 0.5426588329932139
P -0.04260184063374988 6.739090455514757 5.4110790731233065 0.8391543357876451 0.6887234606961816 -0.7969550767117758
P 5.977490800255086 0.6718199509507107 5.305108652187853 0.019886711621598007 1.3210340898202733 1.1527677292092857
P 7.015809106007686 7.955985725754745 2.1718533782932203 2.1919096679705996 -0.9373277962362889 0.010912018926813465
P 3.6782726924842017 8.93411532027833 7.778252990824395 -1.110693682857371 0.6150256167913989 -0.21562865194503508
Ni 7.77663363899707 7.509823479212284 10.793550531179454 0.9694313616390532 -0.4338610600615044 -1.1646225716653427
Ni 3.0771046695291444 4.508353933382719 1.4116087861831732 -0.24365341929273523 0.09320480358945885 -0.6572549577742552
Ni 1.6937542264503735 6.860495148451482 11.832451579458148 -0.62053446242477 0.32199004752111 -1.8234464165886146
Ni 5.795393099672532 3.6545053891362045 6.140256204310845 -0.6685241029301713 0.21142078451127458 -1.541290984565939
Ni 2.371547288293571 4.661277152370324 10.438488498452202 -1.321207125063028 0.0434398163511897 -0.42147991278833224
Ni 2.1754600315556942 0.735477100868702 9.272554248895784 -0.22508105560718655 0.40438336231736166 -0.7205691444518687
Ni 7.92749297820475 4.1778810203864225 9.134750583590069 -0.5460429189740983 0.7800351610279856 -0.5566104100772995
Ni 2.010909978513765 6.3099902377411725 0.3629617427084176 -0.7079799949329485 0.7118916712825288 2.088362859025184
Ni 2.417046031677242 6.717443064881886 4.9353949407876465 0.2856462187847532 -0.035369380638229406 -2.2803209068261565
Ni 9.401299256343915 9.031397834610782 8.98694130382186 -1.3183711982761295 0.0872249318569401 -0.07852406164883251
Ni 5.201892250017557 8.276531470397831 6.169219628516534 1.9881816241178922 -1.9796540462628551 1.5994637362519293
Ni 6.016209558479367 4.933214325726053 10.477908602248757 -0.6635137941997734 1.2365851780465738 -0.21289274107111078
Ni 3.4389933815284515 -0.134037318177917 5.45740150065444 -2.6268109963711597 1.0459792733981212 1.2230871435601387
Ni 2.1214629596664527 1.8412515895459598 1.4544991964332112 0.2591980518955536 1.348273899372833 2.0898057621192976
Ni 6.839968416522642 5.48940657935932 3.5398190451301477 0.9057389656864143 -0.4409807018254212 -0.5507017579023483
Ni 0.15356853162467587 9.269845990361041 11.441838517110012 -0.8074058397314546 -2.4576609476036384 -0.0401230932731309
Ni 5.3578786027961804 7.426035563440877 3.969195692050727 -0.410618544593796 -0.9898400072023921 1.5083081018820153
Ni 3.109715837816455 8.079958594888208 9.820735660559734 0.6135492893561885 0.5784228779667007 0.6811770158074915
Ni 3.916842252927398 0.16407097144595587 3.3487364633880246 -2.0576368906962372 -0.938857602617254 -1.1484390199269445
Ni 5.453956409021797 7.849756619435112 8.584068235251621 -0.43500622940954115 0.32720450184251393 0.2717879727454222
Ni 2.8808119586955283 0.25402998114756176 11.802354422196883 -1.8117301565929507 0.37387388087459483 1.3145842204298714
Ni 7.048102754328855 0.35158705686249986 11.810855552349212 -1.1510564029451336 -1.759514393821344 -1.2548562084416193
Ni 6.647747432313673 2.9264694620622698 1.8448395651633667 0.0928258229834853 1.3129777951747001 0.6143512164321935
Ni 5.422335155923046 5.55264908555682 7.441985338446003 0.4668647686810347 1.437948064101214 0.11736314600321722
P 3.7796923051990343 6.3105225506255875 10.99707149065407 -0.38242974086440584 -0.40086017965545157 2.776340956914909
P 3.1014696575192913 6.7911263746719435 2.5121124434224704 -1.432444103563849 -0.6779024588212778 0.675757901674449
P 6.590593838408076 0.18444454668524488 9.68177024573084 0.46272863502547407 -0.039427866978319195 -1.1044327895493236
P 8.711094899353569 0.7865109643680341 6.568798894379174 0.5459213057945694 0.5774977950492699 -0.5077311678780934
P 5.187230298639814 8.770583198892565 13.162897592884109 1.323557113352443 1.2971768235867014 -0.6377330856912435
P 1.466409930692557 8.608321157371366 13.182648268660408 0.5923351171724186 -3.421280073436288 0.5817678831795334
P 0.7883077538234976 1.2222650931968047 3.05011080299579 -0.3701938609198463 -0.04454539071054264 0.7546041225493907
P 7.43329182854948 5.636605100133831 12.078426826170487 -1.3345614348827468 -0.19288313071840332 0.017565262577272978
