# total energy = -381164.7961391208 ev
CRYSTAL
PRIMVEC
9.26978605500702 0.00000000000000 0.00000000000000
0.00000000000000 9.26978605500702 0.00000000000000
0.00000000000000 0.00000000000000 13.56726889584510
PRIMCOORD
 96 1
Ni 2.650676788571917 9.049267134054373 13.02586724041358 -0.49472138588198666 -0.8097954230095538 -0.2691063121482011
Ni 4.984771843110694 0.47013295942956534 7.334289040742437 -0.2588206139514768 0.3040617451774634 -0.5043247132997056
Ni 5.56658996610759 3.0288284417151554 0.3759065109558754 -0.9417302961793587 -2.4011162184393746 1.630075290490199
Ni 5.651454857624145 5.650490799872347 3.7556640250478392 -1.1388508620178774 0.09243321553075694 0.22604521929266874
Ni 8.631876476455691 8.322552984919271 1.3848114877858944 -0.3661328034765952 -0.2061983597700707 -0.5367069862851531
Ni 4.41404038425949 7.896597044987296 0.514895829407096 0.22048263760322676 -1.5070863136597723 0.08140292585852432
Ni 1.5271138277803173 3.267423465499384 5.479345520505586 -1.11658587997209 3.4826443354763827 -0.44093879284389226
Ni 2.577575255584527 6.256447445808522 6.810131768067816 -1.6244977964024216 -0.27594518944690544 0.6860875657352313
Ni 3.954240455367718 4.130783531165949 9.96057331423662 -0.9596871377680957 -0.4544561106040366 1.5176743735882636
Ni 8.708556146868029 2.978827215626647 6.801502524210606 0.3577828888500032 -0.7696368485127971 0.5393878755514259
Ni 0.40421272971447214 0.3008036311548947 13.035228797370715 -0.9351978943774798 -0.00808791921445704 -0.5101287215759923
Ni 0.7828899797281628 7.6690237968462345 5.902128412664089 -1.3712788449084383 -0.953699552726093 1.1320096707263279
Ni 1.117111189683405 4.331085068674383 2.4261672047286393 0.810773727762423 0.31173314567979216 -1.781540520383448
Ni 5.623033693518219 5.900728674966765 10.265402813483883 -0.24319473448876183 -0.06984376026601519 0.05993112913799356
Ni 4.322807149709415 7.4840359459336865 11.589350739858594 0.3558172804832001 0.589412801319301 0.5378179599611447
Ni 6.0416850420231 0.25132336704380054 1.6261318286761708 -0.10017455003907265 0.27566313943011234 0.38271384776372797
Ni 5.699147906979982 4.917176563051851 1.4103043264707311 -0.8856928456688166 1.834926906424388 0.6944557351942686
Ni 2.0172074175651638 8.133644014497001 4.0018695431996365 0.5520559579373977 0.32918785082112983 0.005961102679441346
Ni 4.569809869463661 7.2691066859989135 7.446232831341261 0.5179829275130886 2.1000163841037125 -0.6941358899610045
Ni 5.196521566421745 2.757965292603879 5.0488149411456025 0.385379310411033 -0.31443846042609713 0.7035091036457884
Ni 1.5095197738099817 4.14088759798769 13.433821255787919 1.2042826092591261 1.0173137871426285 0.0392193505119389
Ni 7.054297933283116 1.3355907776849003 6.507377773922743 -1.2986184411292345 0.5066731589272242 -0.0892213934616786
Ni 6.709461891293399 2.0601450666645285 9.232296279169274 0.9051828360726283 -3.354647363908403 1.5355792788931426
Ni 6.983495307242324 8.825976527079957 8.744634154271898 0.26355350065077193 1.4699187034705392 -0.7638778345418328
P 0.9288232949281601 2.0347736621772743 11.708879069423974 0.26002569000317155 -0.2076911422655133 -0.075577834536315
Ni 9.115796388714593 7.1123175243264924 3.49735680117514 0.49242204832484876 1.1084416535984007 -0.46239104918039725
P 6.374785534841875 7.30976396772383 1.4678696979964336 0.21086362645622395 -0.697897928106598 0.385401164787904
Ni 2.8114241488983596 9.425796574634486 8.376065605972988 -0.10943257830223088 -0.2856225646356694 0.6772172598287951
P 2.6064320996359784 8.517116524847285 6.477421533242798 1.322421199975787 0.36257285403947875 -0.8476040092168949
P 0.7267530822366165 6.722810383241388 10.813845998696378 0.011274801582870905 -0.1490584202239691 0.07716189119398324
P 3.301573357399656 5.205114658113263 5.151003208879103 0.8876988203552518 -0.7989134859897273 -1.316680697947584
Ni 2.548468127309051 5.904640524690413 11.57844298258415 0.20853652098494407 -0.45997884019447877 0.45389303901171507
Ni 1.2832813748637182 5.7213953935599635 4.407300322804363 1.5976102279829583 -0.8493860408179823 0.6274715558642355
Ni 1.555664768891294 8.625980892511997 10.979787220160636 0.44423777531013814 0.7538232785193083 -0.7066533057017249
Ni 8.398834054530383 8.99565996118269 5.047498631522953 -0.49487539496134764 0.2802566723380657 -0.7339172836240004
Ni 3.3718290660620234 6.168783078897319 2.980511535756473 -1.3600402958801414 0.23905782950225277 -0.979248604839791
Ni 9.004392099665335 3.012485808864944 9.208960519704089 0.09567897616156426 0.9373733047622438 -0.37795010782649746
Ni 1.9488705546203202 2.3002881447232806 3.4392890072441724 1.0331695232279627 0.00847949822592088 -0.8658884093483797
Ni 2.264905371275035 2.025262861664332 9.822282010676846 0.2670077777479595 -0.3995329762035958 0.898306163557453
Ni 4.128642210582624 7.3437470034747525 4.954983385558707 0.5772735948536057 -0.5935311943630488 0.8303544781078281
Ni 7.60859406142336 1.4589438209848236 0.40577654262532337 0.27125215484661025 -1.2473719842494324 -1.284277084805898
Ni 8.028598798695189 0.7938959967350011 2.8883902557004135 -0.4699331231937133 0.04047327752369804 -0.5708106128370815
Ni 7.598063584442168 5.465521488531949 2.653106399502173 -0.38950773075710987 2.4213258606180297 -2.863225731823611
Ni 8.940133942593487 0.3977850600500724 7.289788505710829 0.6998527378401238 0.20154132061403357 0.0694318695395772
Ni 6.15671381742768 0.32153921562604515 4.550163484856323 -0.4122239414077029 2.1390899530664065 -1.8536908172954525
Ni 5.047111154465019 1.963544625977033 11.117888493105873 0.7193303869487612 0.8300024940850479 -1.0732399088862872
Ni 7.123719361198733 4.005595070223176 10.495286092314835 -3.713623758845875 -3.0577266006510953 0.784316819122475
Ni 6.627776536400567 8.228056785670798 13.115316041144219 1.4510630042166173 -0.7384552807036702 -0.9200582105225639
Ni 4.14684807043391 3.7493596435382375 12.310628159460713 0.11533994492560137 3.110323915131837 -0.8097249747829345
Ni 6.473082346381094 3.2538988476159703 3.318336838537672 0.6196680006594167 0.17157871281367226 -1.0863592198770646
Ni 4.283883317980522 8.270660722471463 2.745770889022226 0.12513070576377805 1.2776040436610965 1.1339120299553633
Ni 7.9599560328098695 6.067501396241953 12.426953777937182 -0.3082459584621401 0.28933832292435974 0.4978169940881749
Ni 6.739755552186475 5.876831166465435 8.047059577663536 0.8490129737492796 1.1966330631336681 0.07355874722375719
Ni 4.279647025744251 5.278624061687952 8.125341994088238 0.753941035044095 -2.4019142888606377 -0.4425637300418249
Ni 3.4815462540456332 5.834950272978619 0.40565325447052597 -1.3825171368264189 -1.2316633152649241 0.18113421771259128
Ni 3.6597208121930613 3.9320671270763365 3.31166166558507 0.9863273660634432 0.4521984249181116 3.0882088284003526
P 8.161073311492904 7.639620035416359 7.501084936482812 0.23942806835747793 -1.5604760421348223 -1.2848344999712646
Ni 4.4406354005086435 2.5179519915501762 8.340003357205445 -1.8979562148717313 -0.8997675785943278 0.1761892150024901
P 3.7718574143422434 0.7748549291583594 0.9940399478801613 -0.6972332979394057 0.9128336677496666 3.7354159150203023
Ni 0.897346809331916 5.508153234690838 8.756492064619028 1.6814922115095943 -0.7416449912855614 -1.8584846391396703
P 7.071882717467377 3.64219164672525 5.675514587381788 -0.5548967698203023 0.8692663246816771 -0.2451071210201263
P 3.652963138144391 0.41696517441783915 10.633536608815877 -0.8865968455403247 -0.45235860464505967 0.7538420475723855
P 9.166316722823302 2.0612018222770776 3.988966927961855 0.7440669704634927 0.6582247778866922 0.3647845169788169
Ni 4.834527150407219 8.454109788895563 9.437459819474043 0.871229876165951 0.13138105754886403 0.45290779228031025
Ni 8.786125716743564 3.570879182450334 12.464982148331233 -0.78818170139452 0.012357236013772267 -0.5253205988250824
Ni 4.877742893088834 0.47769617788815155 12.936431417383446 2.1261984418157187 1.73278623379788 -2.897360982944423
Ni 8.566079534895396 5.329960136971261 10.238892152288013 0.9434871309694655 2.46798264124462 -0.26390471334260357
Ni 6.277934809930355 3.5821048933871498 7.941587024723664 0.9691277143557051 2.597511476076094 -2.6423530578708174
Ni 3.377706110433568 3.3869758965085603 1.305197003102215 -0.11326943554981783 1.006921131054395 0.31560908369543067
Ni 9.367675015944284 5.067291478750277 6.295456559569305 0.29615483162556094 1.1555866867153195 1.0412697837375937
Ni 1.1918627445921435 1.071040352890693 5.435916572744246 0.251418922170767 -2.398383135778928 -0.37085334888071614
Ni 3.201255732496089 6.826418782201578 9.369406611983093 -1.513878396880941 0.04364781859693773 0.8992754694492576
Ni 4.522589579197651 1.7494867259333093 2.9384804717352426 -0.21452436313726278 -0.6326474436382201 -0.943434166244343
Ni 7.59526410904752 6.171758680227392 5.283894862050193 -0.10973056915862392 0.2646022536302604 0.034051690268070395
Ni 0.9390293293967267 7.168853949597871 13.345349490509586 0.1223289746489248 -0.9283348487090594 -0.24689969414417476
Ni 0.7091581012876735 2.021313932796385 0.9067843785348658 -0.2725240795804984 1.814684097014952 0.12630364302595667
Ni 3.366285733989178 2.2577676359972907 6.033934573885799 0.18672739552965262 -0.6277937150903447 1.6478195018474977
Ni 7.101017655101077 7.710895420546975 10.667441778363768 0.06129201404126219 -0.5913359864839428 0.9844684584778335
Ni 1.434897995906293 0.4369758616179252 2.2968027051590836 -0.047672109264982415 -1.357947932127487 -0.4789240138384139
Ni 6.277119068755755 8.182792420266612 6.176987766552296 1.3340996647549797 -1.8346651681225692 0.9047511478518483
Ni 2.905308542265882 2.231459983116462 13.19958210448033 -1.9237474649032225 -2.931967260164383 -2.304301071790838
Ni 1.5435676980634288 2.0160394245197146 7.535098562527782 -0.4240296757933794 0.007132240169407072 1.0496896323701728
Ni 7.810415843848093 0.5780573707862714 11.505898563739867 -0.48707286819779333 0.7440736553317121 0.22374485329426627
Ni 7.798958388259403 3.4600774294959504 1.3409996978596581 0.9102250264822259 1.0380857295826573 0.1795686729976843
Ni 6.899399807969993 7.7399283905338505 3.4359518842571752 -0.46223061234313295 0.1999832320982943 0.4798349556884575
Ni 5.407872688931572 5.149570099951909 6.017395421570797 -0.23931776803185884 -0.05192342834216864 0.24759980553499294
Ni 0.7555589424646553 7.920958042792377 8.69374302872019 0.24231027500127947 -0.39468773229615256 -0.03173049833406148
Ni 3.9577537042901407 0.4220858042456649 4.8298523972896 -1.6372280994848967 -0.08456229742311244 0.5035050456118877
P 5.388758390044937 5.977028284150028 13.0591207440004 0.4213948092736936 0.10828380940976835 -1.5930118099789985
Ni 8.702020947685158 4.25565681938217 3.8554783005675346 0.6419882614231718 -2.5809000927716585 3.7637345594593374
P 1.6657712878900532 7.569401405898292 1.8696240804438178 -0.09653643906585309 -0.5967098492013465 0.32775240392618393
Ni -0.14161174093183587 0.8018439113156997 9.559226802376536 0.5051299828098204 -0.27787531659008274 0.8929531267756556
P 9.090035653212189 5.273970629078306 0.6746985985324968 -0.2904122727148289 -0.33758661640778637 0.04766362462455017
P 6.760547682352683 2.860980425255269 12.370323727826447 0.7266490320973614 -1.077558590866299 -1.7702451499752867
P 2.5320049872398647 3.832509624630919 8.051916018588225 -0.05310099359003758 0.7079121178094905 0.8363513191212112
Ni 1.3332362520218521 4.06228908185783 10.685038613269928 0.238542323318415 -0.004532340652714775 0.7774661147492288
