# total energy = -381175.8359534763 ev
CRYSTAL
PRIMVEC
9.14991912983933 0.00000000000000 0.00000000000000
0.00000000000000 9.14991912983933 0.00000000000000
0.00000000000000 0.00000000000000 13.39183153452779
PRIMCOORD
 96 1
Ni 3.8992013695877588 8.88359227899163 9.351033274443877 -0.9667363313053929 -2.1393519484785415 1.1956933249282182
Ni 4.577649561409794 6.619005633639496 0.060317180845202024 0.5082705853213312 -0.02467307726664783 -0.7129098281343981
Ni 6.984682145294128 7.464686894484719 9.755788175029467 0.44159493837065233 -0.34449748459500673 -0.5000163157323388
Ni 8.636681715573634 3.8844608501263393 8.863838518926295 -1.2819206687585794 -0.7440332890120799 -0.40359120543336946
Ni 0.5117906527020897 2.189776907849614 7.492715841266944 0.43501034317459925 -1.3805463862532934 0.37539160307070185
Ni 3.2873554379517373 8.956590332538001 0.6640663491842586 0.49973735103933936 -2.0870582812811476 -0.5830698898204087
Ni 5.690416957002889 5.827967688885889 8.143719766128967 0.7204053651804948 0.4631361548765378 0.1552432088784423
Ni 8.65784547815232 5.404280690958509 3.0386331905775883 0.1617172466385602 1.4161237691372708 -0.26105001750262785
Ni 0.46247990938645994 4.38433007340181 6.769436706457219 0.11432590183879021 0.8973795379781254 -0.21191623609045437
Ni 7.519421709766041 2.0934831606044404 5.6821134055371925 0.6952165246196931 1.3008496444525983 1.3901255453012964
Ni 6.646354741442216 7.078578613769039 11.985943675295744 0.31188252677346284 -1.0466140787686427 0.6811001398229689
Ni 3.8461501393970026 0.33680485733522675 3.016175629456479 0.298038421801519 -1.4436019199528813 2.3647435933476117
Ni 4.93631723513305 0.8800053518791286 7.7424198749466235 1.1128757781103544 0.27151543581032594 -2.772878452287605
Ni 6.7641507982679805 8.730175587613845 6.018570565951541 -1.3583389969183186 -0.9609523776337644 0.7086099152074635
Ni 2.468968385395411 3.088143402126774 6.082101198339171 -0.16233456850758496 0.7616669429334431 -0.18436069506968894
Ni 8.018595539199756 0.5065788588565129 4.348488010810705 0.37349130072419545 -1.7443960501226667 -1.8215587126475983
Ni 8.250454485911337 1.3570610821855393 10.014839765929374 0.52758342671733 0.23195798523267794 -0.16127064601944482
Ni 2.0277684425585614 5.392239397593377 10.301223994777853 0.49754959935940113 -1.4369677024658156 1.0124795989787787
Ni 5.64123614253664 3.463280929996867 5.451721190836575 -0.769498780273036 0.691549360180751 0.17493683065262777
Ni 2.6291651667303113 7.4545670841033855 12.115670311467097 0.5334373143949458 -2.4363123067245334 1.383712442686101
Ni 8.860781530998262 8.421191973900214 11.193468278271878 -1.0165164880523139 1.9134247428209754 -0.5905083483763249
Ni 5.837016958747679 4.61261140179594 0.985947688678657 -1.567007672605753 0.061872054914448284 1.809279381059613
Ni 6.624660283563243 0.8971184453295892 2.244792625643328 -0.9111465098552307 -1.0609101836763408 2.3822888013202266
Ni 4.572077260756781 6.48625860921599 10.772964537154321 -0.1281556086330309 -0.36425178440379846 -0.045272241574238155
P 4.2651798285684155 3.0373522019217236 7.426787930109053 1.0578292307581718 1.1983515884866716 -1.0283448481458095
Ni 1.2616457271615307 3.97538359493585 2.163075614310003 0.3973169423888835 0.14591961748467128 0.058258369421260954
P 6.028369214177012 8.202655309209629 8.045424016613056 0.3148549791382255 -0.4478447759351061 -0.34060817684292954
Ni 0.9410966158692319 1.3812534679434487 5.207734941521539 0.19194673494706296 -0.7708470667708143 0.5271417111942213
P 7.239333540161137 3.9234852545353727 7.044531765279938 0.48849468824598447 0.246710203841188 0.5517854778848303
P 5.9145808218603095 5.018373708460179 3.5217836819102257 -0.16884717281512213 0.05849773912557667 -0.009105561845693997
P 2.2553818268678474 4.4170684834781335 4.1717024263823514 -0.4062589820735196 0.8552592117693077 0.6512609449743494
Ni 1.09986600984474 4.320536838339729 13.052951411125646 0.6559277543223994 -0.3173774884497631 -1.3290518179184272
Ni 8.402013743738118 0.9631753703449638 0.8717466350163869 1.0557486940800591 -0.33037107249595365 -1.987775904039041
Ni 5.546818128680412 1.0277920981143873 4.742248368761385 1.2863074849723652 1.609532433341841 -0.9669489615368316
Ni 8.511858520978551 8.190037570949357 2.357297284328474 -0.5364321353572117 -0.17910818842149798 0.3830339501073081
Ni 0.9991711515747731 2.7555987470641963 10.089017244031037 0.6319784425956535 1.1344097955273882 -1.0058027011792356
Ni 9.122121516632681 8.369293633499737 8.612380445779976 -0.33808900996550156 0.1557718276884027 0.5234179824857308
Ni 0.33130118107449213 6.498757398529645 11.872487425037669 0.2803769999660139 -1.5993084416209875 0.8538918991081359
Ni 2.794010106902208 0.4477970344145548 11.822281819646728 -0.42332519352718706 2.2316293551577244 -1.3886623304922083
Ni 6.738174178310832 4.833353196958408 10.076107623355608 -0.5221622557017588 2.570798485561282 -0.6629548363725098
Ni 3.9747248007699763 6.189773784816014 4.544464635287711 0.5268447487790926 0.7207655767333909 -0.729259473137015
Ni 4.0740288713564325 5.102251015662431 6.63395202627775 -0.7183166009722661 -1.362509069135608 0.19664362620210005
Ni 0.6252112182761791 6.692168385727333 0.9856658711743668 -1.6515586571749556 -0.3470457049381571 -1.3120732810825597
Ni 0.15417155969284924 3.4054534421035285 4.346626917292112 1.5799840302607628 0.08828165525622861 0.47139325267900756
Ni 4.825813663726744 1.6341023287732772 12.718824735073076 -0.1852500396531777 0.3583480173248538 1.5172401142643224
Ni 3.769629367047004 4.735952309517808 2.640574200694584 0.9809511893531946 -0.5620773467291417 0.27669106647399444
Ni 6.648504972400275 2.545663006205848 0.751824137021885 0.16982702022988816 0.46021820989879453 -1.5839869807725688
Ni 3.400128189262718 0.9676496807215212 5.58958942490785 -0.23161422874001403 -0.028642089216724866 0.2826840508326357
Ni 4.375427202243547 4.296911747557988 9.72378175847078 0.30569131036108643 -0.7556839858771308 0.3591399170985298
Ni 6.651744043715819 2.988830181621348 11.191619994639842 0.6900288097711665 -2.2466625953417627 0.6983175321425199
Ni 1.7839231019956703 7.583617541262823 10.066947639474275 -0.1422192858149486 2.27452486896967 -1.337497120472303
Ni 7.990889584557189 5.050105627449752 13.357601623214865 -0.43999262688053903 -0.012998983362829227 -0.8803058703252903
Ni 1.9324720364811687 6.051061013223766 5.610748612527051 -1.0003195665774771 -0.7815986488603636 -0.8515992464192174
Ni 1.6219695362184405 6.627560807876881 7.766552786231226 0.1075556729944922 -0.22934831552397275 0.7837115814383083
Ni 5.366985621234894 4.51401187497021 12.219336148426775 -1.2010733582932087 0.8300893973718996 -0.6172683900789885
Ni 5.121182198012323 2.6958680760250004 3.0502307128726525 -0.3745937897597549 0.018421697040297304 -0.6919540518183374
P 3.6656679877045812 6.508529511990101 8.822873416703626 -1.4594519996112607 -0.6453306955328434 0.41863215892689193
Ni 1.9663541864288006 8.333746198299481 4.999826822707046 0.0014742705526813319 -0.13554573044951496 -0.4387890934907411
P 8.86014103667033 3.2293175019220786 0.8478598565520911 -1.4067639251889257 -1.5226062636722424 0.7193306440590773
Ni 1.7250616732586692 1.7470489285446964 0.9174889099335353 -0.3670838545359549 1.0750324820103356 -0.7036497429887107
P 3.084492584457559 5.230267531978207 12.266140728936394 1.0620376124125646 -0.15103405589310118 0.1359347383578175
P 1.3105062944638135 0.6939033199550478 9.56922681717307 -0.020219412370668405 -0.6725519931426417 0.0022381453018993714
P -0.30395207327177237 7.057286752324766 4.668459762215967 0.3478946832020138 -0.006801853413181834 -0.14746485048460412
Ni 2.7926010193807564 3.004540592493636 11.431347871666025 0.9539594912556992 0.4622491242858942 0.33558784081020265
Ni 7.426266384727737 3.4182267289862978 2.830363649963762 -0.2097721931642581 -0.17715440712923683 0.25026166863787225
Ni 3.066924740034266 1.7869151254990123 8.560889276773684 -2.1771787895183277 0.5470618471569159 1.648707560879406
Ni 7.549094896987258 0.897510061861525 7.794848910647388 -0.16395770593330475 0.35013488538644216 0.10079958521758123
Ni 7.104582683483101 0.9379856434192739 12.309101428486521 0.9009708548738097 -0.6125254760773644 -1.6500445345232744
Ni 5.958472983161631 8.751247851002825 0.34363801682237 -0.26479457214672464 -0.7780068177440471 1.5357592561144324
Ni 2.573799007040028 5.701753706607295 1.0384654785934346 0.7298423422236786 0.7373425072554656 -0.942958512159505
Ni 6.482488842600158 7.615989954580328 3.5116730214478618 -0.8345836856978271 0.9124999385593316 1.677686464610259
Ni 8.970232861722963 6.0675125675326615 9.383307783628398 0.0758755682823919 1.0790907112401091 0.19617131455137182
Ni 7.954079460539008 6.340399750907808 7.081413258666088 0.6761533373406549 0.6330837598446903 0.9498490686317512
Ni 6.096279912775803 0.5872445445001319 9.84833960541572 -0.12759716502639962 0.011999852674353526 0.5404543691427274
Ni 1.459860421818713 9.125561886165576 2.4420538987437883 1.8323943698105214 -0.5401751473394115 0.13317054534911904
Ni 2.4866826285222308 4.177249107262248 8.365341783496394 -1.3756134677280503 -0.09395505149192206 -1.0577150737778105
Ni 1.0518563850067102 8.769199992022878 -0.12033515934006984 -1.08545033490955 -0.6098309599643369 0.2721517838427442
Ni 4.191614480045877 7.228143189260259 2.303448181203494 -0.16424155572231067 -0.2119103225531834 0.1861517255318407
Ni 1.4745734915232205 6.913029129836416 2.994988992080368 0.9981958353662551 -1.0356020439288551 1.8847584852345347
Ni 3.467434993209458 3.481544168261915 0.35153988684526355 0.33824327615517874 0.16461513701164554 0.6897269622600315
Ni 6.075784094281961 6.484126678095872 5.682475742328423 -0.686658607747353 -0.8101636049822498 -0.20897669384615625
Ni 8.984598234506594 8.597712210678424 6.3257790953849025 1.3339677671628059 -0.40214598834641063 -0.5670300627487267
Ni 6.158115065178205 2.761829841883083 8.730067618569993 0.10294594213662271 0.9788714240060303 -0.32796194883382873
Ni 0.6312620596913476 1.541688147171581 11.936862594946271 -0.6039739869629276 -0.028993301908556517 1.2692299606647885
Ni 0.10199506175566989 1.6179801715473177 2.8005394890795317 -0.29607204210376753 1.8063542369930181 0.7188228511847233
Ni 4.906790446615359 8.646563628061736 11.620627670448549 0.14832874114679614 0.07502736134948369 0.15028355088032183
Ni 4.0326071881771375 7.4136943960623185 6.901761919616186 -0.05123128737115047 1.489160325308971 -0.23814560210062857
Ni 2.1427646241793648 9.042535521427578 7.386103730398778 -0.6930444566690387 0.1365353480562939 0.3531407620923015
P 7.958032225534248 7.66721120097699 13.539141505540272 0.916501346409241 0.6684161165973972 0.06731430897594214
Ni 2.5148094794374405 2.387772004451505 3.6668977368142115 0.39262802155364634 -0.884876006194476 -0.8072945109645709
P 4.6703382405806035 8.333828547570214 4.948522312047753 -0.6542092289693959 -1.4946668569494967 -0.7876402270687531
Ni 7.8575844150764835 4.915235821825099 5.206905043870918 -1.3301964730458316 0.3658926624413312 -0.6854321915394195
P 4.683047478030579 2.0665274993174507 10.694663190572669 -0.3514754585747366 0.17593519001015506 -1.4266879178063625
P 3.854073969225425 1.572111627748377 1.4760072838258924 1.0049467809368435 3.462655293948966 -0.9735091312528524
P 8.590932120721309 4.668188009622544 11.041805626360729 1.0289757968615891 -0.6126416899402546 0.8207208116728059
Ni 6.880309019598034 6.435696156985201 1.6785992997185453 0.02714030786021777 0.5131464253563937 -0.890198446848654
