# total energy = -340887.47050963424 ev
CRYSTAL
PRIMVEC
9.11633581222406 0.00000000000000 0.00000000000000

0.00000000000000 9.11633581222406 0.00000000000000

0.00000000000000 0.00000000000000 13.34267895453444

PRIMCOORD
 96 1
Ni 6.494960787787519 1.9168554627532348 11.661274889302524 1.1064680748117977 2.1673780013778225 -0.7708252123939434
Ni 4.853254572068127 0.4135543687418984 6.295343117734972 -0.7255360015388407 0.26288938470421175 -0.5817722540549077
Ni 2.6320684713939198 1.7180008300069216 4.591762507692206 0.27348258683902577 -1.3952330417311907 0.44642167033533436
Ni 3.3893442534033067 4.256708906500782 4.532761582412137 -0.32442385377358324 -0.2888086756731349 0.41326138153328185
Ni 5.182491039387299 4.1851274378204515 2.8879029377740424 -0.4187697129460208 -0.3596258555960129 -0.7483568560880982
Ni 6.947413649742878 5.865687476707898 2.6634651318797906 -0.20794876680227412 1.0944368546788765 0.17612827985756765
Ni 5.466428434129732 4.524738295276941 11.44775207225837 -0.7697448348455711 -0.06600047526052505 1.3724224715945783
Ni 5.804243373434154 7.840851023220607 12.456564879953037 -1.5020963166443486 0.6746991213926316 0.6394798931790212
Ni 1.920930464854624 6.296334063436137 0.41899590957930155 -0.5494038650265313 1.231371237945802 -0.7145347653323307
Ni 2.7313636008980158 1.9085504808419025 -0.05773740113856419 -0.03998965301906016 -0.11931744151611064 0.8435462942077537
Ni 0.34740988273107226 9.146966685570113 4.881285481377638 0.7333159025945758 0.8271508835688658 0.3331900300019875
Ni 8.65962560651852 2.4669898627765705 1.2479352072911947 0.04693188866484821 -0.7712970098240394 0.9562775978659145
Ni 7.0069159734917985 0.688807542003831 5.0793579325125435 -0.24490554653228144 0.7120644494149673 -0.5052086585665557
Ni 0.8086855344710511 7.869859203727588 2.7063219380964365 -0.1568635180906847 -2.9210462423765047 -0.14214935180896163
Ni 7.704762362438644 3.847321614851825 3.715001647288462 -0.007715366366386711 -0.16065666658452976 0.6091789282026346
Ni 7.648231964159641 3.9932559182948633 12.763926699526609 0.576810024953626 -1.1431800855208505 -1.2960679067932388
Ni 8.043962984784256 8.492696381734321 6.966505991803145 0.30769497105467647 0.276176331621105 0.43916087500786305
Ni 6.8995255377997085 0.8429100823212418 0.37210056660445584 -0.26355170087855906 -0.7889121518026413 0.6146890593875866
Ni 1.6866953328790233 6.437600802950962 9.607889535114738 1.6671755377766062 1.0475252777290023 -0.9577176727465505
Ni -0.3521740798187367 4.767898319998089 1.4935529961432927 2.0632943460923303 2.0918690724062294 0.5657722790822256
Ni 6.4451126636479295 2.1918861974217134 7.120907547934707 -0.2368816477865404 -0.9216342967604322 1.0116547890846384
Ni 3.45479042809206 4.410583538423261 0.2686110110000262 0.28669779997771916 -0.6677751405792887 0.704957920277173
Ni 5.609691651184163 5.2959620710561826 5.029002028469046 0.5328822132224241 1.3364830773854917 -0.13439978977052983
Ni 5.385019555459921 3.0446738295793203 9.442547464392847 0.9958908413821623 -0.49617277361653256 -0.6517152589029485
P -0.005480741081331479 5.680097112546643 12.687033141977196 0.4217079696387382 -0.14179711067586545 0.8291812837353332
P 4.094201104578269 6.19906276047904 12.684578112746985 0.6307983062446233 1.1527214493523825 -0.6124113190970034
P 2.388115325458407 8.540274538260384 1.2457655193714392 -0.3433266042153571 -0.1508705337320434 0.05658226727041868
P 6.149770732823086 7.82761410364294 5.952862437769495 1.1926365403797654 -0.6998889903946978 0.16841111371896803
P 4.732937172215478 1.1086649453159765 12.71996317014417 0.6877906644692672 -0.5846120374965481 -0.042319072483185186
P 3.643462113752799 6.379985560712082 8.215994622714199 0.3421102153097527 -0.9075150837502305 0.263415689521327
P 4.577822718624568 1.1624148611768057 3.8313771435423627 1.0352125217999204 -0.2083406029240541 0.27573050233293805
P 0.17603917914643255 5.94129836581063 3.6436854639798324 -1.9159955888719455 -1.1718077765598722 -1.9132205972299696
Ni 1.435968749446123 0.9166384480818345 2.561046745731543 0.6297721789729541 2.3803671588174815 0.484846807080752
Ni 1.714545738739748 6.497084894028288 4.877856827484277 1.617352443606892 1.0894376016920722 0.22440665524798126
Ni 5.972029533783299 5.561803539240992 9.484777066706638 0.2878419408844914 0.5081541143481247 -1.3551451725713692
Ni 8.731863451376256 2.1271237479177567 10.122757390106251 0.52704349505346 0.6865076839917854 0.7883639926086552
Ni 2.488249157855854 5.055208758985519 6.648710525909574 -0.43472109406895454 -0.09791275058808943 1.3437868101357566
Ni 0.6266696855759143 9.125999113236345 9.146045935654588 -0.3584125520142021 -1.3750280275382254 0.17344353393655293
Ni 1.4643752517904824 1.0132351421899322 11.418650905126256 -1.2904443899588742 1.0971185152760976 0.9033396122163022
Ni 4.270365177525124 7.229071960535988 1.3801530718936281 -0.003537066618981005 -2.5333786501519273 -0.7192059455557549
Ni 5.642729252113546 7.881327554160579 8.246936378043785 -0.8665802932090818 0.3291066039612332 -0.9665594394078965
Ni 5.4781885073082375 2.81380262551292 5.093380680235938 -0.5524236256894615 -0.07051661796332372 -1.0479294551459566
Ni 1.2700149725922338 7.338659433155225 7.339647643955652 -1.810617383144746 -1.2026203910653546 -1.057270015820592
Ni 5.072721240052116 4.599282573091391 7.346652636382291 -0.15090884316914654 0.5566019254368672 0.21369749636059326
Ni 8.300305231068288 6.881621054293827 9.487992398342344 0.30840999484383014 0.23482733636067302 -1.3347732937832366
Ni 5.03925517134026 0.637191760353148 10.53284390471086 -1.5210412331779675 -1.4336952023621308 -0.29110364235489866
Ni 7.8730408049208425 7.573496243293447 4.418922250777042 -0.16349105070953132 -1.3440544619748467 -0.043916498877292105
Ni 7.167828416649786 6.1804927844599575 7.169408277643456 0.16777116614212398 -0.6403800363957874 -0.041975058880205134
Ni 2.251516149871795 5.455333853464428 2.6148850900496057 -0.12471495838259812 0.14541670970632375 0.28394826225704
Ni 2.5658838735055856 5.174605408922642 11.4514879466681 0.4691718195476565 0.3508077430837507 0.5875266400401817
Ni 1.0878796996981526 3.3988617079756787 3.746170399379401 -0.10845658754220677 0.4683472667638321 -0.3223983387031222
Ni 3.7011047049990715 2.3160780399882115 2.1522939510540775 -0.28956946509855935 0.6684765375216875 0.8969061978861328
Ni 1.486929066552981 3.3500619624527785 8.420871506888203 -1.7166600176599793 -0.11181341982958162 -0.681866071454716
Ni 3.7275967768259997 2.6810323109611707 6.951669155293054 0.4865378216299298 -0.24785743007175376 0.5921535972892318
Ni 4.002882768896803 6.973294927071389 6.017174540285065 0.17357954529378491 0.4145045099117635 -0.2523121234089977
Ni 0.43991972350124436 7.408609077727841 11.566541574231394 0.9883569948989622 0.7590279626486992 0.004482718361701958
P 0.29105269483221796 5.339292015100708 8.106531132261804 0.2171592296569486 1.0803194414408879 -0.11257703746848355
P 8.501074294332032 1.314876461050704 7.936399338712016 1.0872791605881726 1.210852806277476 -1.4873261003137095
P 1.9104193296803471 3.2174192766021914 10.62832475931737 -0.5590179910775275 -0.9841648111944856 0.24778055408723135
P 4.2309826068808265 6.121710651239025 3.584097446674418 -0.8439620415889335 0.4773080755015457 -0.42621022838446593
P 7.259210566681833 3.8621447768582207 10.420325530132795 -0.4071100172199053 0.2939567955329776 0.14615435920329667
P 6.402211187385878 7.6598188269579985 10.216715816634615 0.5758921411250469 1.0523327264199747 0.881434841723411
P 2.3005529201254244 8.527611947837945 5.56369700218609 0.4603485648290717 0.5329593463172627 0.8379232915940213
P 6.799364356394869 3.9035785230569093 1.4677884079129884 0.05023035691046188 -1.0583802181656352 1.4050839663833414
Ni 5.2154374769587095 2.902641317857523 0.30032947813954153 0.8084527929387303 0.586777420578983 0.533911425817887
Ni 1.7074076478104692 1.1655782296984656 7.146405939159731 -1.5400923362721475 -0.23603806883932252 -1.1458108382754781
Ni 7.030180862446486 0.6909881695265431 9.237043376315988 -1.0599807298835358 -0.8546701720350571 0.21191495053887377
Ni 2.6842777265050066 1.1463336448303838 9.408256367291337 1.202755116871006 1.584796878268374 0.09908620207090031
Ni 6.482389360723054 1.8235588822037563 2.7489389846816135 -0.066732211220227 1.0056769742346487 -0.07793219370110449
Ni 4.225831877155357 7.34150372992398 10.27878621217763 -0.7909641492356636 -1.0372359799878523 0.33932468214481565
Ni 8.224384386548445 7.442202775140859 0.504655735631389 -0.2262542499796813 -0.4525226410267497 -0.19457337393663265
Ni 7.938286420222055 3.6229959398878804 8.333703838895243 0.2933600424892432 0.7438535689011061 -0.5389852407963686
Ni 3.23832303458538 8.683309846919883 12.60937837038871 0.36854012736650726 -1.2671085434464113 0.16681265888359656
Ni 0.3164052246844849 4.837866197242299 10.555980253330807 -1.5233984205562345 -1.1881931598964313 0.05687563014112141
Ni 8.576019690921562 2.5345419110344984 5.855902001863086 0.8903025765266861 -0.1555401712935708 0.6234184688407843
Ni 3.915566504630347 2.8740160234540286 11.280221169311549 -0.7137498075371901 -1.2114261622824427 0.5896539707958296
Ni 1.0233907402681146 3.6570636867623576 12.919516114212557 0.11850985801315075 0.1550280075438427 -0.9197509636947901
Ni 3.0371163872033655 8.530547407964674 7.876703748644195 2.013456853744913 -0.19100185453529042 0.30702391312958094
Ni 5.597284318164049 8.145500732894485 3.7533084903086795 -1.2895082512978502 -0.4316779363672565 1.6434519689074214
Ni 3.066744478544562 8.137915941511139 3.2745066829984086 0.8946757658937171 0.029083804739833782 1.8974651341679256
Ni 3.346570405842416 4.262351918359305 9.252747176360403 1.4211597888992815 1.4296559992957507 -0.29765352765827446
Ni 7.218806966428238 6.204459631271037 11.622914259901103 1.3692674709053645 -0.6384473381494489 -0.39575525432871844
Ni 0.5313246643727847 9.489376258116373 0.4125661579414721 0.2396088169097164 -0.7131394276467009 -1.0906853580562441
Ni 4.837702103197948 0.21528682802093072 1.812403222088611 0.28060942769179414 1.5377624025873904 -1.1868947527999816
Ni 6.0713064306158016 5.505756306759246 0.24082715439062177 -1.3065302397771432 1.359175376776685 1.0050159436118822
Ni 7.721809910379577 8.99408573424954 11.536733891074991 0.6514532634908135 -0.38264417086805713 -0.3282126313920541
Ni -0.05609281416073285 5.095849383969844 5.623218470240183 -0.4148109854085889 -0.6475642128490525 1.1199146872350068
Ni 8.20882280134247 9.223908559699252 2.338117693411743 -0.5171653167077996 1.1632732567262998 0.6366254544493617
P 8.645531751375907 1.7963739688562341 3.7285184383751058 -0.5780256425282819 -0.4204126478660824 -0.326049048081832
P 1.970204259838983 3.5172646773108966 1.5657498174899405 -1.05056380744501 -0.5743816180177915 0.502981826118566
P 4.731442093144722 1.1799820402581858 8.397642171643124 0.03618107790624737 -0.15616006426575685 -0.6404571694906259
P 8.641110328514221 1.8388925590148002 12.423888285921226 -0.24980478360611172 -0.472977823557308 0.3239294306356679
P 6.635306777386817 7.908311908120562 1.9633888871969278 -0.4671537606763632 -0.4583950406471267 -1.8778594441218563
P 1.802254005445487 3.064793582683942 6.10550271782502 -0.7899935577922782 0.9505736055026015 -1.1252983201444233
P 6.975765454072455 4.17308475823223 6.244907901570038 0.8237634551538716 -0.6637547065659859 -0.26306164861601794
P 2.347802888562785 8.389399180815214 10.625442173938266 -0.8661941135142566 -0.5392678050337938 -1.1719003362736786
