# total energy = -340874.0197838114 ev
CRYSTAL
PRIMVEC
9.19231824203746 0.00000000000000 0.00000000000000
0.00000000000000 9.19231824203746 0.00000000000000
0.00000000000000 0.00000000000000 13.45388692099263
PRIMCOORD
 96 1
Ni 0.23822168477959324 1.8601575182227679 11.08580066545335 0.217350005511516 -1.2302273541493456 -0.6551561662636975
Ni 3.533986745803237 3.7967307779408204 7.265610172142614 -0.24392621333814762 -1.0485750591497556 0.38740713947433925
Ni 3.215877380930648 9.031535397665216 3.7495043237719075 0.14091110852648633 -1.3869276071892889 0.9757146235446034
Ni 8.2930980891365 8.531896132269484 2.17848014487843 -1.2246105221832007 0.7149106606145107 1.6717433596529467
Ni 0.7098436834240345 6.459239793386726 12.137343040807016 0.9673192003920567 -0.026061215863426083 -0.3793099642885016
Ni 3.5224228094624372 8.391345586442117 1.0749524522051093 0.7359916496545261 -0.2843156728987878 -0.6366118276026068
Ni 0.4389460650111814 1.9578442841159944 1.3101958258762614 -1.1651596751157354 -1.8661712091506506 -0.21446805597803065
Ni 1.6440553088142926 7.1403354207597145 9.65402448089321 2.162711449140088 -0.935544479083621 0.3745516236679097
Ni 6.768248763205745 6.6923294068952 8.927784459431747 1.1986511220049614 -0.005848745471293153 0.329490212552897
Ni 5.540053931384919 4.19754342998207 12.36748559708905 -1.2727374595974146 0.3026149854286079 -0.02959468293798129
Ni 6.465904224107776 2.604634179832492 3.433418188143046 -0.08946513404136851 -0.5999882628423021 0.3134082193893699
Ni 1.750024353438092 8.785953423674114 11.365089951183784 0.26200081145167137 0.4452762438769815 0.22179415732579863
Ni 0.25744741837004054 -0.04213299063438454 9.20436936513717 1.702378053819668 0.8076801764387638 -1.5967543077405661
Ni 3.5737619068101054 3.476461218282788 3.7758467501406114 1.8416716813473895 1.2652933446145436 -0.4545952072850622
Ni 1.5339129517113808 3.3502323042669993 13.010244661259094 0.16510698904639953 -0.4584685741975395 -0.3945036413098044
Ni 0.45206809929297126 8.062784555735275 0.5825126104517576 1.708333500072155 1.2392398420606012 -3.666253497092028
Ni 2.0532697397231825 4.1204014953461465 5.390340482739977 -1.1493985556267365 1.4253586574719777 -0.1480369209379902
Ni 1.9047494539852636 1.9560425897417522 3.8222219956408776 -1.6267603671843531 -0.38728064119880395 -0.23986567011552884
Ni 7.737679836685145 7.107454498429792 6.028282772154392 -0.2972035846050494 0.37572456093008844 0.6013244651552225
Ni 2.299348098899025 8.652775117071963 7.308891283324666 -1.31596104617274 -0.4818288461900347 -1.0616195510385396
Ni 5.751881712813687 3.967570012355577 8.009933322037798 -0.121885459353603 -0.434260095272136 0.13587508876447568
Ni 0.25921693963045705 5.531661344835515 5.8522655048773355 -0.4345493443777807 0.2640723492687194 -0.009838840467292732
Ni 5.446310670014907 7.1690889922017025 4.561957259504509 -0.3512432879592725 0.31917983176582454 0.26547565737414924
Ni 7.365887333314726 8.556439621959418 4.4386662103969226 -0.14316468044735342 1.866230087413044 -1.410403321713726
P 3.0061362557414366 7.059093712190566 12.587106625918242 -0.171598253197698 0.024147286670164865 -0.5364683879117857
P 6.282949514258063 8.129971209721687 10.661223113076751 0.43706722570362794 0.39740410278605104 0.2013454025531436
P 9.106682599243944 7.217026931802077 3.7756454383712446 0.06149024609499733 -0.7427114848768629 0.7180355793967376
P 9.090403003648111 5.9902752939442925 9.924461564162442 -1.0489237007384258 -0.3536408416571716 0.8310584461533881
P 3.460098891822833 4.058050000751835 0.19862945090561973 2.2726862730990343 -0.29715679052751404 -1.5303401419813902
P 3.6045377882639986 5.355821489300412 8.74853793075841 1.9489309061473856 1.508237653655396 0.9075842464252694
P 4.902971123725564 0.8497728285386534 0.15636133319316703 0.5631656946973139 0.5198518624010273 1.3677947430145798
P 3.1211965031005704 5.832286920423366 2.995467651196816 0.6696744144845306 -1.025378309318318 -0.8933974134019259
Ni 8.81803461431751 6.038011002543477 1.5558614499633105 0.27834659979954646 0.46526528540439877 -0.8476202071668112
Ni 1.1086763101172652 4.845381249977464 3.017410634057804 0.9715471224304753 0.3327130903655689 0.8569422558986853
Ni 5.386955871165507 9.494653582709601 6.286705495489264 -1.3490159197451799 -2.51679323498942 -0.0007060249280891067
Ni 0.8669210982077805 1.863944753335971 6.224144416039173 0.40155026374394065 -0.48216437515258254 0.4658939201273331
Ni 4.864731079864097 6.692311022258728 7.334601278198738 0.6584546345093112 -0.3068627049613683 -0.6649875505318225
Ni 5.709863626157253 8.573243179694696 2.4197757408761182 0.20962538317374865 -0.3065179200274398 -0.5538166493822462
Ni 7.688712357442346 2.8537919656173707 12.937015896496204 1.0141981243317824 0.36273354798705915 -0.7038783140597491
Ni 6.8916096739319235 4.682622063292089 0.7403980300084418 0.5176186021951343 1.3677034688523542 0.8504219382816643
Ni 4.550372180831766 5.8166048255128695 1.0989591105100638 -0.18695622371100704 1.1821911766767252 -2.6674236276862
Ni 8.238587641997436 2.2978497510265683 8.261601529932909 0.014121784113362776 -0.5430846076767227 -0.040040046641021364
Ni 7.392085440287125 8.318202310238824 13.260541375273403 -0.1502149024259155 0.21676430821137507 -0.9499758240176025
Ni 3.7314285491927746 2.135108948977666 12.075186423359307 1.6794445849519464 0.8524441109180158 0.5777471920559147
Ni 0.6202103075373061 4.099700394678833 11.070665513477891 -2.1857580465469066 2.029392551138563 0.3234342361668043
Ni 9.346289566381692 7.028878562149064 7.9570728960220825 -1.2687069982817827 0.07116813550439356 -1.372316027923701
Ni 6.422378597260647 1.0068438086996343 11.832747302973068 -1.8919215786418773 -0.5322206683790254 2.3303527745725674
Ni 4.537751127893834 7.8510578898071035 9.298559373173449 -0.8264186333885316 -2.7029704144425577 0.5598165757194229
Ni 4.259619155029305 1.5059223426829744 2.509445886035791 -0.5235416525477887 -1.5784825060145717 0.09346114257463903
Ni 5.206832395332461 3.0108151457235244 1.3223260090203945 0.17404491496597768 1.4966754027390934 -2.0301443417029232
Ni 7.539658917246743 0.9853797456187379 10.006906547188674 -0.5418301664443314 0.31113047909878677 -1.4462599264010187
Ni 8.676877375486571 8.298687018623944 11.058529814942817 -1.8766731371232388 -0.8371033667958873 1.5546033854041292
Ni 5.00237685312891 0.7052410896833045 9.6111073855133 0.7009133178941541 2.5071600827750307 0.9150242476430822
Ni 4.520331684836748 5.1337994269479985 5.505935723020443 -0.7255252029055634 0.019942504560197912 -0.48824374857744296
Ni 1.838114339093008 4.476061480212509 9.237021398743016 -1.4418831374895618 -0.376189673491965 -1.67950346321434
Ni 7.44517107809962 5.99944922754375 11.566171912594749 0.6430053898337765 -0.5123478407144982 -0.2597454397585914
P 8.565181516601788 1.5884969373963322 3.5157969864779792 -0.058205918916770724 -0.7428649797355916 -0.45954612353243435
P 8.934924133005593 0.896124174011506 12.881773740825562 -0.5336643428040874 -1.1127500511657675 0.9369758122135089
P 9.145207604970725 4.795145230818107 13.262787977850266 -1.3194214939175148 -0.40169887350666306 0.15782613911427013
P 2.2562912802819293 2.6642095943195527 10.697951939820232 -0.47924771572641983 0.5813428798269731 -0.7361454016235709
P 2.0908479366716635 0.681227996755585 1.9781923997630486 0.5675877350244096 -0.6808869953708983 1.4023030612040945
P 9.10908179430352 9.157497734452164 7.049997913296114 0.7335287899363303 -0.1669576691018931 -1.0578235743312168
P 3.0255504318557205 2.3396288374088696 5.650820446896051 1.3781349485983234 -1.7669176282639505 0.6013000396751903
P 3.6845293415530604 7.819978661851425 5.824846658043205 0.28126737299076715 -0.39953451886549257 -0.04138601914595453
Ni 7.217817471170367 8.77326802450853 7.965992202406405 -0.5299843228493388 0.3150925490703283 -0.20645418453461864
Ni 3.676954871326654 1.4300121786906657 7.803550150700171 0.04241754573426243 0.21123335109081684 -1.02765347850574
Ni 5.3146766728763915 5.077110400387019 2.904573089248118 0.42091966940948805 -1.0083781752158956 2.8006926462863957
Ni 4.026106694881978 8.886719616176379 11.955890355757056 0.9514989455303484 0.3411411665282641 -0.3860441976885416
Ni 7.562115750697121 5.665336036622407 3.46338054943306 0.17725879391758506 0.09858972205045602 1.3639817970263928
Ni 2.302078217415096 5.8066955064545365 0.7931683713054445 -2.46822509627273 0.1231257595186073 0.0028654944732531295
Ni 7.819096199300776 3.7126578353550057 6.533167174335545 -0.16800487941948486 -0.146151016769187 -0.35635669792643787
Ni 2.159110091891679 6.808906386763263 4.593896888447071 -0.349950537289778 -0.06266164069527919 1.3635585934460452
Ni 2.196697481158396 0.958630099552182 13.374536232948994 -1.0167049499140361 -0.33997954211999515 -0.8214553758459852
Ni 5.290298644914706 6.801791532448653 12.07567085853034 -0.5466754103517747 -0.3769643468744605 0.8881333367895091
Ni 2.4080380697206594 5.894840646018869 7.1111056872331035 -0.7628668767788153 1.5180438411125405 -0.6896619133500509
Ni 0.7328925021688051 9.158086042819264 4.687360703342711 -0.9909198705301322 -0.5868936344418731 0.11681781502270848
Ni 5.70934885633604 2.720567697424039 6.0181123912581596 -2.283535299998396 -0.37378234960205303 -1.0322462400827448
Ni 9.012029298368574 3.3913127744633695 4.653672695471675 0.015403993259896052 -0.12079145495847583 -1.5017790425142459
Ni 7.541515765530401 1.2884412855391099 5.948649719276531 1.7330047775665895 -0.5252303531041213 -0.4619701595928947
Ni 3.038741408524279 5.177242322931003 11.163188034986174 0.4223872550939499 0.27829363507442395 1.022461392781839
Ni 4.3064907857143115 3.1578922374984026 9.800779841529831 -0.5447640522616747 -0.8245756666425218 0.23874261225467913
Ni 1.6021199530219805 7.581667811584943 2.3948590430658068 0.5097875361864899 -0.05458734832757696 1.1182961777949774
Ni 7.033529875176445 1.2094425026195283 1.152188148487039 -0.49265036228557085 0.14552906691447196 0.17036232390806788
Ni 1.3957799855800628 2.107587148179292 8.650378679707854 0.9868192180981973 -0.19647470472440356 0.8579534707720192
Ni 8.449661653330857 3.5621887781510697 2.250270311837395 -0.9729887399730082 0.5359256280344383 -0.060298796890057446
Ni 7.560966710917628 4.420622608931616 9.373471251405336 1.0160382628643148 -0.32211783134822586 1.2074476372506688
Ni 5.2443646306897636 5.260524726148527 10.017992482981205 0.6458251186707588 0.8952038704830453 1.1640697844856662
Ni 2.4175245421401392 3.0636617832618853 1.6798924806888889 0.6303943859379852 -0.1928227097941131 1.34346979311597
P 0.711489108388266 3.820042496987139 7.3080437515833125 0.4966936791170092 0.40014464164566566 -0.0943815975063794
P 6.514936049578225 3.0297788982442477 10.870148879638435 -0.07560431689887626 0.05609221500787759 -0.9284191808927493
P 6.3758286977138985 6.879852698908169 0.9251185841912761 0.52425616211631 -0.5441302753324176 0.5396904943935092
P 6.112055125933891 1.5530145890056433 7.849576088107471 0.22113826890935462 0.9404182622361547 1.4784588797310667
P 6.35611117509783 4.344041405708085 4.79453486088724 0.6288720357561879 0.5399949130078054 -1.1000737412496797
P 2.6895344310595397 9.086376768260774 9.31759666424006 0.4868862061082841 1.1216280703816877 1.4434340269164496
P 5.297119345045765 0.6478332238362753 4.220511356326365 0.8903002625338409 0.062155647593138116 -0.8666880224315395
P 6.962657101577426 5.465219268626215 7.050940125915297 -0.860284432898041 2.351814029770137 1.341120319047187
