# total energy = -340864.6712840404 ev
CRYSTAL
PRIMVEC
9.31556857582380 0.00000000000000 0.00000000000000

0.00000000000000 9.31556857582380 0.00000000000000

0.00000000000000 0.00000000000000 13.63427624282283

PRIMCOORD
 96 1
Ni 0.6174563658372314 2.526121306124627 11.633500696750135 -0.7988044712156889 0.9541011590398858 1.441849713148465
Ni 2.7646278031107046 8.270892586594089 12.084249377258926 -0.7317665558295849 -0.8794435223249951 -1.1324166763567594
Ni 9.097574754915714 4.151771826866083 7.625159744525497 -0.5200398100421173 -1.3529275960947604 -0.11869163500665365
Ni 4.001045930633817 0.21944963877085266 6.517756649590715 0.1743501049112223 1.1658052791195341 1.4725422571363156
Ni 0.7262556835050634 8.003014102536296 1.071681616461837 -1.174968690786357 0.4043447957699423 -0.10112971486349033
Ni 8.542786080619504 4.678967787649317 10.325510125880784 1.0364823896512796 -0.5188398761967452 -2.1739068036352758
Ni 8.48581206446644 7.5190703256966 4.462757172000835 -1.0684129198112888 0.12406061262805086 -1.4944701675576584
Ni 6.0181925277076145 7.514803795382979 2.9668455035100836 -1.1968433793722615 1.2592718210108118 2.6906460885492502
Ni 7.659986928434888 1.17760894440109 12.595985220774725 -0.5941140634497123 2.123133943957782 -0.986389072539314
Ni 0.38196904455998365 2.6798281842354057 4.977696639479199 -0.08073161082311257 0.22985867950148797 -0.07934295800570207
Ni 0.6618487753492986 7.267205303667438 6.253047321892516 1.0258436789905105 1.3418499981243601 0.7872586753596184
Ni 8.567258078728413 6.760783060350087 11.14382505069216 1.2753144762959714 1.0737878109699572 -0.02150702083384038
Ni 1.7103756150697929 3.608664875306292 0.35372517281791865 -0.6182726629737868 -0.093539047000426 0.05069778346518365
Ni 3.048547695902241 1.6368478339226182 0.7339056282507951 0.8730306768201157 -1.0845730745109192 -1.779392877912826
Ni 2.9990540811505695 2.8795353389589753 9.600561416618081 -0.04078515233716202 2.232225851091143 0.5800987230072266
Ni 7.950269354423373 7.4225517218114 8.713284270717839 1.7394088813207205 2.6454412098778377 -1.1379028962823112
Ni 5.420477714360829 6.916539363502343 5.326080265393558 -0.410130549213784 -1.2113611133724622 -0.03879846092443641
Ni 3.151931873676388 3.810943126900078 12.058467610237143 0.0478554289203821 -0.6991878505626152 -1.5775849339009669
Ni 7.041731286831481 3.1226157800148955 9.640210338715965 -0.8734963036026246 0.25083373909125833 -0.7907916282135413
Ni 7.164827207277289 5.62898808119438 2.757109207878995 0.24422677529770195 -2.1358274802650503 1.1031765485447194
Ni 6.448618364259649 8.978987569561154 5.480610639748277 -1.341040357738871 0.7587914211578609 -0.5923508009017023
Ni 9.069469685142368 8.770058002150938 12.525809181127203 1.5666400048536893 -0.653177702381088 0.9154068277934816
Ni 5.692445732933205 0.9428286747631519 10.74350992578361 0.5310952965253305 0.7727501973307982 -0.9916469785041439
Ni 7.136330883632388 7.390077650472359 1.1425907913401063 1.059695080322317 1.6854923338079228 -1.8420578610422147
P 7.878735104907453 7.907035801616578 6.522228122408483 -0.6463506521569256 -1.977708235390394 1.9989656021072737
P 1.032211553276663 5.240305306509884 6.287078024706242 1.090195305793703 -1.5863475105849454 -1.539285524100136
P 2.547807949290802 -0.1458659642134558 1.980678941574388 -0.548151737786985 1.9770510614223695 2.1312180065174977
P 3.7829125816736937 4.147561189962685 0.4508707144544425 0.16927577571210847 0.8121322986728464 0.09085352974846288
P 8.99323107359942 6.710255417509307 2.398514787473894 0.37317659769725403 -0.21340027683514862 -0.1713974500408016
P 6.84916917304797 6.650971140400398 12.479344057652733 -0.6109933557035542 0.23193561663517476 -0.10566668350189545
P 8.667447016551531 3.2072942965013795 -0.146961475053809 0.26191519371640054 -0.10159816985947663 0.6149202015617862
P 4.580409074291011 5.5296841223664455 7.014548458326798 0.8402444835280303 2.584826681519574 -1.1472149177118565
Ni 2.3127668437384936 2.0423731562207066 7.369026329069041 -1.3601593379565091 -1.3523681240468644 -0.49359987068303374
Ni 5.695510554927051 4.363272491146517 1.371799419535738 0.31138167587764437 -1.008609060279779 -0.27681679341858134
Ni -0.04160891768300657 5.2882711680488175 4.070717998032503 -0.22056105624964592 -0.6066294223079037 1.4597201656709826
Ni 0.08062810735905575 5.009698411501863 12.396365632393838 2.0561412799873167 -0.6549875018963172 1.3262804258208774
Ni 4.826712702003072 5.0079284535114965 9.198336600193608 -1.0827234228966902 -1.72797467134185 -1.5923579784450834
Ni 7.13372252448869 4.092068349180509 12.16196543794541 2.701109192864103 -2.377474924871351 0.9671898739030438
Ni 1.5779827573903746 5.448871566753657 8.472488938583165 0.5039567884373257 0.9651736148039636 -0.011422640014644844
Ni 7.186103965435169 5.541403107376346 5.745197933500825 1.6388638353161067 0.3859932898459481 -0.7650890812411146
Ni 3.381812154351522 3.915063234575483 7.23391053075497 0.12809518770874068 0.11263411595866409 -0.23049605597517078
Ni 2.9781778924326145 7.706518192444788 0.6911210858394503 -0.9639633965459462 -0.11484937844242801 -0.9613400999904863
Ni 2.6469442278880697 1.6117516927328945 4.7932800586787225 0.278891673669739 -0.27827049514597235 -0.129979292105331
Ni 3.181070971538843 7.576929320844846 7.931085804478311 -1.6511835332237241 -0.024700588070473588 0.3473516662143502
Ni 0.45754718230547253 2.3413935853405805 9.331052708095477 -0.1776272330005973 -0.10666221464594534 -2.046647224453953
Ni 8.696483643161912 0.32694477686683565 5.727909170162292 2.032032559864571 -0.09020946840656076 -0.09479837332882383
Ni 5.320549612452082 7.980926889930196 11.158741138766766 -3.9528991036755725 -1.1721602748032847 0.37855097463528997
Ni 7.692554155457633 5.354346494499713 0.38471993189974807 -0.18739048303494824 -0.6546098068419243 0.07370684276584726
Ni 4.970768651282169 2.1470894602718142 8.509983169716989 0.3266977374094245 1.0221065805455818 -1.271523127574339
Ni 1.87385452440107 4.136233458824339 3.5812603362743953 0.9418135999217844 -0.9730234498656855 0.41556380441421337
Ni 5.247068409146759 2.6193794610802033 12.92589327994017 -0.18834744763157885 0.7848783480528999 0.012776840049694123
Ni 5.083822389024741 7.91907151595107 13.493147116272747 1.4497887654898838 1.3248449789259311 -0.8861520446934222
Ni 7.301495910838699 1.1004760382945897 8.127609829489732 0.2505079803207234 -0.15660795043645287 0.22185972045641145
Ni 5.2444693655714305 1.3797660936060614 4.17155716252787 -0.5255892791054367 -1.2759289699515188 0.3072946502924643
Ni 0.8823715675964157 9.46154332671367 7.846784568510826 -0.07922957235628936 0.23830269650378313 -0.25645699881530676
Ni 9.390558695731599 4.433148569492514 1.7295899063904774 0.06990958050694412 0.14799809728025481 0.7325700255674867
P -0.20602404163550384 2.011641096166921 6.980830758610316 0.783187076393406 0.07116864972502582 1.102680068524275
P 0.9881395993165357 7.822860325822092 9.140609886116222 0.14271782271792194 -1.3136426824522085 1.069738066380616
P 4.944219281426671 2.344467722902796 6.18813457837424 -0.3753779762239471 -0.011554794717134938 -0.13146924638729615
P 7.053319853884196 0.19546111866036367 3.362962101754118 -0.3801100915922938 -0.23186593973950392 -0.5766421319171939
P 1.0391982295544255 6.957229766144033 12.689570352180102 0.038411509898662884 0.3918019261079252 0.968949536906628
P 7.605397697784635 5.416462704393208 8.41296152513979 -0.9938532421268432 -1.382197291593155 -0.645011878740844
P 5.137032915556181 0.04999665544366996 8.614953788784607 0.0571741352181467 -0.30971225859502144 0.6278034852823575
P 4.544031779804793 5.878002539302212 3.6776410697477133 0.040908051068271487 -0.8560392844684418 -1.155057553684727
Ni 4.505446695614802 6.372836215566849 1.4079298514601415 0.8211990368608051 -1.998423099340242 2.105319284373864
Ni 5.425033027293931 7.569877435588491 7.521838912616268 1.7490140085106523 -0.14898565800450472 0.8410150431454678
Ni 7.79510924764682 2.8435865606177937 1.8847071615525282 -0.9678298214798879 -1.2271206901995642 -0.2903497949080096
Ni 9.200791252459195 9.630061958533307 3.3813957484453674 0.3300093182811607 0.2932785385190304 -0.4095368814938431
Ni 1.689685737719245 7.687626219789718 3.450862873339906 -0.2883178520796454 1.0421262182006181 0.7852470442462283
Ni 5.690554672554025 3.4184502847521094 3.609169779111965 1.1114318465749762 2.811557356915041 0.5672277805818295
Ni 3.6657879405532796 3.045631923002321 2.4382177398683273 -1.2731658053840849 1.3591499228553885 0.5783850827502297
Ni 3.6511718137802 6.074057991224604 12.721379291937499 -0.19174953133459235 -0.32272872545934744 -0.17343119264137874
Ni 5.495728875656519 4.964294331264776 11.378185188196595 -3.838976350812472 1.4722668919877417 0.9985025679733965
Ni 7.205061147068832 2.0336724153627994 5.650548032630717 -0.9613989782528798 1.8448745045554036 0.10194424034498571
Ni 1.8210259361728136 5.9172862911199795 1.998716676609897 0.82766330442891 -0.5060434957630252 -0.8961351240480631
Ni 1.3966924813349881 1.8691035845321913 2.2399340039917472 -0.7109308500311563 0.24562494119680925 1.311570116193896
Ni 8.217905633703538 0.4120275890205929 1.0684733347150883 -0.6431740542011568 0.15328557093143924 1.1192184324989305
Ni 3.1417220107424844 0.7762188029026 9.345068912265507 -0.17801058448194504 -3.0185432455834142 -0.3463638483797841
Ni 6.198057521802338 4.111752145147059 7.1371618323310235 -0.21158302112075175 -1.6269848244903335 0.9484329050105148
Ni 1.7963862578332372 6.120198001362949 10.84108957290619 1.0045132929438507 1.0039173112310644 -0.28970599067642366
Ni 1.1182315116084773 9.662200669411014 10.64271174978907 -0.10892504253819305 -0.8994209938881864 -1.287380663431886
Ni 3.711080233969923 0.9475982457687714 12.048881890384052 0.14583219997718755 0.820428991464 -0.09457520157442423
Ni 7.314947591565485 8.594105546771763 10.986622039771989 1.9929983287802449 1.6989638859317966 -1.082255482121336
Ni 4.138329461707668 8.643496690271359 4.429612379739129 -0.6172843309185885 -0.6556184506120967 -1.9834312539171002
Ni 3.0307083824730197 6.110761330603785 5.348426450800355 -0.8517817947436686 0.026592919997180005 0.09661151527816264
Ni 5.452635056375278 1.9175818023314943 1.7391476795384568 1.9241871235438024 2.6230047352511923 -0.5709448244221006
Ni 4.8596991296024825 -0.0441949194626158 1.9855323526953403 -1.8122850006551563 -2.931933835823286 0.18189269314517062
Ni 6.464575932878058 6.331605509959679 9.987843129819675 0.6582797994943437 0.6939595122841403 0.06123416422013325
P 3.836989456063577 6.751579278800181 9.898538502080475 -0.22419942433318163 0.6457898945574492 1.05483081025148
P 5.1088160589623905 3.0101023452378053 10.680955884176706 -1.8139608456956824 0.23421952757334502 0.004843187024914239
P 7.873797853671168 3.395627142244751 3.957907396624398 0.44287714751718565 1.202981116838883 0.2828992521672354
P 1.3925750001152932 4.1301503926785 10.273944728723547 -0.07739740424355702 -0.32506714378453694 0.28186849690987587
P 8.087031213668485 1.455976758443897 10.406769828775351 0.2278154238192141 -1.6340322182554181 0.21362936212681916
P 2.222154310200097 8.616956635984232 5.391156031358314 -0.14096715857540237 0.5661607727698958 0.6233009694263137
P 5.880424587078504 0.7076375885600814 0.037196132945971634 -0.16027691464760785 -1.4525506445057372 -0.17319567959180493
P 1.5297746910738121 0.9384317264923465 12.693810798902284 1.16997226601303 -0.8753161304201829 0.8964688532383981
