# total energy = -381168.88224406034 ev
CRYSTAL
PRIMVEC
9.22291462651724 0.00000000000000 0.00000000000000

0.00000000000000 9.22291462651724 0.00000000000000

0.00000000000000 0.00000000000000 13.49866782240009

PRIMCOORD
 96 1
Ni 6.788258924652981 0.9007734909305444 9.422461716101541 0.16353784478706676 0.9844352912470529 1.4457665317043682
Ni 5.620093767493576 7.882068943235425 11.793327234637841 -1.3253139481425498 0.45507986023096464 1.0387786418846239
Ni 3.492265886542335 1.2530897560203125 4.0752887522192225 0.21926444892540947 -0.1921161706453917 -0.26556127510942007
Ni 7.866214752809501 8.538445338949275 11.779112878451436 -0.5795847594852858 1.0713146668391162 1.0832057618497473
Ni 0.21711479114518592 5.7333142687551435 11.887507028433255 0.015049438133954726 -1.5726275898956916 1.2437626696316193
Ni 8.881777562797687 7.187915488775454 10.317504087817037 1.0810403787673124 0.5688668588471493 -2.9388853274404547
Ni 1.9843285506214334 6.496575023309031 8.361668809971547 -0.5462038700319949 0.003319037070903961 0.7584309524946486
Ni 5.731248335854965 0.8554096625251074 2.8232596313931975 -0.00895335253854587 -1.4653696506472762 -1.464315498351149
Ni 3.15836870446572 3.8281921098601956 4.317562732464394 1.2573424651985832 -0.5259821436684812 1.5380033149536028
Ni 0.8690604986213314 7.054810383349669 2.363643976300409 0.3523316359274448 -0.4455945464483487 0.5424793699925561
Ni 5.360311928210865 7.464160230856463 2.3637518844027845 0.36754228222961216 0.8504988142661869 0.24242417487132442
Ni 6.742347255112406 6.243682701331825 10.735868412183807 0.09796365843068289 -1.6876219785564162 -0.5591131218944951
Ni 5.713872364498107 2.688396638419314 3.9965637966417957 -0.06656946039011762 1.3662101721362794 0.74229393772347
Ni 1.2723656478121566 2.204230506598914 4.375161679554549 0.13230716890755922 1.6812767530646788 3.2474213063391875
Ni 5.402820342214984 5.800503202584609 0.5223333198597245 0.5430218727595875 -0.6069793494481547 2.4244340672297082
Ni 2.460950338190289 1.712603036759565 13.097744355729912 0.921965711957922 0.7031393790111955 -0.0218165816544592
Ni 1.120796267091026 0.22289940326568566 3.349059844901034 -0.2796000125906733 -2.8514251396442574 1.6421970134543977
Ni 6.751902194775733 7.6613461478467135 8.952559744207106 1.0202908674930815 1.2065251254363996 -0.16817328667654907
Ni 7.660838887536402 7.945753169466374 6.757851897069951 0.8264052636520929 -0.38024224629478387 -0.5129381660003295
Ni 7.2969672325777335 6.501951982598334 12.962933011078531 0.43842142573867715 1.2277678368652598 0.9665846362188772
Ni 7.110968711158539 4.082541652365205 2.419947103870586 -1.5169927741402067 -0.2931466409268564 1.9137836688222911
Ni 7.556011238681809 1.9066347169111497 11.852329909350349 -2.0249707679217837 -0.6866676066084175 -0.24278952863054315
Ni 8.93892274248298 0.8969137011148091 5.452570588867407 1.1323837662362948 -2.1618773832745672 1.2157643846464803
Ni 8.342264719664914 1.6935577178360448 3.498651832703422 -1.8830980668129764 0.42619660153771116 -0.9340905202459139
P 8.835367855861534 6.279329266774637 8.204585048531593 0.32252355142707684 1.0181373114851886 0.21521856099081
Ni 7.104568008333879 8.396578464527197 4.11163994834763 -0.4526195716159302 -0.8214237512771014 0.1289225687060425
P 4.795519075795106 4.7873844650006525 2.6372749443461028 1.0118877310310508 -1.6167196951188993 -1.2967366507254892
Ni 3.0033407307197377 5.610603388233382 6.202759706370299 1.4274821315728836 -0.9522484221018632 0.7521569465604787
P 3.7889762764157364 7.664020793119266 8.222079073197033 -1.1384297153200587 1.9732332303381759 -2.1317124296554124
P 8.234476515181049 4.636811159070681 10.54719801236648 0.023279282242914746 -2.02403257237823 -0.882712422884254
P 6.844223571252458 1.0055282787587463 5.136418294736968 -1.8471327044619608 1.0389419069353656 0.6813094276202976
Ni 1.3180282986549408 4.0469135327518595 8.846932468645166 0.1183152255038414 -0.44752827313595184 0.2988120667427499
Ni 1.2051121535795606 2.180481501161594 7.007428581200665 -0.7479912452185634 0.42319509570722597 0.5078396684314996
Ni 4.398555602774651 6.089613910718069 4.143604726229053 0.2734363069821227 0.6088703958232804 2.1577885579171743
Ni 8.406732893648163 4.709432389677848 0.6914170156587073 0.9015997467070601 1.0308498739558505 -1.3390333546111712
Ni 4.806263771458981 0.9913157671552862 0.32038376740991126 -0.7898146090122526 0.7724588913426246 -0.8666381430302107
Ni 9.339307916869357 3.412432336614009 2.295327079999105 -1.1911393870089486 -0.07389916128231143 0.2973105424965589
Ni 3.1260516112415 2.068939570381422 10.491137447453779 0.21276752834715618 0.1591068055989066 -0.023371841956721037
Ni 4.572647341273619 3.1466648256696197 11.794029098449018 2.1827781379829765 -0.5554593271919918 1.867489670851758
Ni 3.9285558679840453 2.774907578614288 2.174864746089234 1.4236954108369417 -0.28951367215995943 0.2663693728330122
Ni 5.401824267423827 4.45377319328076 5.6883525594320625 -1.0529791017547219 0.11419966067357107 0.8449835408749126
Ni 1.791173047369478 6.294039815773676 4.503330681015265 1.3867566288290634 -0.09663825475104 -2.8358403978321225
Ni 7.6059625448754105 3.5979789352112888 5.225914692430996 0.41774667099814505 -0.7901365111280456 -0.9844116370979691
Ni 6.202640730770244 3.1494962604926324 0.5197675049810206 -0.5274361025061884 -1.3256469060019362 0.6016435390575381
Ni 3.5666763626076916 7.461439471010246 13.464610691102365 0.08083059829482209 0.9678174801847139 -0.539531857328458
Ni 0.3428046731256876 2.6916523273200417 11.121944234362026 1.3381784628100437 0.671546948916895 -0.3241610870304998
Ni 8.396255662511544 8.649747473946391 2.226861694770601 0.4610682166039156 0.6726633219095254 -0.4902319826520653
Ni 3.411316363931323 4.281636712705175 0.5504604429207706 0.9475273624771101 0.8107719279902101 -0.5621529371620836
Ni 1.796402440023055 8.65505064991783 9.912017719291871 1.8095542319875546 -1.6957284097136345 -0.6877420706195188
Ni 5.373611371255763 7.016876535053088 6.841421649756591 -1.2233031162256867 -1.6092498691044155 0.3614420828691453
Ni 8.56641843933428 4.223292554104598 7.263809009529869 1.3622473308337895 -0.15394171645819937 -0.2238800933205499
Ni 3.460990982682936 4.439034975537522 10.253439877499092 0.5630088574044756 1.0684424874976437 -2.415664034346562
Ni 6.620263532792485 8.947776740626603 0.6784634319162935 0.6765089209078607 -0.865089053375536 -0.8417426653401117
Ni -0.15745175573779926 0.4533874207736341 10.031346556981065 -1.361248714365946 0.5707509632437395 0.08070512846055133
Ni 6.756495206312737 5.508275149271416 8.141654334434325 0.41367121537719076 -0.2751638311961906 -0.13229302784017216
Ni 1.6385430314540599 9.32510462818063 1.1209899483004178 0.4552770638434353 -1.9859853877975215 -0.48757988974119904
P 5.474095027271141 0.7778163585854126 11.465336407156201 0.5805769481952259 1.6875469023441065 0.9566959163502556
Ni 7.495352128483265 6.375404369547669 2.4724291778669056 0.19884243362563175 0.6355008539266152 -0.7562198037759428
P 0.8855381580832014 4.037432376406398 5.334282095960089 -0.005393917322061678 0.7794026696503094 0.9829129410652557
Ni 0.531662298112093 8.706007253817322 7.625586140552686 0.564657448751492 0.024068610913429517 0.009666319445170449
P 1.9091064580595778 6.790269520064761 11.147375499446635 0.871415509814196 0.26720086759537204 0.10454928206800058
P 7.777822338009009 1.4993139106456026 1.4679393993070886 -0.8455818365805436 0.4604758344355554 -1.4162770068856834
P 2.2276936016795124 0.6274856153129161 5.7869731866713865 -0.8278363396716645 0.571701242972151 -1.1403184477023394
Ni 3.348084060522289 6.281644218372605 1.953257473177633 -0.5472297401933479 0.6460819718765712 -0.018000807452794806
Ni 4.91895856658077 8.955533211917006 9.674859689849061 -2.135300661227303 -0.13931831011806975 -0.4812061250043713
Ni 4.631609435161303 1.975096412973761 6.027574130184004 0.969933240976136 -0.5974223018873388 -0.29971735216583867
Ni 2.750780433672918 7.818606066958067 6.075561877830961 0.16160360387883138 1.116974116549444 1.1716910484763499
Ni 6.982548846417087 4.327308586462691 12.297205502116954 -0.23601004381486448 -0.44012272470050007 -0.9481526547659348
Ni 6.5915525992288435 2.910493648103234 7.227038170781111 -0.4747536845108082 1.1180164417710294 0.5530599737218798
Ni 1.8769553773005498 4.720370766551113 2.764918239667041 -0.6956721240998728 0.01176588228667651 -1.5157051656770346
Ni 1.451714447708901 6.121137833275256 0.29159167219662024 0.9052548269611441 -0.5333488684461976 0.0988594307720749
Ni 9.217860575666007 7.643960953575122 4.595837438078123 -0.5491770937277058 0.9401534386105421 0.27768016986014116
Ni 3.2171924546324098 0.8423131236043331 7.648278199961611 -0.6662358211166268 -1.5848333879332641 0.9215828746972065
Ni 1.8042788092049853 1.9946766609517916 2.393084442419426 2.1300520112338543 1.0190526242106062 -3.9542255357964806
Ni 3.2409967975581266 3.564490531815985 6.954986165737697 0.1277714858207348 -0.47494754568916914 1.400646499437278
Ni 5.0473138709190914 8.552851531762126 5.196271322187854 -0.42455186684543655 0.8490319999126732 -0.9591091537774387
Ni 8.464542123194228 2.5937972020035516 9.093958094560751 0.1266610263653754 0.8129972177763031 -0.7186356748745817
Ni 8.744374579106351 5.349447334655462 4.196303538721597 0.9395062919448466 -0.6525107582210504 -1.0844080096879647
Ni 4.806586573474633 2.1724667882586695 8.512745687045937 -0.17861325106295045 0.03465127152528226 0.9997066155838266
Ni 0.17941612717429506 1.7666032025209268 13.297834568569563 -1.154709683427005 0.02334176004973399 1.3257872882345425
Ni 6.985454064557963 6.169115435716008 5.43874820655715 0.3145693295770067 -0.4059735896226169 -0.9919102594678596
Ni 4.6152387615103345 6.497165289851939 9.616734114327656 0.6456561971930622 -1.648494159317019 1.1249064840226433
Ni 7.731827662235838 1.0231901604723257 7.3751858501363206 1.3130662411234484 -0.29171427935570404 -0.08745633114145583
Ni 1.010176627784148 8.786108268272903 12.317791047800876 0.027541399953378374 -0.46827424743405155 -0.08219482563220037
Ni 3.2087350418223037 8.08447502996452 3.679939289277031 -0.5856433069745398 0.20398489705851966 -0.5108059501486751
Ni 3.3491908102902417 9.31892527530956 11.589618872348458 0.625015123903943 -1.2437446719094902 1.1420449434751427
Ni 6.313241924247657 3.4059301817272867 9.95357986224439 0.28446351133056175 0.5933946687851845 0.608245874865404
Ni 5.674306060293795 9.19662942595078 7.379060396615629 -0.7329636614614795 1.3741721072958333 0.42920479223641567
P 1.426969367480424 3.552602194725226 0.5604617716571704 -0.9836960990881832 0.20235250366141924 0.055098226525724464
Ni 2.28880463469997 3.850926594676892 12.031524686571055 -1.2984585185126023 0.6290849230979424 0.36061315920994674
P 3.816552791467226 9.031114998153445 1.8340236315101892 -0.10386176908267275 0.04788371105515625 -0.3544268278935767
Ni 4.6163270654488215 5.6815552712738855 12.003595856176766 -0.9306023045869973 -0.5442554880563724 -1.2955380024316978
P 1.6461150444498032 1.4843820116929733 9.279537895651067 -2.1501068730022004 0.9375337415995079 -2.0906938211512056
P 5.088724758069991 4.340930831523243 8.364868239092404 -2.2985605697626346 -0.5754681662137509 -0.28884287134518
P 8.970520448358032 7.54343118298608 0.3526058646123826 0.13323019494246088 0.406221701077681 0.12759999323987703
Ni 0.6412434372200422 6.052205768561265 6.322937974506396 -0.9104859934530966 0.21027664360450238 1.4090928304324184
