# total energy = -340898.01781481283 ev
CRYSTAL
PRIMVEC
8.99255306921939 0.00000000000000 0.00000000000000

0.00000000000000 8.99255306921939 0.00000000000000

0.00000000000000 0.00000000000000 13.16151039800295

PRIMCOORD
 96 1
Ni 6.297979303232796 1.8790838292059386 11.214804115085608 0.6539572608595898 0.33434214132855966 0.17315711304438566
Ni 4.664994665996033 0.2387163061356281 5.910952421094288 -0.24667780794135583 0.12769281006399943 -0.01758840250572455
Ni 2.7373150815592906 1.5243456070844041 4.875431192144645 0.6796348681313521 -0.453806907055812 -0.3862316311089994
Ni 3.3075058757709144 4.451115790642692 5.076104503738468 0.48562610844893794 -0.23764218010164884 -0.08857733211977648
Ni 4.95467176874398 4.751161306747619 2.649227631533593 -0.6184215298468253 -0.4100356755071325 0.06468149933878538
Ni 7.214005692312348 6.224914811883743 2.5159283238887404 0.2749242043815588 -0.8469530058964575 -0.06967201057484129
Ni 4.986073763056706 4.420343275024667 11.36006801420614 -0.0372722540878971 0.38421588623055114 0.27724385365367094
Ni 5.515941950596433 7.712498863197694 12.209287829417228 0.36320611674810355 0.8040736900344282 0.6582039519510857
Ni 1.8730857965007304 6.380935602641414 0.3749939472616876 0.42123668642927453 0.525869529350017 -0.09545708995874527
Ni 2.6343503522120084 1.6314559032639213 0.3914152478958423 0.9557965444644376 0.07470391657179393 -0.0415197165103414
Ni 0.6566901594161221 9.203428144146333 4.6132668046314596 -0.23469723854071195 -0.8335542159920483 0.5398884693369282
Ni 8.58700663608542 2.2663750923962205 1.4242198266502173 0.28121697936880596 0.8201060609069425 0.006297145862621412
Ni 6.788145370242546 0.7998201257616251 4.662451572069448 -0.41925256611971023 -0.23547602568826542 0.16183217494986968
Ni 0.7076428627309372 7.366474424721357 2.5554514926183685 0.739576795902623 0.4019855515091464 -0.5303918427004026
Ni 7.747407953095174 3.8260974021227394 3.7249707505639797 -0.27309023649661357 0.04928316250584416 -0.3706425184214907
Ni 7.328354993480909 3.5598728770287416 12.749751941899307 0.4943799433821679 0.5697184082141672 0.010665450133646148
Ni 7.926566582159444 8.899614748425993 6.784890066135671 0.20134617388409196 -0.2499356527570212 0.16236336486299136
Ni 6.771095490168971 1.0105561039178588 0.37041493938538755 -0.11072892851615125 -1.0367834658314659 -0.1253767603363131
Ni 1.6337939669870911 6.630020322134023 9.180600548910695 0.18031377869382492 -0.7311867720667149 -0.01758634562319552
Ni 9.17006577332726 4.8166540686547155 1.4786031888511448 -0.6910986457965775 -0.5155411508408153 -0.5915211059115555
Ni 6.513809562539706 1.9551338480784244 6.940406374682305 -1.0354405786503265 -0.38657795870482453 0.24647777611540775
Ni 3.5124461536595217 4.425810747115771 0.5193738784438083 -0.8233700763701948 0.5721522144666404 -0.22689059801209954
Ni 5.881974819011433 5.657997306884557 4.821876943310166 0.4907971111269161 -0.469000841187431 -0.5109707578613136
Ni 5.302647591173884 2.764211806928524 9.15284323624028 -0.16156298044888304 -0.18404316382927013 -0.6207090403294213
P 0.14655343118939043 5.492651238892551 12.408552907245483 0.3168650675897188 -0.444697488555376 -0.5124540272750594
P 3.9137657991888224 6.130088342803648 12.407737282708206 -0.2999466945678254 0.3240243043423194 0.2897995788314945
P 2.3868573145617127 8.449771288088138 1.3860779140278159 0.11446268452697062 -0.23808440984538995 0.1917042799189537
P 6.3843797503566995 7.797244680609815 5.629638392433064 -0.43482342397477375 -0.13307387187025468 0.3497175953433655
P 4.769020516571523 1.0581806634482696 12.523598231999324 -0.8950766008765617 -0.1482212690346544 0.09228666265056364
P 4.090145729443633 5.8706711801651865 8.163663329539139 0.1958283293896563 1.1355554790960574 -0.030102990032967507
P 4.721935510207997 1.0759409551915782 3.7179421713100207 -0.0025371645995569203 -0.6888383890074912 0.38262565892529593
P 0.17613173579804364 5.507354062690175 3.5112537411607048 0.6820375640355738 0.44884596350611083 1.1681547531883174
Ni 1.443214795890415 1.128934068732498 2.5262203005470782 0.3532271511585207 0.14994005149797404 0.11068213443861584
Ni 1.7582329123764087 6.504070627877426 4.823982999171574 0.6541932881297959 -0.17616710351530304 -0.3730351870233834
Ni 6.121014857047193 5.582262027359421 9.088022218025955 -0.8026819518932241 -0.39848987965106214 0.7560385410030721
Ni 8.627904766135327 2.3085951277049968 10.184850175562941 -0.06567368804872559 0.6058051266343955 0.014196603215356195
Ni 2.251402492015153 5.328959800612326 7.0864598199370485 -0.0928193952255821 0.21395614933861865 -0.22898090488222497
Ni 0.6274634636212225 0.01883759956652278 9.123176804614367 -0.9382150839372486 -0.4583148222284945 0.11432075963246763
Ni 1.5849823904895326 1.2126187649164109 11.330217235248211 -0.767231324395098 -0.23794788426752567 0.0654335470134615
Ni 3.9558689313114397 6.859887956332731 1.7841746286402547 0.011983911834753556 -0.1295278063902092 -1.0817497461295111
Ni 5.563611472890751 7.711123002622136 8.017452514610719 0.4040313782945816 0.7278145131603724 -0.09558667355807408
Ni 5.204880557334265 3.00886319789989 4.733181596716444 0.4728862922847662 -0.2797879602317633 0.4414697256466977
Ni 0.6962546938885444 7.340674790791457 6.8804557230544 0.15283871320200776 -0.0674310370594645 0.33036798717216004
Ni 5.163937464520451 4.264673193825471 6.960846447154478 -0.6826564285664952 0.5325623679891602 0.5071560121009137
Ni 8.172243124147894 6.8832596010116465 9.16091135459577 0.1444926552301576 1.541259102886739 -0.19996112061110724
Ni 4.643376569109495 0.3253118916548874 10.36934858246882 -0.27216283958633775 -0.7373916153258462 -0.787943874352101
Ni 8.3088849636616 7.203916048091592 4.679127361947316 -0.7455654093858901 -0.12419996641939254 0.06953522788666089
Ni 7.108361182236202 6.1543142799967985 6.823887170527586 0.7605860511644384 -0.5202658100099943 0.5458950805423244
Ni 2.3801218925284275 5.071934657013723 2.711481275928821 -0.015930555187327403 1.454022086844941 -0.3578908751827772
Ni 2.3101508393361834 5.240500058901477 11.10036488838923 -0.222544662338578 0.08544855668280768 1.3683722127846047
Ni 1.3643591005501254 3.3229460888966162 3.82124681915244 -1.7379770339702005 -0.3725335647966165 -0.026178458167580722
Ni 3.6587819650716016 2.7445181163372094 2.8526652538524244 -0.4504166504273404 -0.08202718970608454 -0.8327558884604691
Ni 1.1744094081481486 3.442511070678403 8.018215982341863 -1.1993854290678247 -0.9951166822202991 0.7658447284602166
Ni 3.4843534187703593 2.5108286472063965 7.067401902827381 0.7876065456173403 0.5415522301925964 -0.25430087170425236
Ni 4.134505992314388 6.79524948693987 6.148254198677399 -0.17267246009848328 -0.21400731429152822 -0.8150864962051639
Ni 0.7460599474684502 7.408064981335434 11.424822487529882 0.43051168397329725 -0.22340135391191845 -0.17675485769797303
P 0.031205956662090584 5.403678921673162 7.830506334837739 1.031317043400256 0.9247481597990655 0.7048797587410699
P 8.567447833785826 1.6402955826480594 8.061411709627423 -0.4875770615277216 0.17105009400371185 -0.5904057613601896
P 1.796622120200299 3.2443691626925504 10.309318796376438 -1.0674397572647423 -0.5085035272677435 0.20384168661243604
P 3.94752384233028 6.178378351239884 3.897268061856025 -0.6969561330186191 0.8407381353349973 0.21583613997015086
P 6.807020738530752 3.825665759589231 10.353027998425818 1.063020288040808 0.7377004048155167 0.024708815600589705
P 6.426347994187595 7.630819506284038 10.198314724842565 -0.9800160791334348 -0.5784228779667007 -0.3143330451964844
P 2.443447449215201 8.396103733088612 5.82448183205869 0.0024502613127054575 -0.10540314542786362 0.29349219719173325
P 6.679794101779192 4.1332380423722075 1.7196305810515984 1.6479169466573103 -0.23293500443396659 -1.4041881940419494
Ni 5.055172538629152 2.8459361266060865 0.5592927194958187 0.5933774423940038 -0.48770150292072784 -0.2960843833989417
Ni 1.4849132631378685 0.9564119436209171 6.9959218992784145 -0.4479723026519059 0.5069662646876107 -0.20573813230420054
Ni 6.962169251668625 0.4730451457692004 9.163016511201901 -0.39287099080238796 0.7422990799297925 -0.8353218494154323
Ni 2.693008774005224 1.5149304043222553 9.08458706286345 0.32070192483730575 -0.39286199194132343 0.2908727572910152
Ni 6.2861361112196645 2.149642764740582 2.5443699698258224 0.2548729421576385 -0.41775104187351925 0.4384422516742836
Ni 4.166762279141349 6.818603146513222 10.304435840216124 -0.23421952757334502 0.005259191516410297 -0.7977058388348713
Ni 8.22192697826525 7.099845234752196 0.3514100783371303 -0.4216267227788416 0.44706573167723646 0.2708775451160109
Ni 7.462191156526813 3.843551947071479 8.097224551079437 1.0611012166412241 -0.5416977546315251 0.33549193866228677
Ni 3.1359639389125085 8.46381765553272 12.338941556164494 -0.14364341985598486 -0.5991063744579812 0.3035539523031095
Ni 0.056955232296414304 4.892515243918791 10.128703373761576 -0.16693915715913185 -1.218484868901437 0.26482542538466003
Ni 8.595315754855452 2.273632082490828 5.75569959434415 0.622087922954819 0.27799538710771476 -0.07336874270013816
Ni 3.684950293665539 2.4895432747727706 11.150141365800236 0.12360089938281295 0.20712627090097877 0.7778867472264152
Ni 1.0690616523137904 3.431027580776527 12.602119404376145 -0.313186333186551 0.23886653942705316 -0.45878353433479696
Ni 3.188579365236609 8.060114983516343 8.095973686987541 -0.3296748177598774 0.8387727840785103 -0.43406032055650406
Ni 5.620759145816688 7.733820205842446 3.4704931971683535 -0.3213380157594079 0.9597308465218375 0.433518332010105
Ni 3.1006861543509903 8.357264897625651 3.6169405162349233 0.14135102427738236 0.0650198565148106 0.178294434270951
Ni 3.359833540406009 4.181267266777782 9.196104609161145 0.6018170885209249 -0.18414395107319254 -0.6346693591642553
Ni 7.15716376618098 5.902441869141951 11.51747905362382 0.22930794920434056 -0.2742978836514695 -0.7471805763918099
Ni 0.6138757163684939 0.08764501642885127 0.29456905146104007 -0.2322168953210194 -0.4989156264689923 0.1575471744212706
Ni 4.534800486826605 0.25379142161840396 1.585566906420325 -0.05231475024331635 0.6836131360528097 -0.3726073554573454
Ni 5.832281972341296 5.687690716168811 0.35667971426704365 -0.014625463222658685 0.011989054041076128 0.5090437160419299
Ni 7.872800109079322 8.856549413155761 11.316529670659607 0.304888611954133 -0.14442246411385448 0.5824646521362421
Ni 0.02500469226402198 4.744506817689366 5.728297487508601 0.2483971046253077 0.30858817229290725 -0.2523594317071654
Ni 7.768567429789861 8.752370689182989 2.562756143242717 0.4178754832665255 0.7453787472963809 -0.3199218521381716
P 8.443917136227432 1.6960224322345312 3.5597011192706156 0.10944466248708894 -0.25298626665788687 -0.5208137120936642
P 1.8865206703561748 3.3044843780363564 1.5639955708082498 -0.30893347144746797 -0.9094758070210271 -0.34580334789062384
P 4.748931153657827 0.9216287494623767 8.08014049930529 0.40664233355486734 -0.13535855413937337 0.16247495074019114
P 8.568706791175225 1.6442972686357922 12.352498728737764 -0.29820631483795096 0.533751503201255 0.1754363959968656
P 6.298428930871868 7.92413859290846 1.164109338192308 -0.0535373097965078 -1.0303816760701803 0.7578043746542432
P 1.7420732950281934 3.1474923915782917 5.919928787280703 0.06668078915700129 0.044679345185245634 0.7351249307788564
P 6.9371070070668015 3.9175067011458937 5.838564169714398 -0.09877561280901698 -0.09220747267319605 -0.10038049540229163
P 2.4024953638486055 8.437154736535804 10.184205409528515 0.5615834378118587 0.14885144641948558 0.48881324792766784
