# total energy = -340892.3282130915 ev
CRYSTAL
PRIMVEC
9.04631392396152 0.00000000000000 0.00000000000000

0.00000000000000 9.04631392396152 0.00000000000000

0.00000000000000 0.00000000000000 13.24019484314571

PRIMCOORD
 96 1
Ni 6.455196381262812 2.009123017584493 11.374108818073644 -0.7676666121603037 -0.334832707811733 0.5309168619659372
Ni 4.54779916472895 0.2453342267081265 6.018847424955373 0.4117734841338456 -0.5838489340782784 -1.0101170122838732
Ni 2.725735828258279 1.4841382765999467 4.76594017152083 -0.17980804270200001 -0.06397547441069627 0.27507024304111977
Ni 3.4209088747266416 4.315173199943094 5.0092027923205 0.19587126681244973 0.31463977780362584 -0.5568729197100667
Ni 4.8269322298439565 4.531940976268145 2.7407861808779264 0.5374644332764679 1.2172417405229552 -0.08726581239720456
Ni 7.457989335665962 6.409241106088317 2.6961670462828153 -0.782729162920381 -0.5739041641607406 0.19343026147112494
Ni 5.049679619730099 4.379854345119795 11.930527690982666 1.5408991484441592 -1.8745226664391395 -1.890099437831474
Ni 5.898241966564355 7.961642868213214 12.178808302164086 -0.3690098679140742 -0.010033987197234332 1.1758570069285812
Ni 1.6923663324988711 6.349653035699656 0.39444552517834824 0.6474546838543817 0.6839286104106995 -0.37033372893182026
Ni 2.8054157620647664 1.831281530447602 0.16063268399428424 0.27616938964256954 -0.8821241544809517 0.9235443692989513
Ni 0.8103461932959388 -0.10694733349762214 4.486373787964709 -0.37356843381903404 -1.0620119013809517 1.02242282623442
Ni 8.228988586172242 2.3931842789099274 1.4942882409199827 2.398324000406218 -0.13843873572659385 -0.5538379895384848
Ni 6.8991623339672845 0.8515955759220538 4.953408746027937 -1.050981868819035 -0.6512146651174462 -2.313303532399764
Ni 0.9238638646595522 7.270088347349143 2.6177852585368675 -0.4711721378071369 1.0979903763580896 -0.5770547939745804
Ni 7.719735385252351 3.772864767628004 3.756362481609635 1.2548999171953614 -0.02265887505009646 0.9438537702802647
Ni 7.48159116891995 3.7904779410068903 12.697743772969659 0.8882621490578895 0.07923959965861838 0.3026594655132981
Ni 7.674512861512723 8.929073781148428 6.956994514806463 1.472075344802226 -0.6344672704557783 0.011712660451237892
Ni 6.749970523302367 0.7153906536509369 0.25924655302522426 0.7360050193909646 -0.04352543408646052 0.9896062939250311
Ni 1.9151046760710027 6.520094637975772 9.315443661809402 0.4718871615962905 -0.3613492660450229 0.02357058823108844
Ni 8.968868516481619 4.8718562252212285 1.5209676302004203 -0.18359682032047092 -1.0782900697156848 -0.3589576258843947
Ni 6.333360624166335 1.9907499538287057 6.900193613764507 -0.3113238260565155 0.6025624513273816 0.8066679331241656
Ni 3.202422298739552 4.340801407535484 0.43698038902538766 0.1577433495924767 0.34791833735109756 -0.3688666574679905
Ni 5.971245720630926 5.6459583614331885 4.924478633821631 -0.624119351562551 -0.09770320568044463 -0.6198742031329517
Ni 5.354974624964129 2.6209342804440015 9.228455210913648 -0.6805208702807313 1.6214623520102076 -0.11630385150076743
P 0.1277972780295468 5.40585109496046 12.507893303983526 -0.7542238563918365 0.5453872876679704 -0.669319345137957
P 4.164524932722449 6.003106838576708 12.642996385208138 -0.8977518337158797 3.1976370358272095 0.8973515129536676
P 2.4243669233049046 8.391966979389508 1.3170899467092545 -0.4408881421116149 0.4740342898462803 -0.529972495774797
P 6.271384326878842 7.879004789725219 5.827645436656039 -0.7264615986769036 -1.6536960152329325 -1.0394851810333454
P 4.8759361128400664 1.1699236057513391 12.65545496886371 -1.4373536250503245 0.26414691126039674 -0.4275651997504637
P 4.145817155348264 6.101657383409573 8.33409409013728 -0.584917998772741 -0.5289520249300826 0.05984936805746466
P 4.80831491560988 1.108417716792403 3.878966270765623 -0.1498469775635355 -0.44535929050909107 -0.10139685248194794
P 0.19893749140990752 5.513882176876567 3.6920549492015766 0.16047823202513653 -0.19152224581513466 0.7785236094794658
Ni 1.4241521683948128 1.0293981639086989 2.338510166291893 -0.03132940624090089 0.7983118478499863 -0.08834027640830593
Ni 1.8307568442349798 6.7507756452493215 4.885420268448914 0.15074583522872104 -1.7294756813674086 -0.6881763299434599
Ni 6.314670939420173 5.680904272456628 9.238492096308548 -0.45444788307392053 0.9644318515419326 -0.4067400354749963
Ni 8.534871601816969 2.3760234212315776 10.231241832896988 0.9090402621455054 0.8241856302929548 -0.6735711784357754
Ni 2.4244392938169907 5.352152174992782 7.003838138016812 -1.352403091049858 -0.5875124989727946 0.5433401753309545
Ni 0.7445704441239395 0.11564174589333229 9.178725813533877 -1.2075962470133912 -0.1794516878038458 0.5332838195362171
Ni 1.425273911332143 1.1654547266300397 11.420092136821571 0.15984625486809245 -0.009759393379608999 -0.7489165852463102
Ni 3.8812124705344866 6.783432838828047 1.6057578267915675 0.9564205512016818 0.06420455970236685 -0.6439919221167618
Ni 5.44216299939952 7.878226806720296 7.933974716811403 0.3516184119105041 -0.010875252151607078 0.9454229145395977
Ni 5.567490633704138 3.0610736423219356 4.694840666553517 -0.9835986542783706 -0.23142036756165305 0.06506330815823633
Ni 0.796371447412167 7.545051061705203 7.038143570008294 -0.1762205824610578 -0.2472275097972387 -0.3172641028003504
Ni 5.221939531122371 4.408467836335726 7.260048748060036 -0.36440065127683696 0.26254819931470913 -0.538460221530834
Ni 8.18953761077146 7.506151911459075 8.71608645944846 -0.3421474963055914 -0.9569635681893455 2.12427705642329
Ni 4.718213628063034 0.4446163826818427 10.269731185118431 -1.2967333082913794 -1.1517786258231388 1.068011313497496
Ni 8.169680951517913 6.9758750767782525 4.976976203288685 0.7453142126070326 0.9700867358348647 -0.4069529228167508
Ni 7.174097909381313 6.207680183615299 6.974696342062655 0.21537436984238392 -0.9465781111899633 0.36170767782570606
Ni 2.080163721510736 5.100465626586323 2.635646300919648 1.0224397955152844 0.5608838406416727 0.380458476070648
Ni 2.8187952604866324 5.051597438300373 11.144365008931604 -1.1784895594554219 -0.14799141241203545 0.39358524326059313
Ni 1.24716103477493 3.138139191379323 3.8446744082451585 -1.4900859224470338 0.0726136097016685 -0.1302662272181305
Ni 3.592092274751637 2.6807846939389743 2.7834730228003464 0.07080946661339418 -1.07585703479416 0.07765425744936948
Ni 1.0242236722945626 3.289176450102428 8.167413040595424 -1.1448273913162865 0.39995438001173056 -0.8262877642376222
Ni 3.7172932606601052 2.3419278637251457 6.690178006217063 0.0560068543829229 1.9227928142994368 1.1880283521837927
Ni 3.92900414745316 6.890694984053243 6.127337154991825 1.4570122798215164 -0.24834182590734002 -0.5179201925959531
Ni 0.700767287052596 7.409157332636055 11.42526843769851 0.11464831817521545 -0.8636903732557963 -0.16746983285162126
P 0.2833902604884548 5.606326459752191 8.043908238563967 -0.2490864173828484 0.35332356752706895 -0.1740379729874422
P 8.264811989654723 1.5886141571098378 8.046556094674907 2.049066375418407 1.3595006213265874 0.40278902124704824
P 1.7568394124533258 3.3972618099026 10.170177404061775 -0.30716095292807744 -0.9380412773635459 1.504714470993486
P 3.744730731054642 6.16417645953771 3.702037556712414 0.5850748360655795 0.608697617690842 1.65909687453353
P 6.676604916675368 3.930822456569316 10.41321477164258 1.1478322395808813 0.580501100651968 0.2239258589568208
P 6.497560269775049 7.879321410715594 10.118554613159558 -0.11348772220821099 -1.838106075483318 0.43956865196924294
P 2.4406231495821817 8.516281426524925 5.933063943085849 -0.12074748909441786 0.9039124540006369 0.06139922904308781
P 6.756194387341747 4.042182582041371 1.9246874365025664 0.3961707445995822 0.542169294951305 -1.4743818814482157
Ni 5.197831104283782 3.101845379568284 0.6506977482660217 0.07392641497582107 -0.9641541724005136 -0.4321322502958558
Ni 1.5025565719257876 1.0638827129175918 7.1903523263957885 -0.21949353421708004 0.334744776083617 -1.5807008538221294
Ni 6.776186741305455 0.7114690765272866 9.228005609107313 0.5124280591331304 -0.02527471540638873 -0.6833660530390101
Ni 2.678948292194797 1.551144324477405 9.23050781956268 0.6191316685399724 0.3748912663955156 -0.14467031845860245
Ni 6.266933540385564 2.0075941905166803 2.460876037389399 -0.877883634037043 -1.2696415942809103 1.9072443250418765
Ni 4.410494210674129 6.814253630662597 10.540836551180318 -0.33796585412407604 0.6297068729526575 -0.7288211000480158
Ni 8.240965905922446 7.098678789473878 0.4476161404077999 -0.00617373291087969 0.36305802120601344 -0.7818927830620147
Ni 7.5936388142568205 3.8479582202310527 8.136483692992746 0.4315570945186761 -0.06018618257159313 0.5285445050790188
Ni 3.5397683945135894 8.412791594242202 12.506171790427286 -1.2330637951568764 -0.30136748617475195 0.18719996429069696
Ni -0.016087060205276636 5.085539208468622 10.179221004178299 -0.07630597095159115 -0.6825870087811406 0.236083063144645
Ni 8.704661869484314 2.072890485046111 5.895063996452387 0.6106053762365161 1.4074378113274986 -0.27247008641411136
Ni 3.6413042229699943 2.528824711186775 11.233748923777398 0.2515886149794119 0.31211803982303665 0.09793974717128294
Ni 1.1089876345750789 3.369390116435549 12.40385164654615 -0.49410689222643933 0.9148710098946696 0.2512690268564641
Ni 2.9249628017165303 8.388565565321475 8.158621832639797 1.3997679534870666 -0.34282935286396443 -0.06521628879633284
Ni 5.6275129271653155 7.878127297266178 3.6840308686740615 -0.6778088706662068 0.27720400155467095 -0.19160452111629583
Ni 3.0845488271797734 8.593636457630655 3.4889633903979433 0.5787712624450548 -1.4672216162543505 0.05359798783111414
Ni 3.295391267827798 4.018218896226954 8.821054459440536 0.9914083801307766 0.30076173426995295 0.0688320311720492
Ni 7.086086320370946 5.968613243253805 11.606275230107755 0.7141951226047248 -0.11583745338731018 -0.7759784744601087
Ni 0.6417174723475725 9.008699437070852 0.07158076887268315 0.15187609217842232 0.05846688588764124 0.9478371804080451
Ni 4.520162675426177 0.39086951724990765 1.687290445707452 0.2359498800008904 -0.4309557134892514 -0.8351989506843228
Ni 6.143695604617424 5.590305437639193 0.5622636963913533 -0.5260045122659844 1.311442075256464 0.5578108581433039
Ni 8.056665350581895 9.066668217251594 11.30867592420265 0.1300862499968405 -0.5935139679718682 -0.18697704964661346
Ni 0.0564001493312814 4.791850624110356 5.930693808815039 0.41276001641683113 -0.2539038933761498 -0.21942128621824789
Ni 8.04466993820367 8.942679437420564 2.2488865241248135 0.08484717565338291 -0.27326789972505844 0.4271934182333417
P 8.656336460039007 1.3603213767351199 3.7446845948531866 -0.7948308312799215 2.0838845115388565 -1.3610782502263528
P 1.8754727743900057 3.209795044658295 1.647623263401813 -1.8892494311263528 -1.1213030829421011 -0.7911225291903988
P 4.681422268981406 0.9711670406216462 8.092393767767263 -0.6853581437683746 -0.3230665684147404 0.3217859019301039
P 8.503155224895359 1.765994282232182 12.482524725603243 0.2545304712165552 0.1574931812548836 0.5976151346244353
P 6.2997987991865365 7.795914395536687 1.3698172925521803 -0.316301738887081 0.07721691280163476 0.18436403750379862
P 1.7432247098671811 3.219510785905816 5.979298749363276 0.8038397196467512 -0.2946178261557442 0.8690598650978258
P 7.086954766515976 3.9203558712589044 5.984065252215529 -1.0891303548642983 0.7132828952031006 -0.023121416508811794
P 2.3819035253385503 8.456684309822252 10.421900137724279 1.0283823862519645 -0.03565554442008053 0.32343603593901715
