# total energy = -340889.2191811899 ev
CRYSTAL
PRIMVEC
9.11769520718680 0.00000000000000 0.00000000000000

0.00000000000000 9.11769520718680 0.00000000000000

0.00000000000000 0.00000000000000 13.34466856647809

PRIMCOORD
 96 1
Ni 6.441560519673102 2.136941589657807 11.286480393870267 -0.06869216316007523 -0.724702707004268 0.67110497628347
Ni 4.74994540158867 0.6642368639937055 5.830178935064165 0.5363925403685279 -1.2026342750224257 0.07314325695289338
Ni 3.038298707032212 1.9844937250186272 4.846610294897171 -1.1835170945770004 -1.521270575579954 0.37885385058768944
Ni 3.5629126565303664 4.432604018289229 4.720716805914399 -0.10851932245934214 0.5273594836319822 0.133302442941293
Ni 3.553849667448348 2.8652357334247793 2.7655893537683722 0.3248946227624147 0.2408905118356174 -1.6810240136239245
Ni 5.157123436221236 4.571676223991467 2.5020715490896244 -0.34423703184476845 0.367365904552748 -0.3766481011856223
Ni 5.342103237525045 4.632883312228477 11.471410959619707 -0.3013906261032035 -0.12210554578420904 -0.220759031193065
Ni 5.760350154195408 7.991659889727348 12.265045242882119 -0.07415858559128519 0.3801520005738227 1.0669833864536142
Ni 1.8115583991447437 6.681410611012712 0.17272835419162785 0.09156289711066165 -1.0866633813810447 0.6405389305711549
Ni 2.772909951287439 1.6513149050637874 0.42384974040366274 -0.07014380800493726 -0.48689906162409047 -0.121653545848455
Ni 7.966668287037396 8.948343181900231 6.932595821091522 -0.05366355096172694 0.6205149220407442 -0.05661157784645734
Ni 8.755841282012252 2.3369747058252095 1.3066642009409446 0.013821479264124583 0.385331230781917 -0.1168880061390116
Ni 7.247263896142625 1.066305342206188 4.740907030283837 -1.467450444435705 -1.336337295836247 0.3472771042226729
Ni 0.6415183027304613 7.229748803560575 2.2385947740395187 0.47137062697118814 0.47630945903370225 0.44982503958992853
Ni 7.945460527877664 3.8918791012780702 3.7687345974142414 -0.03011327444561265 -0.34097738725689014 -0.6120351667045072
Ni 7.80274124407401 3.7395862374582007 12.494959781703946 0.059947841308541916 0.3090849094236677 0.8394924358533543
Ni 8.163820211504682 7.526146840862636 8.886134970724383 0.19970426740529476 -0.71415758449857 0.12747092386118045
Ni 6.905623854992501 0.828733762910438 0.3105441414879277 -0.10918215285432165 -0.2766823247232461 -1.1100218536013269
Ni 1.7913718218534074 6.789993243787113 8.762990466860552 0.1987043653858707 0.18480215348248172 1.3586655270198018
Ni 0.05899969421612858 4.899849429252113 1.114582626804154 0.5693692524048646 -0.5274916383344721 -0.6049407217515711
Ni 6.612854660401348 2.1692729370268578 6.704948853079249 -0.38820212457180886 0.5002106911313321 1.4752871668713043
Ni 3.532596319812348 4.39945207834736 0.26144079369999085 -0.46228434839920385 -0.016611640414752035 0.8979819474488149
Ni 5.987681649951908 5.597818118605813 4.460055575158586 0.7658910083171196 0.6402658794154263 0.7181808467253502
Ni 5.323895200103727 2.9965943689425223 9.084143046775974 1.3326048253770082 0.9160807139320546 1.0278591667586428
P 0.24481649994421234 5.779050547160417 12.281338564300194 -0.2353973499315301 -1.1879568755159091 1.3222864741701357
P 4.3410167694674255 6.14438747827449 12.686696706960152 -0.37336814488276987 1.0189724057919742 -0.1427237362551929
P 2.3796819903927884 8.416480664675513 1.4939088377457328 0.5430666099545938 0.8648841364535813 -0.27277604769030445
P 6.569873844976163 8.103242244240164 5.441195261310037 -0.1847659009279076 0.0637078225716064 1.8582617244955868
P 4.730807359251491 1.2773982227161338 12.64209841239699 0.12177952990335798 -3.619755096420173 -1.7661321562481778
P 3.844257378968834 6.4252398451692665 8.14099497320697 0.5310009370393114 1.5934838645194105 -0.6770267410845436
P 4.769657858726823 1.31718784480258 3.6938309073673636 0.9614300886011313 -0.5669547294261009 -0.9218788086710704
P 0.44421502452196854 5.5080999973109845 3.6045549942923323 0.27357231833935464 0.45967493580081475 -1.262754894463406
Ni 0.45248021526930204 0.009722198448849141 4.901203406997263 0.038520267562385274 1.0086576541295276 -0.9636309529071919
Ni 2.0768468602417283 6.7787237724537395 4.640368028262108 -0.43128481469389596 0.1313381201260706 -1.2363414374668837
Ni 6.172196448797785 5.340489405465169 9.036302499780652 -0.31810845307851665 1.2826986845751844 0.39166231520626743
Ni 8.933818693361342 2.703314583417172 10.150235034913228 0.08456486852627372 -0.38293650529749534 -0.040108437985111565
Ni 2.431561676385428 5.592165147548618 6.63430221494625 -0.8362962975135597 -1.6970957223748062 0.9884917207046137
Ni 0.8139649201387547 9.172127894203104 8.89959998307481 0.19151633227786372 0.40932013749734664 0.7156778777978384
Ni 1.2998003999540801 1.0172886125231597 11.421448724938886 1.2154586804806036 1.1505936043761023 -0.019442682105643934
Ni 4.317675469618364 6.931627521855596 1.5889361929866972 -0.7231975832136512 -0.401438934977057 -0.8315107031994583
Ni 5.749691568444019 7.56489704569018 8.082719223993973 -0.8453514657372926 1.1578173758180512 0.1461322477161096
Ni 5.641026876412337 3.1162094129737072 4.6135054745061295 -0.5785120952463971 0.13624198518559116 0.36414276962976
Ni 0.9571847654118275 7.6633043305616315 6.635155631221981 -0.6546383460870144 -0.46685551270965403 0.8844579448204509
Ni 5.02459773571104 5.048723157351906 6.868394481733248 0.3304561760105922 -0.13195827020857273 -0.16020415242814343
Ni 0.9840090248477407 7.5210500492159085 11.209601811031472 0.9012907001070737 -0.540749531785643 -0.13273397203233273
Ni 4.811854552360204 0.47011383788964733 10.302791400125924 0.057900986081842215 -0.7211651261646548 0.6265912101418112
Ni 8.227252017383554 7.176720287965991 4.345958560294844 0.33112851948726846 0.3668336861983618 0.49908197684352756
Ni 7.122643237417248 6.247061844524599 6.71021979270532 1.462050356466056 1.155500040538784 0.231766180936846
Ni 2.4420834967080127 5.276847892595463 2.385252902192701 -0.0925802826315825 0.6186243898862508 0.42879213017902923
Ni 2.600831688767388 5.4468837913787205 11.406636117229985 -0.129443474206519 -0.8021636174959088 0.48411687089326305
Ni 1.4145739478056352 3.491511984999899 3.731503400615938 -1.4860626602202536 -0.12565443947773197 0.7448570704649559
Ni 1.678822991643716 1.1636823275139894 2.691872787643505 -0.8295134702637713 -0.26606932509409015 -0.3556326752762197
Ni 1.491846415079382 3.706151648963471 8.241107267090833 -0.8044812098854919 0.35876556447824665 -0.019516215656056712
Ni 3.843126784757395 3.0944910628797757 6.923828245335718 0.4458002347012516 -0.6314241127540802 0.6972448679036314
Ni 4.055058493230666 7.169097894734031 6.047109875844952 1.375755135512237 1.1564783452916534 -1.260237527358191
Ni 0.5528961284051083 0.03829249652581508 0.350009173623348 1.2250998031147933 0.5546769405000125 0.032785164850820954
P 0.056377445061210625 5.814162791581798 7.804975991180653 0.43966995343379767 0.3837780273621842 0.4177649258305902
P 8.674885265856075 1.9440111580929118 7.751090412232235 -0.09924946712164197 -1.8952465292500524 2.4540266932851607
P 2.0606538334714424 3.4326207913572873 10.323996423977082 -0.06949434734639644 0.30648038192128507 1.2611929492929246
P 4.145104851554622 6.353638584343221 3.785081713234312 -1.2749028426798494 0.0017033558443519052 -0.7754429136716129
P 7.1622869763796375 4.019225950884256 10.447847549223061 0.07309234911029992 0.37024579720370426 -1.565445984545588
P 6.383708743289395 8.022012697226382 10.180207634520189 0.7220706686980597 0.36445258756069493 -0.8146833472294744
P 2.507256782380313 8.94532522477131 5.642953445419409 0.4361678538178101 -0.6282398014888277 -0.35006469427013903
P 6.775988463877677 3.9421905436871016 1.3059749031797772 2.119577079844459 0.48808845394650135 -0.1604715471569172
Ni 5.184202991124248 2.613395872826766 0.6724756134248039 0.00928168241224208 1.88832846197398 1.412864895880341
Ni 1.6728600189479013 1.29065535161478 7.060156936536165 -0.57599421392055 1.137004552837758 -0.5656416670416322
Ni 7.115969084491656 1.0183189120868095 9.20412462215635 -0.31785417097586544 -0.38524689859822686 -1.111449587186789
Ni 3.187245376694033 1.8172296055924455 9.34648558053654 -1.984599306083272 -0.18383387603194146 -0.21558082942623516
Ni 6.530485401480872 2.020608915917897 2.6106705937154824 0.5691771909987164 0.31527946827015374 -0.6641120899054047
Ni 4.185997714766747 6.994238735161651 10.531492373709506 0.5180492619746496 0.7986514905775922 -1.064842428851211
Ni 8.314362477835871 7.386463749578412 13.266149034560721 -0.5606616973285377 0.3422243722901138 0.305510561808848
Ni 7.81466718946564 4.011950030071932 8.123073231416612 0.9468776447082532 -0.5665914325494114 -0.6340592363840821
Ni 3.166593796944766 8.268372822977017 12.579137991362725 0.9776259816347034 1.1890778764942296 -0.01864898255975498
Ni 0.5015671512057824 5.212978437344419 10.293623557548491 -0.8307586555247821 -0.9619813331189111 -1.6406826336924003
Ni 8.887591978425897 2.6435936795064885 5.821144210837433 0.6050350812375903 0.26611894738510294 -1.2809544481905681
Ni 3.7475551031097942 2.9256222290889715 11.750474434705739 -1.096947536915872 -0.028578582968641103 -1.2253420010325866
Ni 1.0408487370583055 3.4076018355815747 12.626364917467484 1.0756636878364314 -0.07655151130349395 -0.532272090442251
Ni 3.2744105433178703 8.764211326255001 7.753946074385643 0.6936175555636893 -0.20290734772362476 1.3683745267774496
Ni 5.957046193900014 7.799385932220708 3.4080413084927956 -0.7181368808612922 0.38123032123966605 0.4050904156867152
Ni 3.423475743017987 8.647751004781542 3.5218182922531387 0.10859671266449684 -0.23291135028488275 0.4992185024213919
Ni 3.835094095239027 4.795725349456692 9.320890386420803 -1.453884532825812 -1.6093789384831123 0.8324895221729598
Ni 7.323971066310653 6.226428500165839 11.063010242053641 0.851744770858146 0.021408033362130874 -0.23635765696227037
Ni 8.059896721004838 8.977383041282755 2.1624766069848698 0.07152680439539295 -0.2534508649991313 1.0283461336973903
Ni 5.013054733520058 0.1880141702841868 1.6346951701556358 -1.045715221103457 0.6676481280831211 -0.17593981799584538
Ni 6.630387988373904 5.780354377581673 13.230664788172994 -1.3898445237257677 -0.28716959740781506 1.964023795924766
Ni 8.418468322240784 8.905800015847216 10.971412963767058 -2.324277514912765 0.9721294772965063 0.34675131362618994
Ni 0.09550056362462314 5.0974663561773275 5.66848116859027 0.1309138881044584 -0.028497850329376722 0.9205238373050727
Ni 7.648989549013574 6.083928041048271 2.3161808900299876 -1.734369262014284 -0.4762143282167347 0.23297485653296648
P 8.705566310384235 1.623806818483859 3.4182768331844193 1.2219185771733345 0.6149024609499734 0.04349560928978961
P 1.700623400994929 3.3384349993882245 1.5245351761023718 0.8230258056568988 -0.45775355040838583 -1.145134381033744
P 4.823543437675242 1.3801364128330165 7.954089514665614 0.580273043801562 -1.7492947729758648 -0.5149510826653002
P 8.570296183602723 1.5492878951766806 12.426528743517558 -0.42995144059445306 0.5075830723360033 -0.3271494802348624
P 6.435096073738343 7.61811703288509 1.3205714215111686 1.002204442305016 0.6808599987877049 -1.8134018878684186
P 1.9153815949967978 3.3212299084447956 6.109589794339357 -0.6811361352672269 1.4629502425725063 -1.0718427714284444
P 7.006775566135268 4.332655842919929 5.881969267643321 0.414959338060995 -2.1326706798036237 0.09534678963312612
P 2.5870092627630226 8.76122072221184 10.36834033484267 0.726608151557097 -0.14155157032396268 -1.3426064166744103
