# total energy = -381165.4025196398 ev
CRYSTAL
PRIMVEC
9.25535620606455 0.00000000000000 0.00000000000000

0.00000000000000 9.25535620606455 0.00000000000000

0.00000000000000 0.00000000000000 13.54614935332631

PRIMCOORD
 96 1
Ni 0.954421560063816 6.15907842031814 12.786860097486581 -0.46555993382668204 0.5575228945892399 -0.711146308476072
Ni 7.919641482903834 4.924302873424358 7.296998518353245 -0.7124683697216052 1.1210264322419468 -0.6038770563737471
Ni 3.4570420406310687 1.1762724419863115 9.532072573642651 1.0658999235814481 -0.064904671093185 -0.10411939361943359
Ni 0.2776023695085005 0.9921001141024676 6.4697899746368766 -1.6465681459388999 -0.4544036600995464 -0.6432169916239503
Ni 9.21870473216865 4.3933323584050985 4.979415741450385 -0.978892764162269 -0.0538692392146298 -0.3198850853629652
Ni 3.6399741508187247 1.0628480549208053 3.1223470824606108 0.6800357031141966 0.35013951337213245 0.3060335241918536
Ni 7.959893025894276 7.4234711062253576 12.802302658875304 -0.053008948096863545 -1.2015541545843693 -0.60749768384547
Ni 2.379959248271932 9.065880294859335 12.727378701456074 -1.8054420095913937 -0.812379381686646 5.417865091126528
Ni 9.152677022880576 3.7092319793304496 2.102321708410853 -0.5841574664576328 -1.2211837558898389 0.4128651745361277
Ni 7.719290792833901 2.623384364894525 0.38251182910764475 -1.1042960068611434 -0.008401850910450046 -0.5401952019440697
Ni 5.780228935556626 4.313217997373762 13.150764033473441 0.17348518580776573 -0.7242939016016235 1.2781879411890245
Ni 7.380174551130095 8.440329297471866 3.5981686335656704 0.9756413471045068 1.2184632716348822 1.001354435599895
Ni 7.153788544796168 6.8904644128989245 1.5958445673557025 -0.3220970054126195 1.476686361211676 0.966170174389278
Ni 1.2743884703242496 2.134868167579833 9.726148132384113 0.12685848708816216 -1.02242745422011 0.41968271167859333
Ni 3.037043243352765 1.5545666053913245 0.7351464436998948 1.616224757760352 1.0408445232747172 -0.8473484415626632
Ni 7.252793087304508 0.5773676143549904 7.516622561636169 0.1036689363455763 0.9966313190926127 1.3753491583230701
Ni 1.6172901526082104 9.243037062939372 1.5749700375647973 1.3242528538678873 -1.4071117954466477 -0.9281253038014144
Ni 6.919035696690945 1.6045085060527255 5.448206924182131 -0.17072202124033178 -0.42514707722727424 -1.8123050552598141
Ni 3.3009134412505685 7.869125750174046 3.3931884144537015 0.24261237962273055 0.8978330805757763 -0.10990206173948168
Ni 1.2169774974178984 2.1959164953712715 4.829147633452169 0.7104752505509764 1.125001614839611 -0.4017762637118177
Ni 8.576077603068747 4.151323311241585 9.557037970759787 1.5069379610073659 0.6674725217372053 1.4009066950772004
Ni 6.887067697268321 3.359000055140664 2.79874281731509 1.9290372525472517 -3.649261333409406 -1.063052169720008
Ni 2.7580312831343443 3.772649678242962 10.360907283397976 0.2597495535236494 1.0521604625081686 -0.4146572334395439
Ni 4.969385712216368 7.537895071732567 11.071227160319863 0.43581741245692684 2.4987415196940317 -0.7297374412146981
P 5.3185625258288 2.0051358433450557 13.13006535544543 -1.2571558031090735 0.7689020272293016 -3.312180710103761
Ni 2.191955203028225 6.670520134300419 4.822780874099875 -0.8047213509207561 -0.5810544020522767 1.0104607687765372
P 6.232297541172912 8.799918386518709 1.870628680979956 -1.0025741669396089 -0.2005373048295514 0.40391824975548496
Ni 4.524628837794023 5.945714699794182 1.2364720536378964 0.8277859460497035 0.4976686414357686 0.05829050821077703
P 9.29376566885582 0.2669513058907947 10.730974360906416 -0.8954676656673933 0.006741432488891615 0.16183397472208255
P 1.0733251178468073 4.231548736544221 11.723392859253275 -0.40107486676941895 -0.5464442681775751 0.2497078530169312
P 1.9741674223641346 8.887622139422236 5.699244571066771 -0.41232344310004465 -0.8298261164081838 -0.37898754795207634
Ni 2.0896650091605813 8.983489116266341 10.77183027863985 -0.5352522561164975 -0.2623142289270321 -4.31776923838966
Ni 2.0328186129666737 4.498362137631485 5.798456433548205 -0.8494258929169823 -0.8447541984729259 0.4774394588730874
Ni 6.825501069544147 5.881334443863733 10.035677777749095 1.845002031272203 0.6962467656564203 -0.8510911964345472
Ni 7.1556858927642155 7.36035883405892 7.715805225786258 -0.15472693136365612 -1.5079016104722158 -0.29984976397864493
Ni 5.945612890878824 1.578445423720905 1.3603040884598416 -0.2967446426907599 -0.6338882580238566 3.2835697312352874
Ni 3.8403618623124234 8.529782312648376 1.3415943864236997 1.199842314099585 0.48149665966159655 -0.9555700302759285
Ni 7.469072244950103 8.423373485386676 9.602838099637278 1.392226393694383 -0.4654239224694501 2.039707559911326
Ni 7.771278127158417 4.940333149915378 0.9409059637821547 -0.37412842008756214 -0.783822910205192 -2.1980810868886342
Ni 3.324727472088557 3.480939369672532 4.094729586264886 0.3543990599794348 -0.49432697865704545 0.5960524181230057
Ni 7.944677220726126 4.67997998727542 11.882573875023349 1.2754551156388938 1.4804604835421278 0.9243920620112274
Ni 7.740365238313148 6.62997241991984 5.200406800805897 1.01357334626359 0.32778865648075806 -0.530430409247822
Ni 4.2429328243525095 0.349030578988553 11.894521614008486 1.751803912550964 0.7577172142570757 -0.0017496357012550512
Ni 4.544287213814189 2.501685689617141 11.121794723042921 -0.9702232614127291 0.7485365761990721 -0.18995644398991154
Ni 1.6473700594187282 4.607982573404953 2.9287722384755965 -0.8981698950899047 -0.42072426556923026 1.7162095603861216
Ni 5.706639600464188 6.1844473509543345 6.315742904807665 0.4399489181267972 0.4657453103646108 -1.1780339599752423
Ni 9.289600758682054 8.589266485285666 8.105094752050007 0.634488610612017 -0.5324446114643733 0.571033784591481
Ni 0.09118654334438896 7.194595409143113 10.594036742071024 0.2912699927294338 0.12019495902505753 0.22030266038193674
Ni 0.16712766438161336 6.836542709182593 3.055130985469625 0.3056830828309703 0.7870743272629541 0.12245058782845361
Ni 1.9949549518091878 6.39435882371204 1.5102334504305923 0.0325895039002471 1.5580692324655425 -0.1588131856178878
Ni 3.5958908904684184 4.67550965035558 12.528223803373809 -1.4134359378924626 -0.7149908790331428 1.125767803581674
Ni 5.800155716899102 3.5016343455581684 6.565967005905029 -0.941674503240759 0.5062944354315667 0.35538764914494925
Ni 2.804252530707183 6.617227794788122 10.94243055257079 -1.455030216394481 -0.3545777516491442 -0.011903950526437564
Ni 5.640084335887439 8.772707640050116 5.626921368667157 1.3744711265934908 0.49335972964776975 -0.03307955616278819
Ni 5.869061841885041 0.6005893024127101 9.632273833674255 -1.9910352915166034 1.8373427149547323 -0.8314551673711744
Ni 6.75350365567368 0.1522182114951324 11.62129517678922 0.18118563977581698 0.4915167629017599 1.1002316069837828
P 3.376326081463522 5.6294684426223105 3.1108186110996323 2.479367228932478 1.0204343350494813 0.5097548831763414
Ni 8.28083174852859 1.7777132371456579 9.480651667101768 0.6160725699986744 -2.68112452221206 -0.11764571024064256
P 8.004957353974403 8.492316631796383 6.1228594359114945 0.5075162236538099 0.6704416316678582 -1.5148392181323136
Ni 2.8817939027867268 3.085319179944661 7.792923628099266 1.7917711969725207 -0.7710566116784592 -0.08847937308933149
P 7.94110465333263 5.373641149037843 3.0772920097364262 -0.22489645040020625 -0.29063364469701564 0.5910675633139046
P 5.079478171142863 2.383753944208028 4.491618685292364 0.7588868090851446 -0.49675564270319605 -0.04078309545463298
P 8.004651927228327 3.010591436071393 6.544402026560874 1.1933515641689192 -0.7721465023085283 -0.13354464085908616
Ni 5.52822410397608 4.806565490490021 3.0696119153760058 -3.90023082674758 3.503662589599263 -0.38557060048623276
Ni 3.264086379958553 6.895110601581656 13.234790633461335 0.27881428346458437 1.1176487740189653 -1.9173878412337817
Ni 0.5857048389872718 6.618486523196194 6.566197464267978 -0.26092351922709256 -0.16993217834918475 0.794815918881586
Ni 3.8442861332317033 5.16854246136982 6.722167797061874 -0.22677438414920945 -0.26254305710838655 0.9589474313885937
Ni 5.150078026266134 1.400798121775958 7.41418705868024 -1.4217318593526678 -0.2559222093577592 0.5354957395858714
Ni 2.062111814522147 5.1722723698143245 8.618804953773594 -0.9067774342532576 0.12399196417364454 -0.6819421761082901
Ni 8.682847389212172 0.39275935920629246 12.924475208376903 1.0862687170457872 -0.011351677567393354 -1.2380041698812871
Ni 1.9666057965597676 7.423693234767957 8.928348482172488 0.6982149451263847 0.9687708452369187 -1.0140711118356147
Ni 4.000461009391912 3.6606228499246525 1.7717416814920746 -0.6331362103491806 -0.9815643974571613 -1.1788142897846923
Ni 1.5910234524456721 2.0547167851247305 2.505969993882553 -0.07162013544014763 1.5736609162562123 0.6649461557709258
Ni 0.6317196921226106 3.1706720724389976 7.740269908146948 -1.2797555427864604 0.23569585500855536 -1.055150398374428
Ni 2.145835764370745 2.246311908473816 12.142347652381357 0.42989667609711774 -0.039180783964519614 -0.6941487454768109
Ni 6.805139286472412 4.6385067373006725 4.7672144936327046 0.65105834204524 -0.9551103170306906 2.2765894648081826
Ni 4.747470042802281 5.394095485668995 10.749519317606795 -0.675213599135205 -3.3380953730869933 -1.0640258464871868
Ni 4.965905698382289 6.257296257571438 8.503093568254895 -0.6706180093447225 0.20659559520848939 0.3917623311192414
Ni 6.734002620704523 3.094407939479408 8.91087344461897 -3.3739100687927572 0.6263754945865793 -1.3237972543877072
Ni 3.840241542685181 7.958884192096631 6.653218171903008 -1.1466191931093865 -0.741602310973084 0.891597898299342
Ni 5.7208002950549846 8.167444382886849 13.416458462027355 -0.34647466292603557 -0.8342052193124859 -0.20073733665549945
Ni 1.6827532851838387 4.346703875170825 0.42927173839629024 0.6504844718196411 -1.3139285891237436 0.3464211839802808
Ni 2.1308698538130195 0.6488893029300541 7.771818639945413 0.23774219601462282 -0.40588411523260415 -0.3547800974679374
Ni 8.45158381029697 1.7070856159545622 3.353227489639827 0.23903006158811088 -0.3015610902427968 0.37245231793671985
Ni 8.63687603624976 0.15953271929585616 1.5515077102525934 -2.335555401819429 0.49623910807809374 1.8230216703463697
Ni 5.464306615842714 7.125781837716589 4.04618061667271 -0.4180989121312412 -0.9767273810798339 -0.5459997244409888
Ni 8.786275991860645 2.406707226943438 11.759615545802298 1.959658834087851 0.4433373749830558 -0.5450887825909451
Ni 0.9770694160531503 9.25441189539172 3.673119431517133 -0.18527986444984865 -0.28139001461156055 2.1006769005058468
P 4.494641484542922 8.367397092651288 8.786547173789737 -0.7482766376694662 0.7553415149360475 0.13001940131464704
Ni 0.6334421138633606 2.2630733580842306 0.3755869717920664 0.8943698046175242 -1.1507393859253472 0.2582336310997552
P 6.179773396203777 6.147203798644943 12.179301512049774 1.0632779125775687 0.6303360218962242 0.7387717835028244
Ni 3.49221239320952 1.1280520375300662 5.689612522138246 0.3078096422556699 0.981282090330052 -0.42238494110110486
P 0.36872782750367417 7.770223016581064 0.6454065124891932 0.0814018974172598 -0.9964922224115872 -0.1440031171882488
P 9.018455851014076 6.129979581237444 8.716703481246903 0.939347397769479 0.7817685987793246 -0.10030850451377564
P 4.656351063556266 3.952749649512459 8.844050700255506 -0.37045688477324584 0.3168457843160092 -0.15068130053937276
Ni 6.641884063016805 2.9263029095103517 11.367101453528461 0.7579642972708753 -1.2341896812312034 -0.3817635680353167
