# total energy = -340891.1425415305 ev
CRYSTAL
PRIMVEC
9.06783549867302 0.00000000000000 0.00000000000000
0.00000000000000 9.06783549867302 0.00000000000000
0.00000000000000 0.00000000000000 13.27169384316696
PRIMCOORD
 96 1
Ni 6.515657033377771 2.382718901827501 11.709217281822632 -0.528753021545399 -1.1565714192260919 0.11281023652521217
Ni 4.605272622608066 0.3213994599167463 5.971731073097099 0.4794634312816517 -1.0226863643084516 0.3512093493975435
Ni 2.94399979275448 1.83704375605037 5.06342955263054 0.3046029623929141 -0.6671452203047735 -0.9090263781884345
Ni 3.2247490522457434 4.3202614803623405 4.841274833528173 1.2924858458689354 -0.7261978034925558 0.8934560345540032
Ni 4.7954160683066 4.710985450590015 2.2455171077750316 1.5945151339974022 -1.2239569477596017 -0.1648413940898387
Ni 6.900287418050129 6.088670788394579 2.711035306776382 0.9982266886041904 0.02530376887211126 -0.5885849061013669
Ni 4.902062883360272 4.55878182924184 11.344644042819624 -0.4183974172082665 0.6359927059613691 0.5632279153938171
Ni 5.628650418146485 7.822558846115676 12.457622029177431 -0.40433116892318754 1.0096660407893836 -0.17242769107752884
Ni 1.8784565614538327 6.351084884206009 0.6740575628785583 0.16524197196236703 -0.16701809002618334 -1.8359674318737604
Ni 3.0044278495113605 1.3631042580829158 0.24934099715800878 -0.9897844713741082 0.5610404208241951 1.145156235410615
Ni 0.6944420574147929 -0.15445153780526263 4.718791043515634 -0.1952292623530767 0.3983389558954947 -0.49035436716254255
Ni 8.805113245567739 2.4391027038854665 1.4700793287870377 -0.7997912606089903 -0.7252801767742929 0.08225421811522607
Ni 7.03777394214194 0.385538075020703 4.803317780290085 -0.7203161479007982 0.49592517638210076 0.13628646527028143
Ni 1.1815843240854316 7.359618632788993 2.6006416620330426 -1.2322999204076583 -0.16708133916395096 0.834977064481504
Ni 7.724154693665847 4.005417158835383 3.667061753040832 0.10390496361578233 -0.45675339127864567 0.18650422377525297
Ni 8.10769693806047 3.9114109066747313 12.712026505761166 -0.8466737840931419 -0.06882740318635888 -0.3710747208629029
Ni 7.772087272900071 8.821825266666618 7.267911076965056 0.1526890749980209 -1.3493792166218697 -0.8082900421086208
Ni 6.980392678162717 0.6783928951017673 0.42696085504337794 -0.24212207024987334 0.33228525879953097 -0.45778980296295996
Ni 1.8636850571835806 6.485433937163683 9.294100816792703 1.1061202045540757 0.5592522185755207 0.23563183453983935
Ni 0.1062315081810034 4.899696178256198 1.4604574483811668 -0.399923269663479 0.22138740880568322 0.12383229866732866
Ni 6.440566286378412 1.680324352549595 6.946908788249684 0.48783751427795985 1.7478824660093706 -0.15290119100882696
Ni 3.31355943458021 4.26878337738983 0.2640925521898355 0.7292152501626409 -0.5101742301019472 1.333014402110601
Ni 5.683320399267017 5.5606960578019375 4.727603166198158 0.9860561146799276 0.4510460564812232 0.29780985073048066
Ni 5.3373734014681355 3.099730802169646 9.128842232462404 -0.4676594966681881 -0.42683063557728423 0.3221710531836645
P 0.26594601779624405 5.637437150889194 12.335335917982015 0.5480962019587013 -0.2220057591159725 1.6320318999959376
P 4.138505782638014 6.087047645813624 12.758610697834564 -0.7601592480396651 0.7791481304373421 -1.3867525150640052
P 2.4239866218605988 8.526549334467594 1.2934805091956099 0.7107053642839115 0.4914172612094182 0.9945453830978613
P 6.192633524096505 7.6051212151172916 5.90696587054988 -0.5264827374539837 0.9319091963238789 -0.6184480122093865
P 4.848381296325348 1.0264245883160763 12.41410367233655 0.5464208711388073 -0.28927430245564373 1.171873853911117
P 4.197700613746795 6.1129544522593635 8.350536297059014 -1.341756152858973 0.0843272985941709 -0.5497501926223564
P 4.939993639874982 1.1769415922337623 3.9976333287153185 0.03706682294531036 -0.48526332579288045 -1.296583927197709
P 0.06914496716510218 5.68244988704483 3.534782886961548 0.2108109188414176 0.19399487572534332 0.6963110432354525
Ni 1.6585615469948962 1.1190888008008546 2.7428343928260563 -0.1155209505881559 -1.6866043359251792 -1.2169656040434333
Ni 1.9397188590903098 6.296052189659563 4.822097267916661 -1.54697517943491 0.8248865130147213 -0.8079586269111311
Ni 6.106017557988804 5.5865937964120285 9.326391379534488 -1.3567739664240441 2.223049583908513 -1.4655118326520955
Ni 8.470627992027666 2.5666055409290585 10.210113624694145 1.1902893803038272 -0.5917730740213616 0.7752184563656326
Ni 2.305216110545829 5.219065349771404 7.041536187152208 0.5105107875057594 0.2052185123553046 0.6250135812420461
Ni 0.5539966985511087 0.0054479556571929485 8.995169640044054 -0.4220380992846473 -1.0193809540843026 -0.2623044587350192
Ni 1.385275116241765 0.9611361716519798 11.194527837237569 -0.33287969785042026 1.3559468425370584 2.597314015353308
Ni 4.18827913250874 6.994719858486228 1.4392359926146407 0.32576339852061315 0.7613152160209792 0.4545250161687591
Ni 5.499388420987221 7.9921636440719634 8.212099463791315 0.5769419225458 -0.32336790170524304 0.03721980358340687
Ni 5.534789251356198 3.109941185109059 4.769912780547187 -0.08854853576437008 -0.41951816107627105 0.19750237465796955
Ni 0.8897940679094178 7.678307716630615 6.797044668498638 -0.5696407608986964 -0.96136375413957 0.729943129467601
Ni 4.874206492250257 4.54724754229785 6.894578308726281 0.4757600142881354 0.11773132797591336 0.6192072589729143
Ni 8.163391584609204 7.082215404651765 9.130740130463487 0.5598564278184229 0.4705566157103251 0.35848608556461486
Ni 4.639449295164591 0.5757858008291861 10.343932209266423 -0.29089229767504093 -0.9360702696801041 0.4351507254072054
Ni 8.102346915028274 7.189796206777159 4.889039657802914 0.02758459448648798 -0.5465337425675878 -0.1440188009175326
Ni 7.1335121509113195 6.17574014628467 7.1316641260063 0.4680441337011165 -0.5116310171531316 -0.060882951528301595
Ni 2.461318901222555 4.886874258650221 2.736224847422381 -1.5771121080296064 0.9549974456019102 -1.6175982410691108
Ni 2.324104412200178 5.221695022109263 11.623004834401257 -0.34022328269968505 0.6730178770354668 -0.9823136169183598
Ni 1.244542306988046 3.131567973129041 3.738025728036881 -1.6251878804909106 0.6821838598054509 2.005924807033926
Ni 3.6444356895324628 2.5943621858469474 2.7234582416138564 0.5204437303487552 -0.11719165342235947 0.06049677183347646
Ni 0.9847216121718847 3.3597872607126495 8.33388049654115 0.030849638391004935 -0.2291264293211538 -0.6808869953708983
Ni 3.507638320949885 2.65112683700212 7.472441550702375 0.004645983412443612 0.10426568938931075 -0.630637612297043
Ni 3.9580105140687305 6.712438134770488 5.930669192933206 0.9950711736943444 1.1713627186026536 1.0393334859468293
Ni 0.7679794841676852 7.424027469395254 11.389621414416231 0.7498663507540891 -0.1470115649972694 -0.11392815217973928
P 0.412304512285853 5.8061623687876445 7.929213822221432 -1.4877698727193474 -0.890798542326498 -0.20501539520556303
P 8.536814124420895 1.5385034030181408 8.103484021618508 -0.4589521987021773 2.4394462243678245 -0.7641897093552967
P 1.6936812744587915 3.2139583278248716 10.52521003205211 -0.5147919313796167 0.02296869298103141 -0.8135314930132181
P 3.9536035459439036 6.132559112929888 3.567006347719539 -0.14473948113364105 0.7926381945039769 0.8939242324396733
P 6.779249947823414 4.107847430312832 10.503484404623569 2.5427670333453625 -1.415872315248097 0.5572249037328468
P 6.485080291573419 7.863046732283065 10.280772013628864 -0.5557809721974686 0.5512383471321087 0.3948599962079587
P 2.5741953193662597 8.490395873739851 5.726457000227125 -0.2182961714748692 0.37947220089797873 0.24880051071131343
P 6.921669374507622 3.927841824868529 1.45165802066855 -0.2676580097374487 0.2521411450487722 0.3167126011722545
Ni 5.064585701675632 2.617693726968714 0.6082486524482786 1.1332162894399194 0.8659881681510377 -0.05746338432379136
Ni 1.5003006114339963 1.0910419851422364 6.875056165360151 -0.9593708920792574 0.8569587109589177 0.48543173304994464
Ni 6.8588836804823154 1.0692247725736508 9.498285805991841 -0.6100153080610011 -1.1112122743650024 -1.0106821407587239
Ni 2.5722094633593935 1.451633537512301 9.300856354350307 0.7393957902400685 1.225730751830573 -0.7140215731413381
Ni 6.529032090958263 2.015145116008637 2.528855234343739 0.2550092106251866 -0.27965683397053775 0.7664468808205896
Ni 4.217269003074728 7.223183977632326 10.524918047744253 -0.41978735557725766 -1.0490417143735289 -0.80021832084408
Ni 7.953933648980875 7.456735152576837 13.150257773731184 0.7685443867795668 -0.4671771577151309 0.6282606274244342
Ni 7.558412793695519 3.9088356413507586 8.257170234095096 0.26605466980607084 -0.6057835293678405 -1.0382597932666764
Ni 2.969462275253478 8.294829862323938 12.534358588346864 0.6837992839216869 -1.1447800830181187 -1.4688303555023672
Ni -0.015904076942660977 4.821204992888918 10.088810466882947 0.8620343257096122 0.9782759565138766 0.4054868797941855
Ni 8.477537682791283 2.3363278546534008 5.491110393824353 0.3839058111893001 0.6574704162191709 1.1243081883170118
Ni 3.5139404667251 2.693038373366211 11.582844297100754 0.41384605039215827 -0.4085727178083609 -0.6970337803340899
Ni 1.4221268003143885 3.1108661043451336 12.806043639324594 -1.3480419858676849 -0.15273612618587243 -0.8297546397403001
Ni 3.133862135547932 8.607996634256056 7.898701462050179 0.08564627451591056 -0.8825568711429962 0.41427079663440264
Ni 5.405490982854343 7.885036233728958 3.620690655105157 1.3687218828145395 0.2487066654459265 0.38031320874203534
Ni 3.1162977378981607 8.202519295429424 3.61729293708793 -0.163870288425821 1.062650563406215 0.004158245142747678
Ni 3.2087624579986875 4.348680077282518 9.374142602055757 0.36060338901793376 0.09822513962218568 -0.10435902043406543
Ni 7.407687229557934 6.10418585518795 11.333934022136017 -0.6784398193819864 -0.36339612127172255 0.29006543089837145
Ni 0.46655646618302293 -0.016667588704204993 0.44246141329971217 0.6803709749664283 0.16208311461841118 0.07984020935709477
Ni 4.6875904346187145 0.3890672766548233 1.782985853836063 0.031850054631061275 -0.26141614259279494 0.13045237508700758
Ni 6.13526132795293 5.711566707309887 0.31308425462772177 0.36268315436509796 -0.6741483910954841 0.12371917012823208
Ni 8.269929585635102 8.991239640074301 11.114419856774289 -1.5111818238853845 0.8637600501514673 0.5695116915199998
Ni 0.011176107435902647 5.0213502613069645 5.8307461780123715 0.042942307889480884 -0.8200536104024523 0.10711652857454455
Ni 8.146652360003381 8.459556164701713 2.641677245473557 -0.03887379424706208 0.5459465026055501 0.2170584424130262
P 8.597405402219435 1.3857557115310981 3.556336225512783 0.0784916657490003 0.5651657558464783 -0.5014000834537429
P 1.7514796588778123 3.137471134135753 1.6579666969764009 1.5277651821653624 -0.06518466422744902 -0.4723489317240575
P 4.873335980028069 1.0910782564848276 8.268955700086531 -0.7700896197794995 0.3832679204949851 -0.726368010521833
P 8.803118321725226 1.6750196686956371 12.550164732664529 -1.7666103814361769 -0.2261372647858428 -0.39166154387531904
P 6.480238067337499 7.82624038738868 1.4353467979053034 -1.3043586860471215 -0.05935443069891714 -0.0867914438639473
P 1.763521744618079 3.3027596423236907 6.196553549447046 -0.7755113050157032 -0.5111093403217069 -1.004665502250999
P 6.929921104947112 4.254682892957515 6.071189814832767 0.47785649180584805 -1.3677746884099218 -0.48186329897239594
P 2.2631504209757263 8.5080509497461 10.079439765524521 2.1790209849333895 -1.504802145611286 0.7678561024632905
