# total energy = -340861.6965137871 ev
CRYSTAL
PRIMVEC
9.37121691128987 0.00000000000000 0.00000000000000

0.00000000000000 9.37121691128987 0.00000000000000

0.00000000000000 0.00000000000000 13.71572320679079

PRIMCOORD
 96 1
Ni 7.473151683751525 2.986185040197531 1.2323505995171204 -0.7633633567992595 0.020078773027746067 0.6482131592869611
Ni 2.1167423022538405 9.252342762431548 11.184184400416429 -0.6285334214698465 -1.0959010979292287 0.1571111153251165
Ni 8.746353290870061 4.79511098929398 13.145162088074084 -0.7312248243935019 1.7174817422303261 -1.3797709415398496
Ni 6.259138680966478 2.9332938934498727 5.38871571376166 2.2583672853732013 -0.3072856514313998 0.7500707534554113
Ni 8.990651537603705 6.354547037635135 1.0299866730291207 -0.9441808146023803 1.6485368396294966 -2.7020175636109856
Ni 0.34804323773021045 5.617088514927804 6.966585882366336 -0.5705828130969915 -1.775514368794026 0.6011331750800227
Ni 4.8761813844949 1.1225780419741167 10.961701408912031 -0.984395182037737 0.27624086631045325 0.42785136353231473
Ni 1.497145571297979 2.909706541152946 9.941388642826142 -0.47199926169412254 1.5569659720990348 -0.7179617887360087
Ni 7.723700531987772 8.844526156449165 0.5172489883611517 0.01536928336721869 0.8409733912742549 1.3925578088918726
Ni 4.424648052860883 6.5018438208703735 13.0144926545331 0.05420913905255179 -1.0058009014070226 0.20353238290213335
Ni 3.0347279424216387 7.432433747426477 7.423278068763744 -0.2631729773829016 -0.14145541106573056 0.6131345704162731
Ni 4.15623766569816 7.139264605886129 10.526995971008485 1.3342130504043925 -2.048885626866168 -0.3031793425725101
Ni 4.2268685255559015 3.815294061698641 13.024903139104676 0.5517178578716885 -1.1780429588363066 0.9949459609703898
Ni 7.880106137802514 4.943691629209663 8.64550025733032 -0.09741987011207094 -0.16833372351381332 -0.04700542221526098
Ni 5.720528004261724 1.1913252872860969 2.1916351914419927 -0.5266100070604672 -0.12363509505485806 -0.6008747792123135
Ni 6.143254215927226 1.676894877776863 13.29773580340245 -0.5849665926224893 -2.6581038929471705 1.3993290661774351
Ni 9.249803162720596 7.790104973138357 10.517627565727896 -1.510207118676941 0.8955774517723802 -0.32076620241633785
Ni 0.32495162279383494 2.8280363880867103 7.875527361349484 0.13165925091091518 1.0993661736596936 -1.7091346558172111
Ni 6.865596966185235 7.089128596832272 13.080259852951786 0.17407062599759054 -0.08453658639149957 -0.269712064053
Ni 7.5181147812170215 1.8246602218443801 3.505107727851583 -0.13093831358449062 -0.9234114432655129 0.4740062648218223
Ni 0.7111891282064388 2.201898547912233 3.7755404235664227 0.34484252663925125 0.005101325782307343 -0.010898134969742521
Ni 1.3197296977638444 5.032671331259452 4.903274508938938 -1.6682700563923656 0.5354700285542584 -0.7253120584534928
Ni 6.678519368289507 3.5778649167662073 12.31567634366382 -0.03480142394990135 2.3934764425059294 -1.2699557830872192
Ni 0.6199200379301343 5.7631482975658255 9.558377647304614 -0.46139654647761186 -1.3978185430701797 -0.8591983989227139
P 8.981495858940972 1.4063478532189473 1.1591351581085272 -0.3392843158251834 -0.7862466891553362 0.33845770615883003
P 5.292263403558684 3.1903369948215072 0.9911804648997711 -0.36356607119068357 -1.0189965741616904 -0.23130698191224033
P 2.5446882815909304 3.3865983850299046 7.936163818654713 0.24341456380905171 0.712582012481334 0.19983436522525586
P 1.2125417217716918 3.669815294492645 13.1809470159569 2.34106296190122 -0.5289301705532117 -0.05697487472314703
P 6.646891512110672 6.3748919489726905 6.487454317711084 0.2123744066737955 0.3384841885213912 1.1298769406540412
P 7.278314718473256 9.02419112197824 4.415914078947202 -0.8780638683686491 -0.4079605381456587 -0.6891176108108067
P 8.952801193572204 3.9236815534214275 10.74459562151887 0.06773905521818656 1.4905811169158973 0.18432058586037287
P 1.4835760495951782 8.528594329676702 3.9831972132158464 0.602469377392943 1.5417010755201643 0.5411547376438616
Ni 5.732185797768826 8.105174647979428 7.939346283827553 1.1243395557755798 -0.8848009299821664 0.9429160889573439
Ni 4.388325217142612 2.4302282414818075 6.771521196523579 -0.11289379737795396 -0.594111492346551 0.13600287259159155
Ni 3.79769491683824 1.3635588780152255 0.2626780139406218 0.37587368491344303 -0.2274271872418599 -0.287171397180028
Ni 2.6033427265756206 2.021924332233855 11.653618630086832 1.2353556765148466 0.7630494251032666 1.4924780768282941
Ni 2.7149726592577785 4.802907841543104 11.808194974412359 -0.7811888150164545 -1.4753745843787882 -1.701002256518064
Ni 4.939221558869721 3.429640383083057 10.122025403521365 -0.2925378036982639 -0.7657485692019844 -1.5168894157931232
Ni 6.500541221756637 8.79714528508911 11.10638924543314 -0.07066162818162024 -1.2715521810400618 0.5375662489616548
Ni 3.6862805221389308 8.95563130099917 9.229583825686092 0.9614560567430604 -1.0682177730813474 0.6612933895096869
Ni 6.408684556196654 5.406001859986097 0.9395338157226464 -0.058689543421408606 -1.322489077099245 -0.6959423470421241
Ni 5.432794168375813 3.560790560037959 3.0293779148386766 0.5469070667466065 -0.06892664776838452 1.6675640314642763
Ni 8.984803898416864 0.20137620025355538 12.419861781842728 -0.7661452904197709 -0.8281682690897867 -1.685841746727542
Ni 5.321192349343592 7.971906576062623 5.6959613598253345 2.1827462563037763 -0.9958548459379042 -2.5245134864518133
Ni 1.7476475634509976 6.986110812247403 2.49170810828514 0.15630893113879532 1.1528417769803307 -0.20135722962768549
Ni 9.06388759568892 0.31637883380645765 5.3039249455524455 3.3458529055452244 0.08171531489262056 -0.49187748867528835
Ni 0.5167926101105119 0.6600719527697896 9.786854468975525 0.622647909223347 1.0493073093300895 1.3001521041649415
Ni 2.4472463709101824 3.171116629481421 1.3892519426924144 0.5365195528646954 -2.0440714933069764 -0.8689788753482454
Ni 5.182479600555706 8.567859727421686 0.8573604283225427 0.9572214498364224 0.7824921072089105 -1.506166372948664
Ni 8.771430666613636 2.5928844487991523 12.871684684071095 -0.3785586879447739 -1.8921658334421994 -0.9945111874258163
Ni 7.258541451351081 0.5337910599839308 6.489785876412504 -2.3265591118580904 0.04373883564884725 1.9087057400787515
Ni 7.115836564272177 7.104591104297481 2.4267505829846328 0.7866598654333549 2.0489838430069294 0.32427035891485445
Ni 4.486966643553995 7.3462935240202984 2.5299201812791603 -1.3400867355763502 -0.23531584596131733 0.858952858570811
Ni 7.96644315675825 2.559176182524999 9.48067807873111 -1.4163479693329348 0.4007735334789162 -0.007484738412819368
Ni 5.4247630357105505 0.8576181367802961 4.795935656358792 1.642313998648236 1.1639260598189503 0.7924016530131385
Ni 8.478402093322972 3.8994569583926015 3.859632099013877 -1.0369678139281302 1.9191187078819594 -2.4119315638873235
P 5.693820036821819 5.7343599200306015 3.0001219135928383 -0.6799631980050482 -1.5490348901774162 1.4333007951371897
P 3.3401921202009888 1.6382667227637793 9.38385841683563 0.384327472107751 1.5558717105935915 1.0159744995059148
P 3.138654735021129 5.695160120802137 6.196132242971579 -0.49870222490660565 -1.351653357368027 0.29317209484815315
P 6.104738515513889 3.238795556095805 7.929361252491687 0.4814727484021966 0.759251391513415 0.047267417627396016
P 4.1487500635983405 9.246223357961984 6.7716580162866045 0.7100942130624739 1.3936872945106256 2.223999349416292
P 2.872849546085877 1.9815999870079208 3.7696702934596313 0.6341479394431465 0.0906234160155278 -0.6515327105784973
P 9.18314569872058 0.7536735388691791 7.557500130535069 -0.837736372394196 -0.38291002293493404 -0.6372294065819477
P 9.47804851534036 7.263058377774251 12.594311665308538 -1.8024538734973474 -1.8898415561843969 -2.0479168351949957
Ni 7.75691212377971 5.871160940622789 11.163377488098245 -0.23140442672205308 -0.06265726981990499 -0.790225471297426
Ni 2.980459226827081 5.474758476514724 9.166409642913237 0.04012257905249864 -0.8214882859664498 -0.4310279614880835
Ni 9.155078904867066 9.410856891991546 2.944202926746993 -0.46501845950091525 -0.3343794223243983 -1.4665117346715195
Ni 3.928863836226434 9.237433156748429 3.752882695960738 -0.9907159820494422 -0.061794407598977454 -2.8686353328749568
Ni 2.723163102606016 0.6561247963186709 5.541440305678019 -2.0774001893660934 0.12013428099045116 0.20216249913780018
Ni 1.87379351071716 6.704590092997512 11.264325170926107 0.17866107358175035 2.140399158796133 0.43668130311911896
Ni 4.000497416265253 5.05973540493189 1.6581627528240117 1.0846383805312159 0.013027522607919497 -0.9716144853333007
Ni 2.0369089076501385 5.761227198153481 0.14991697540934246 -0.3403520949680655 0.6853586579890067 0.39264884748925283
Ni 3.5009365993226353 4.977840342666159 4.1986433581410765 1.102671583883843 0.21796372783611492 -1.802115516321322
Ni 5.55004683104532 1.0179577793428534 8.389221847236966 -0.22215899686438514 1.4387217090424447 0.4930457979517767
Ni 4.027627088454209 8.585646296614998 12.20415417997309 0.5099127489104445 1.6373111461170058 1.601012568796288
Ni 1.9422689907464186 0.47977068163048064 8.063349970968536 -0.4750074523928271 0.37764337521935604 -2.432712762298733
Ni 5.58128109612504 5.682265326697818 8.306776694554141 -0.2500117574105952 -0.6116626138564369 0.3338605737064508
Ni 3.2452242107146736 7.467866317563418 4.9779293692242925 -1.7334575488332922 -0.5058084969340838 -0.6959444039246531
Ni 0.7417467914443485 7.416708845895193 5.630386271347883 0.7193584119732191 0.225765740379037 -0.06871041799252037
Ni 7.842780581903167 0.31862136594974516 9.258469663874429 -2.3635423739506587 -2.2950597556982277 -0.7473780371145968
Ni 0.15671017035572393 4.010018572377163 1.5503291000049788 0.425296458320945 -0.2201939027182143 0.9667949524574704
Ni 2.299996443758172 0.4546689407236281 2.0824174099244077 -0.6458983951108553 -0.27184967922129305 -0.1819790822113898
Ni 5.30703244099212 4.8899664441805495 5.748670704970068 -0.8114224170900154 0.7856535356560277 0.1513173914614749
Ni 8.006430138184943 6.5829798145878105 4.800146143997652 -0.1588502095034103 0.038894620182668496 0.12575522672165437
Ni 9.042090145771299 7.7812585446249285 7.715149296798679 -0.37716669269325365 0.5244207127186323 1.1530708622720014
Ni 1.3226910022238478 1.2183987321751797 13.560487849954571 1.42595952428077 0.9020388911270077 0.4827158767806783
Ni 0.8965592904293422 8.19938348891745 0.40464538626951807 1.7838966793204505 2.2435083659834976 2.1564140461671504
Ni 2.448698909490247 3.096905964865067 5.67633428368283 -0.7355643323091203 0.24828551874810786 -0.20331743867784982
P 3.102247558353048 8.02736543617117 0.5616619954095525 0.09357632799626465 0.17582411835358752 -0.12284730904624006
P 8.800968741480506 3.5611841511370734 5.746888299564079 1.327282127612514 -0.20919420917360101 3.2254900534837354
P 7.071463853455352 7.335169889861995 9.517806839080901 0.4319831263125012 -0.32491801980118235 0.17992528500615465
P 2.0153644805819484 4.951244829826002 2.317477511288838 -0.09305902204021392 -0.6397747987116208 2.0652897792558047
P 9.013048745386643 5.914043627992967 2.902918968936552 -0.13292423366626785 -0.8703299900595011 3.5915153848481887
P 5.094483876253703 4.980304972643947 11.435469826281018 0.23388579838301007 2.387453633350617 0.42810153186990785
P 1.5674296961398344 7.850052646020137 9.08551448946359 0.5589619410286116 -0.616769338955383 0.5149040314774487
P 6.971679138613209 1.552304552473867 11.362420255407052 1.5244626001546906 -0.09599984983609273 -1.2856999332953534
