# total energy = -340858.7724388861 ev
CRYSTAL
PRIMVEC
9.33952241472548 0.00000000000000 0.00000000000000

0.00000000000000 9.33952241472548 0.00000000000000

0.00000000000000 0.00000000000000 13.66933510734348

PRIMCOORD
 96 1
Ni 3.3568670724221352 1.0962824443083767 2.643348130482788 1.0763607139034561 2.0137113929578803 0.01742770855814418
Ni 7.362746875502839 5.900738085050949 6.285009920240076 0.8080259898139567 -0.3042414652884373 -0.24629239957747903
Ni 8.515122489579033 5.030892354199235 9.628843689563478 0.06091303343528864 -0.2455483223226029 -1.8536244828338913
Ni 5.344924445486793 4.343484848163461 0.28041448146750203 1.1189422960194084 0.23501682666365975 -0.7720878811564509
Ni 2.6228086534675725 2.8169212809158424 8.535050227896313 -0.411454153121214 1.8561498203589069 -1.7755179683384519
Ni 6.496963836767176 2.4963795427204967 12.41405262316886 -0.8228010912406024 -0.2723219908720213 0.18509397369128766
Ni 1.7171925529504015 2.4867411559072456 0.9026433306308748 1.081283862236686 -0.9939434878478042 -0.07180834019155376
Ni 3.395476656807775 7.141026620709637 1.5841669377399545 0.298470367132615 0.1076942554548855 -0.2524674180399394
Ni 0.8677975736538976 1.5316816253616328 3.2156011968576848 1.9175580482630588 0.6533563940507974 1.0486802172690521
Ni 0.11626771069589613 9.282093384434658 6.8436758498553605 -0.2611574896147696 -0.006122825068286229 0.5767514038015487
Ni 0.7863532050819246 8.416179592389513 9.12367921233163 -1.2081598328263452 1.2926395978379803 1.3312958767575975
Ni 1.730716180959692 3.4171910457039085 4.758131611097488 -1.5604732139213446 -0.15011488651294147 0.38105522911438244
Ni 2.7360410194790634 5.582129627931518 5.020664643541104 -0.17268145895954776 0.11584825202058759 1.5829053176726158
Ni 7.053440582400848 1.302517771450057 1.1953822454692744 -3.6326700047096274 0.10864993449993547 -1.7094758412067141
Ni 4.841281376405992 4.8581392138070765 11.415822085641102 2.3432774530540352 1.1555290940045069 0.3187260320578575
Ni 6.672911093719541 3.6326258021198643 8.142180428656529 0.41441837795586045 0.7016692222235722 0.3875768322829841
Ni 1.1486024471454248 2.19447015112635 12.151710116976204 0.6495372774150233 0.08390795166856516 0.23155406492603994
Ni 2.9585738126954757 8.458403571830123 3.873151184673223 -1.0951642197632043 -0.9053746403684599 1.539147198750059
Ni 5.855497439970145 8.79422476819066 8.491390763908033 2.4449234454323117 -0.19254168821858453 2.1780259680099716
Ni 5.767967438793992 7.411153618577529 11.921150004509801 -0.9240753021017569 -0.5456845071934151 -0.31806525854540707
Ni 0.08950717800596512 6.9379293729955265 5.471479639782299 -0.8137214975368373 -0.5613594947265107 -0.4225317510916142
Ni 0.07869387931179622 4.276128214735973 2.2403216009528766 0.16936602143306959 0.052668791148625424 0.3606424697859853
Ni 8.149592273399742 5.98710064596387 3.2617907373844437 -1.7132957291734365 2.9375915483296957 -0.20214758673946476
Ni 9.250441744017886 6.364342622863912 1.3200247056374985 0.34138850665237985 2.570226415107896 -1.780830638800617
P 1.358200002245216 0.27196781767495903 13.499602088673178 -0.42920350668483503 0.20228874030301935 0.15036222663705714
P 6.448473037993532 7.767260256952004 6.7190660780145075 -0.5638434374906289 0.2454123109653709 -0.6928367115336067
P 4.571415885157063 1.7947012469069636 6.280785654391593 -2.01038412835686 3.6706732234262787 -0.19053057132582668
P 7.608404325453369 0.7099624519214344 3.7201782181490723 1.1842933106213926 -0.3172684736757245 0.47120273393475615
P 8.352848292989652 0.6284853950220907 9.017673768525658 2.170680583388494 -0.7038348624163234 -1.593506747337546
P 3.54390034211416 1.9826871478537866 12.097812668855477 -0.38027541352556443 -0.7693370578841912 -0.040823975994897434
P 1.9589367431385754 3.6562454535255937 2.6259607421783016 3.2850393738022783 -2.1985102040062525 2.2429607210101437
P 1.5149825598363484 6.329384791621665 3.4692084480247263 -0.013685982127524816 0.06751485502252244 -0.8310430195344204
Ni 7.6392527669690375 8.707077687420847 10.760076493496419 -0.20095690886547327 -0.476556799157818 -0.5243633771181356
Ni 4.572910208694001 1.8148746146556292 8.727542448259216 1.4089118247698638 -1.0645246405004765 -1.0779869366529693
Ni 6.465835209588332 2.936747349534072 5.257636337933181 -0.5546489154755544 1.0144542062066464 -0.6969311933179546
Ni 2.2261311310652276 1.4066627824525422 6.513861834113315 0.3566516034590374 0.7797094022574508 -1.8749085890236485
Ni 5.304941951351592 4.769198944792937 6.600292573537609 -1.9236479632108803 -0.020555198443532343 -0.3608743832911333
Ni 6.027783604257012 6.152148680618692 8.498758712897349 1.0738364048197055 0.42989590476616923 0.6626475895447361
Ni 0.15542085526809754 7.891672030924212 3.2913708717981347 -0.09173670368436458 2.3149672932554326 -0.3986999387793391
Ni 5.962901944187577 6.379341895365929 1.6993307169229372 0.7400982156237318 -0.8098445310799344 0.6233971286845458
Ni 6.765381702089696 8.083692605420769 4.4738225489118415 0.4230557419158843 -1.3309978859012046 -0.6196559164745586
Ni 4.407124351792816 4.414623988043824 8.887391170957702 -0.49018981656022026 0.6530085237930754 -0.23771185699731961
Ni 4.9252343406156 5.24842850308901 4.283477484681077 1.3927131035228144 -0.2826146310472811 -0.5728212155092071
Ni 1.9413037254027048 9.001730270338738 1.869746174931999 -1.8737035129719537 -1.0914178653468944 -1.6040107321926633
Ni 5.499605610604106 2.8945233700934625 2.591733261564733 0.10828895161609092 0.5018299719023099 -0.3896943928466192
Ni 4.166398169514181 4.810040674961878 2.136680924144108 -0.6727342843567768 -0.4516965455810285 1.2019989554312718
Ni 3.5539403283779634 0.4796404972687317 0.2224188510467208 -0.6152757851289921 2.1711582943558607 1.3979144452180956
Ni 7.596197570061006 6.235158353095607 12.839428629098103 0.6187706856561279 -0.31357714086706645 0.3665140980754139
Ni 4.044947024049531 6.705552723479533 9.937660591707122 0.9871498619647385 -1.2847817923564582 1.9638085945901662
Ni 1.2883216978491445 6.110662523424445 9.396245693373578 0.6728713241552734 -0.6101621180515104 -0.04357659903937011
Ni 8.792356863769488 8.485945822520314 12.762661493196745 0.926570814830101 0.6273751394956874 0.16978099748330117
Ni 1.3759544337684628 1.687586267874814 9.825039030441355 -3.0324976508809773 0.7745965065109176 0.4313308374404829
Ni 2.105371110236411 5.294901965087788 1.3776775755969946 -1.2456202916656482 0.11147866219798219 -0.23507544781573708
Ni 2.0279558115009073 7.682616168106562 6.416262894154829 1.4852694748949968 1.0511464194213573 0.14776489822352618
Ni 9.002253283576666 0.6907398475231459 1.5973029755818515 1.8006039647728018 -2.710950604434557 -0.6802326496163511
Ni 2.4326559833921895 0.04902221758146752 10.772487784422898 0.4603866171558587 -0.2805466927746587 0.8938969787461638
P 0.8015336643127953 3.9071517148996193 10.530746396091358 1.5041120615227968 0.07939412295861166 -0.48230192917171133
P 4.271570527948311 6.426254314903682 13.331483219149948 0.3611379213651651 -1.0407897587773818 -0.06037361599205087
P 5.564319159275636 3.1412642046082735 10.114569819436392 -0.3032639318665164 1.4134763042120948 1.471181629343363
P 7.940405657272609 4.738163712835152 0.8004885717891491 -1.9235772578739454 -0.4151858522495044 -1.800917382248163
P 4.101740657975288 8.657400769339759 9.607273129307776 -0.5067459211466885 1.9366019522683873 0.20343365254073997
P 4.871849632258484 2.2090771636999205 0.5286178851440911 1.2662191988629226 -0.10077207441375548 0.42750272194364436
P 7.819972519717498 8.166833031207167 0.9189006367605516 -1.2604599277816422 -0.6091622160320863 1.0736741682102284
P 2.8755081030859246 4.546460682090196 7.2140869002871755 0.44692869187873996 0.8494942842610723 -0.3881810415258863
Ni 3.066267842098189 3.64349700585109 10.848461994897468 -1.6805439886637124 -2.3477966810806277 -2.435734322733876
Ni 8.876963594526506 4.50930806315307 4.61341384816271 0.7494506033729094 -1.3148364456499937 0.805315275751013
Ni 3.1994961249383334 8.192199173246692 12.490039908974378 1.7554862464985574 -0.6989626219256865 -0.9410522962757276
Ni 7.00057888728166 1.4347934230354036 7.488484861614081 1.1491527581645178 0.05139918040758245 0.6644972411589652
Ni 8.340959081348888 3.678426818527019 11.608135921131783 -0.5923813970293217 0.3023481049204664 0.2511597549721094
Ni 0.6269976091506266 4.604916750950796 6.766785432262208 1.8399469853467991 1.775734198114316 0.7334370015534724
Ni 5.680960450855766 0.6121954005650434 2.965931488210475 -1.2122324602338217 -1.0915513056009654 0.6303990139236756
Ni 0.3011211359284123 2.4393057231315645 7.728642266996468 -1.214509943414089 -0.7663880025581963 -0.03546322590361634
Ni 4.484371539130414 9.226224363197382 6.879092251633007 -3.355858610607685 -2.310363218824518 0.6495344492015458
Ni 6.747356424425379 1.481322922166816 10.019075073808356 0.20533112667376896 -0.30116205503216514 1.3275749762625846
Ni 3.694360043239623 6.6052929536730876 7.8287423309749045 -0.48537902543513833 -0.4597325285116276 -1.9684733470556872
Ni 6.086818723488174 0.6954721833741869 5.607885228042857 2.96836816739092 -1.8388524667310395 -2.925517647884297
Ni 3.764397119511494 2.7153913361029987 4.378834939334155 1.7605477201818647 -0.07462704058727147 0.3768936415375251
Ni 8.897557240769936 2.6881012525096653 0.31425343796146715 -2.9697205676537566 -0.8470103414969542 -0.2053439821895754
Ni 8.857948327518967 1.8291360649112829 5.1682664509021725 -0.1335397557630797 -0.0025582476454794655 0.8333153605083649
Ni 5.320828478453665 8.39922835976737 0.8591174218087079 1.4542066920519212 1.0199031451363596 -0.8028344183106884
Ni 0.5209902974402323 4.516686285616702 13.284857522940845 0.9231733591127778 1.9887935466702784 -0.8745784809232099
Ni 4.575805460546818 7.20686091203387 5.63918850428508 0.262823821573599 -0.06697466624833627 -0.8327391762899207
Ni 2.643766541073131 0.33967188132478554 8.402513069692002 -0.03053699224659257 -1.1526839112462277 0.2697467739456773
Ni 2.969351621205642 4.252106963879692 12.960661229745476 0.4906592999974711 -1.0047243805133923 2.9170528049463957
Ni 8.083496475456545 2.687092584122232 2.8259161746559993 -1.475480256718717 -1.2433777754883746 1.0043194317654898
Ni 1.806525081892987 6.793587058849404 13.288246835513064 -1.8916246162267487 -0.8272408721795109 2.640249895484885
Ni 5.160188698232811 0.348404334493768 12.274515493146206 0.5870131907388729 0.8570366153847048 -1.0061485145544284
Ni 2.5598789535182633 5.788056750843705 11.398926890151595 -0.939819195199575 1.0190893909858127 -0.6719799226892557
P 0.9344285262137604 7.426255625822711 11.523166816917056 0.43946117985710126 0.520197161555588 -2.7519766691379313
P 6.8478777008507885 4.405854176786419 3.506238719222265 -1.4726062776050317 -0.4235385950895738 0.36226535010138905
P 1.3126885110233426 0.13734421023219853 4.977442269187377 -0.6717896610553205 -0.008919156866500768 0.24745839486112226
P 8.137693722236872 3.7166534825063193 6.399518064971226 -1.2999885820038837 -1.6527801882868824 1.9953192636039376
P 0.2962636504811526 7.014074496724632 7.667991410440989 -0.1704183739569839 -1.0254667552670662 -1.2730004834508142
P 8.387628673311887 1.455704613030432 11.795323292938553 -0.6728988349590992 -0.6153009819399725 0.5104187420125854
P 7.077443154212917 6.095663250922428 10.63270595892107 -1.4659815731996626 1.0092194401702683 0.5891623758713918
P 4.7716925971952024 7.91683270347741 3.0305189533335746 2.4597391702889055 -0.18766764795573485 0.6803748316211701
