# total energy = -340884.0382346561 ev
CRYSTAL
PRIMVEC
9.07055310258378 0.00000000000000 0.00000000000000
0.00000000000000 9.07055310258378 0.00000000000000
0.00000000000000 0.00000000000000 13.27567133119090
PRIMCOORD
 96 1
Ni 5.220502340151931 3.3702274508983354 9.39718358530504 2.286927870619713 -1.0750036856549292 -0.5522395347031134
Ni 4.567966759291859 0.7151087905426312 6.271666047782204 0.5497908160523047 -0.4860295145349436 0.1457319269538974
Ni 2.706045280021243 1.5494318588061957 4.862214590672769 0.5756661411571699 1.5108272687594433 0.1786513033897375
Ni 3.6442579267582698 2.620963493136791 2.3638523197369383 0.11048801614993876 0.8580295754255932 1.2656918656045428
Ni 5.416997729200748 2.994080689671113 0.6550481240335267 0.3231485866055854 -0.32697541655084333 -1.1907354667023107
Ni 5.203558547198823 4.670708912814267 2.899698864823694 -1.4622884406187913 -0.3551835035539431 0.07991657112098495
Ni 5.271360930670175 4.623351555743508 11.733981166690139 0.7023397659280356 0.41736871883343607 -0.5736419116382895
Ni 5.436653617492709 8.145274934558216 12.718451819477625 0.6422877949414616 -1.0877694699610299 0.15300146403211715
Ni 2.0658728628630363 5.671417669533583 11.67507699568506 0.24873520469101681 -0.6163430500512417 -0.965460807027079
Ni 0.8153066539561814 7.979274744603806 11.520189140177575 0.16397698920701437 -0.44190758451506473 0.1367171250497968
Ni 8.313025741236366 9.129874389197916 6.821663562561756 -1.3682166610433468 -0.39000652477039927 0.43719269553789863
Ni 8.478699391283756 2.597488902043298 1.6809657615747262 0.7856694764956276 -0.662235184597666 0.023351016021114623
Ni 1.2660949955962137 1.3430042142522125 2.647075801034761 1.0235165735192309 -0.15293332979834307 -0.09698895322223942
Ni 2.0351327588383663 6.402513309690696 0.5785325673765455 -0.0546858215786542 0.7021114519673134 -1.222983785213055
Ni 7.651102138049491 4.231576231744226 3.8909270795758855 1.1841385302110832 -4.498284334461014 1.9259254463911477
Ni 7.679774155996372 4.015307037214803 12.72384154205404 0.6765266615196737 0.2967801239143857 -0.225873726711811
Ni 6.813354936038711 0.7096428753212483 9.705033617923895 1.4965959556514097 2.671710685097328 -0.4611111540267091
Ni 7.020589859807269 0.9336864408036211 0.48519385612099336 -1.2735298735917229 0.33841399740508815 1.2783244667668887
Ni 1.7860735153124292 6.742604622851213 9.578688978511076 1.1919749955363665 0.7489494953667747 -0.8448621848056997
Ni 9.256045781048954 4.872093329915398 1.367221683634174 -0.5526267428392031 0.7836894699511213 -0.33938150352468
Ni 6.200702576599847 2.5428116087235244 7.040791795388191 1.7312646549470314 -1.1168651017754057 1.6002420091788503
Ni 3.6156856848940877 4.436371176763113 0.5358329392572961 -1.2434389677436133 -0.17527338805644008 0.8362685295994178
Ni 6.029922205228795 6.0788850501757326 4.833419213205458 -1.3383442989639465 0.22321957691841554 0.9125351626726412
Ni 6.47154021781337 2.198212230735548 11.674811228482959 -0.13841970956320032 0.37861422377305765 -0.40133223419586367
P 0.0794716498708025 6.1078019730528785 12.671070878969136 1.807956291372815 -1.002469008820312 -0.23579509959058104
P 4.099508980460898 6.213065740301713 12.78846741787433 -1.164305040424924 1.2898952023236236 -0.6585626208420852
P 2.5392740930641495 8.607492172943921 1.4079774922513617 -0.46754713946003995 0.777626551586493 -0.021010283703079946
P 6.453916133387306 8.193203736466259 6.036301525134534 -1.7711044126517885 1.7912145531381025 -0.8713077805917381
P 4.83319879876822 1.1223720837428932 12.41057548225515 -0.4661186345436295 0.6320221513493954 2.2132217991848147
P 4.226251817149218 6.025967444132673 8.312627543960863 -0.42565409877067983 1.5007336319688669 0.9136944730880652
P 4.561499455022283 1.1204763381715872 3.6726478505076985 0.5382972135904084 -0.08455124167951891 0.8791509307852406
P 0.15122607327238413 6.059446855155116 3.8584544999334183 1.080349780458191 -2.0682054102407026 -0.556595240568648
Ni 0.7959981678430754 0.21849510822893783 4.804160330481238 -0.0412266107499548 -1.280144036474131 0.018705032608671013
Ni 1.90679350482684 6.393215992893622 5.318512386188453 -0.718432300614524 1.4703583621111191 -0.9057510498712723
Ni 8.548959894610725 7.794861332114702 9.21462963617535 -1.0898600339414715 0.34006001764894334 -0.11863738472995054
Ni 8.446979667538029 2.8207605634676893 10.50445410540359 1.5808453498197936 0.4100904400044679 -0.2966006609137279
Ni 3.2494167558541966 4.304049949996547 4.792769530058051 0.17033404177329375 -0.9914986258517375 -0.0009518223903080382
Ni 1.2400806496703491 1.1250206852109381 7.449523611114743 0.8985025958389752 0.46458188618412893 0.4526781927680075
Ni 1.7386708054768059 1.3710866462558653 11.625239749431548 -0.45814101565479165 -0.01797638197276259 -0.8744422124556618
Ni 4.003125284572391 6.9376396528714155 1.807734902866668 1.2726089044393505 0.5514846588149599 0.7437754073650029
Ni 5.7496330478176585 8.266013065178571 8.425444360670111 -0.6425559610011836 -1.0839493248839913 -1.539639565005445
Ni 6.622628418680569 1.1515157704443586 4.943899455468924 0.8286634635586503 -2.095765322136842 -0.3426457760982486
Ni 1.0038471680478895 7.592488224739541 7.359142807183607 -0.08604119596148407 -0.8051566386859618 -0.37724665400156965
Ni 5.061032948337907 4.787800681139576 6.836983726532741 0.7626079666904737 1.2173962638229485 -0.2694698661352069
Ni 0.356583392575582 0.8319329775552432 9.92078941915506 -0.8516010461914301 -0.8630108306902686 -1.4911493307145416
Ni 4.535203921954264 9.377228368764975 10.559017109755906 0.0738917050831437 -1.1771021921895921 -1.3602698953924446
Ni 8.284970520891632 7.599272998363163 4.815962026954092 -1.166034621521521 0.6007341398693913 0.37125701207703804
Ni 7.224677301694282 6.624224836003774 7.005053816675533 1.0394381298454936 -1.3301509645198768 1.0422522022555214
Ni 2.06173669070746 5.442286430888791 2.701638805387078 1.328643526736415 -1.3552135639154594 1.9834057999958037
Ni 3.532653842981478 4.560256789265017 9.855234718710356 -0.9562562577096758 1.7105001687061705 -0.3175006442911887
Ni 0.8009579462085784 3.5626410911094104 4.448199177839587 1.3264352062311866 -0.08690637217525678 -1.747171555985275
Ni 0.3559566173651646 0.1477756349215477 0.5790368901218307 1.6124691473726618 -0.7185212607839044 0.5337659013789582
Ni 2.5569979535729153 5.090521316052337 7.139854932624851 -0.1719885466575812 0.7689953582740563 1.1824449445587442
Ni 5.3373764152058945 2.9652363312177483 5.036868995218485 -1.4320093300192756 1.6233539126059655 -1.894072563546609
Ni 4.129804627389903 7.423404046774395 6.471531147260398 0.3332054566209552 -1.6684957992499267 -0.7698181112856678
Ni 0.9504216110383561 7.419930024985829 2.274785838931555 -1.661744339458706 1.5684595745609309 1.5683826985764084
P 0.5613756164285773 5.492156331133004 8.278111368733635 -0.7621407972460681 0.9430271606139115 -0.5391557049359618
P 8.351856778512735 1.8270724147492867 8.283142804467621 -0.9412991221792111 0.4588053887116679 -0.22212582963360458
P 1.8833824076041565 3.532681054640397 10.475685939595198 -1.3855155573331106 -0.7719765523895672 0.6951782151825899
P 3.79960021696969 6.303961751641702 4.41797065300258 1.5793965331884088 0.22249838248167486 -1.6745869997493288
P 6.959780872677913 4.27233022625082 10.428809321831993 -0.019194827760895976 0.601119805343584 0.3724890847119262
P 6.517709332444699 7.872169655101503 10.478248370810002 -0.942482600964351 -0.5065176071859664 -0.5569068582717956
P 2.370026645145494 8.855335962371507 6.251832376651976 1.3325940267437306 -0.7831302550135416 -1.0965726700749567
P 7.062922130531123 4.199575320856343 1.5802563189735126 -0.27660493451809137 -1.3627011305417565 0.5606750670649763
Ni 2.735433871652973 1.7146247695460297 0.24188897140097307 -0.4407999532731827 -0.565451148297381 3.1692996223350964
Ni 1.1833987641435963 3.381456795478607 8.222352865499508 -1.4243189033535533 -0.16103127631512912 2.9469786459715506
Ni 7.7890380371061925 8.886928698375618 11.973911805704292 0.2998561917365481 0.28007335268266603 -1.1876087481478708
Ni 3.0725681845443713 1.8588102796009605 9.482426828032406 -1.0720008942728636 1.4538660208830512 -0.20528227571370453
Ni 6.265266772659924 2.3597406380743884 2.735372191892758 0.2690813724475366 -0.8093614207959287 0.5858567085369265
Ni 4.146539797624638 6.738867555026438 10.60359706350641 0.7110653187264915 0.8618772313064575 -0.25780014310676247
Ni 7.224423326211045 6.4938900603382415 11.887540186187115 -1.338620949664101 -0.9371015391580958 0.07171012405079263
Ni 7.622783871668546 4.258225516378184 7.907547532861143 1.1905470048405882 -0.34460752781030973 1.3262210333378515
Ni 3.044322482587209 8.469120887344527 12.427514739931771 0.009108904279803667 -0.5675550820142613 0.2786695303566039
Ni 8.783442759509443 5.793008432133378 10.357041292600952 -0.004590190473843707 -1.940373760605994 -0.2102051669366186
Ni 8.502173982377249 2.385682419576471 6.007917950772185 0.22735725323587297 1.0996777913628415 1.3459691624990562
Ni 3.798430115636205 2.922414250633367 11.921446820254573 -0.7728982928728882 0.1334942472371249 -1.8725974243919687
Ni 1.2053222906787477 3.5081905616139557 12.518705544243375 -0.6688784009457964 0.6662149951810203 1.2079387179544745
Ni 3.3497370717328794 8.778970976893875 8.281178122693722 -0.16946989400078558 -0.1495351027500715 -0.09397639164816074
Ni 5.800437215018066 8.115686790761085 3.7656972111234195 -1.244910152972501 0.990052123213198 -0.5368805357485399
Ni 2.9867698239750715 8.355793398502913 3.9154338995976774 0.554638116842277 -0.14871620639320193 -0.5068680485468496
Ni 3.881371252019086 2.914577292864906 7.00150904457378 -2.0944203780731736 -1.003170148652395 0.6828472044210626
Ni 6.261012683315702 5.870162555719642 9.115726140671013 -0.24643175336882076 0.6517875069017808 1.0139731528051699
Ni 7.849992153083114 0.038654161493400084 2.674370909040379 0.5652099788208524 0.14374780664433306 0.39705828941085813
Ni 4.59995859962677 0.6990303283431237 1.312109003771708 0.5739666419675599 -1.8077814563578476 0.673194254712331
Ni 5.9375114115423555 5.6074158477578155 0.5508537749801802 -0.4069104996145896 1.8173860693271475 0.464747979448348
Ni 8.030278463969614 7.298221345197389 0.8004645081268605 0.42405024461866964 -0.2488534754364359 0.19133044151930276
Ni 9.062888355494113 5.205000765121492 6.055989160361901 -0.07375157996085363 -0.10764977537019525 0.3560507366502449
Ni 7.2005496307867505 5.8869430787192405 2.8386966749160174 0.2881080500616845 6.18201983347883 -3.250296313894138
P 8.56220290195095 1.6866149019661587 4.015611807794688 -0.7378572421083551 0.9458420043548871 -1.847427095773928
P 1.7910441783414996 3.3840872558407065 1.6395849918577157 -0.5041344516657704 0.004463435087992313 -0.23021683417185515
P 4.910135229083137 1.4553067306079057 8.452381181833305 0.4253239691247707 -1.4353466219226245 -0.2840372224264205
P 8.82799731571162 1.7775744071769568 12.781377873670824 -0.6998370541108399 1.6674521884767604 -1.5846423549683806
P 6.221519495672322 7.935636314251877 1.5942757656482045 -0.925796912778554 -0.009972023611047343 0.4463316817246894
P 1.7891484327701936 3.203565110576915 6.311439515512442 0.9249049970919038 -0.8592652476049073 -2.5586433382559868
P 6.949458583394915 4.482250033699314 5.8489683016435 0.25414146330825266 -0.9869056071644164 1.2680680791462033
P 2.247565109460314 8.942739810816986 10.05580278604394 0.17838956508791856 -1.2496983183897639 1.3082086559208308
