# total energy = -381174.75319128745 ev
CRYSTAL
PRIMVEC
9.18168237886657 0.00000000000000 0.00000000000000
0.00000000000000 9.18168237886657 0.00000000000000
0.00000000000000 0.00000000000000 13.43832026015701
PRIMCOORD
 96 1
Ni 8.9182322928929 4.473306436446075 5.453888070392354 -0.26337840852548833 1.6437409609027496 0.12615888991797627
Ni 7.536233017659261 8.715592564460852 1.8011779627683466 0.2585444774719547 0.1136234764551269 1.1143017119236036
Ni 9.097936178931505 0.4056944689041996 3.9996069193948527 -1.0294805044121496 -0.3062153011853565 -0.1983680650923745
Ni 1.7949362551386183 1.9902122743634836 3.3003575402285903 -1.0855369810860853 0.5586107283367798 -1.975976083190636
Ni 4.149541955069961 3.788380481672835 11.000057556941444 1.1118892458273688 0.030565788601998968 -0.1304526321973237
Ni 2.103431598844479 2.8030115185736575 12.393624833708909 0.8051381267432004 1.4389209695374443 -1.8631236805735785
Ni 2.1918971078359957 3.36170770504224 9.809987577733146 -0.23678343164577928 -0.303570921583974 -0.30760678221624443
Ni 6.422494954278775 1.1456719544310814 3.3613808371522453 -0.8547375349378828 -0.6913231031025577 -0.8455656386306277
Ni 9.473659800461537 3.5829403401383058 0.8007198229720585 -1.0600954010845292 1.804890507963298 -0.14480067338887964
Ni 2.3915436078371934 5.239049558852251 11.357476576631777 1.225232986258548 -0.2733180362367035 0.2636586587700685
Ni 2.827352158359491 5.554128168769519 8.939520023312914 0.35766898897995825 -0.3906472436781917 1.2395285769456135
Ni 0.35242143001269166 1.9492344262442165 10.79708545161002 0.2198048948099118 -0.8969635334866295 0.2130146113609557
Ni 0.7107687177838808 1.1446711510600305 6.122538575114908 0.07540711328640562 0.34365724808189846 0.16952363005685642
Ni 0.45742865784168796 2.618505612690468 8.336179742981388 -0.8550067294388694 -0.30320042561843263 -0.7638274409198716
Ni 4.984358873443254 2.9737816277312303 4.940813826952008 -0.6493441875676106 -3.3100266398752347 -1.1983806419523941
Ni 8.76858005303273 7.1002041067616855 3.605044322115076 0.15505448990640394 -0.6679342918649722 -0.958164530475982
Ni 5.404540200685473 1.8988820804933624 11.871855537127411 -0.4211587820034876 -0.7850218156092996 -0.46723217932278244
Ni 4.772050833545917 6.617174164153932 10.217356785489452 -0.14804874801253212 0.43390296904303344 0.11934700920246544
Ni 5.869013963358421 1.4796740115752849 0.7951456236457741 0.10943592073634055 1.2488701660615138 0.6034047447230189
Ni 7.3276802858239405 4.058579028491969 8.180523601063143 1.1652620050215545 0.6663808313349233 -0.6878451718562864
Ni 7.219106892588374 8.311424091155448 4.93717145358232 -0.7943397505761158 0.48910044015078347 -0.29851279033477623
Ni 2.52344765580524 4.344680249060278 1.6656664318233652 1.3628875355209495 -1.0604419857906704 -1.4260996494030602
Ni 1.3398002633680441 5.942439876737264 7.2026441362187015 0.502045944567858 -0.7905064928729546 -3.1912642995316456
Ni 7.527997048633273 2.912346991440391 11.503766484432507 -0.8448776114246676 -0.018531997365916472 -0.2334643945748753
P 2.090852694089069 3.8898656161703165 7.541128690663337 0.19861103434111602 0.2539691993964465 0.01984814507417872
Ni 1.513783961331744 6.520775681652434 2.2897958772258398 -0.9612660522194412 0.2134306158524518 -0.4193086161686262
P 8.8797243173132 0.6544216516572552 9.097258570777528 -0.32859264043929215 -1.4146199308982346 -0.2100997517070059
Ni 0.8547980954015587 4.442042808203614 3.152965830551474 -1.838877149321388 -1.3529502218025795 0.9322586092434977
P 5.881473506243889 3.5080545392732505 9.582772158448304 -2.116489442058071 -0.9682594528181389 0.6650572274274934
P 8.61138965200162 6.71511516928237 1.242916988040936 0.8312106554605363 -0.4764369857505021 0.9395479438160593
P 3.0572982099613117 7.874284196699184 9.347306079445787 0.3184714928448902 0.36425898349265007 -0.11580994258348443
Ni 3.9663214847092223 4.72673923137953 5.829207697901045 -1.5501980572475818 1.0798335029434047 0.9950891714164734
Ni 2.019364115676204 3.3911166334594514 5.255404889538975 -0.21474522089881726 0.15828199570476612 0.45530586019884167
Ni 5.128134836629362 5.125802689324345 8.158565607834994 0.39746195260718004 1.0973635414073681 0.3887970778433304
Ni 4.890971982737212 3.1660827818898527 2.2735755172689727 0.6808096051657437 -0.24070436396674025 2.0676816765267483
Ni 4.637539187803757 8.611940552939812 4.042892124276919 -0.028388835555338204 0.22607401564807514 0.22434546299274266
Ni 5.613726468599715 5.283920440268083 12.319055800883316 -0.6464452687532609 0.21721065172017429 0.5870229609308858
Ni 4.231056930557941 1.9246366993538921 9.369693775405725 0.31129502970110906 0.886875038902376 0.48344067076184477
Ni 5.379933292112845 5.032057713008478 3.8033943685750593 -1.170861096375887 -1.0160737440879406 0.34593164593837195
Ni 7.27297582266136 7.102765796124284 11.529312679104756 -1.4005773367622396 0.404816078979406 0.365870293843828
Ni 3.0504119482338976 1.9442946811650845 7.047149591908994 -0.7518178180535052 0.665996194301995 1.2824965958667074
Ni 4.3174198343020205 3.4784711588922783 13.518950180156057 -0.17241586400298695 -0.13110389262807742 -1.2441298231630509
Ni 1.288897016678997 0.6321964714740829 12.709761173427509 0.3522007667765354 -0.38685846605972085 0.15573994600920274
Ni 6.444457538348075 -0.4246124071217523 13.176743371705696 0.4726039851576571 1.7054181261975727 -2.8603720644248996
Ni 5.426851688682295 9.163621934128734 9.834794646979985 0.9343977670736876 -1.3336042131758 1.2984582614022864
Ni 1.3409755187028563 5.703752863582779 13.36639836502453 -1.4857695544598668 0.23179883394699435 0.5168022769414261
Ni 7.096513070475791 3.277355589722566 4.005170100702373 0.3777963558574526 0.37244537595818433 0.31936495119343705
Ni 0.8051132579541488 7.2792560933567625 8.820254561035249 -0.15559339312900944 1.7259458138372792 0.5398704716147994
Ni 5.135048643403687 3.0285962710814487 7.282951720483808 0.4421371840273676 -1.6498167347831845 0.8777951880882947
Ni 8.13596214234093 6.194440329231418 7.226738706918809 -0.444041600138932 0.12779693974203152 -0.17037620786513885
Ni 6.375154200323378 4.510189254258107 5.947639463425578 0.8757617025980338 0.9176244042700906 1.2656198747160268
Ni 3.8186249431796386 6.762419196508555 2.562956434755992 0.011593361264554227 0.6504600463396087 0.41556483285547785
Ni 5.209952807633349 5.243934213837563 1.5489810222729046 -0.19611166495803 -0.7275152367523987 -1.7480953533511248
Ni 6.2324341306021385 7.57567752483389 7.64164699401429 -2.227166434290364 -0.6193993203790622 -0.3670288329283034
Ni 7.592663637094845 5.000362545697765 2.44561269858439 0.40720874758129866 -0.137707256877208 -1.2901708245825136
Ni 6.48405813412186 6.821319688483706 0.7247524199316836 1.2455624418445195 -1.0595824660038526 -0.6239879681910092
P 9.101792485498859 2.5556110889134165 4.4537549621496 0.5578653655303232 -0.12082565063052095 0.47937961331859374
Ni 2.1204177111054348 8.693152532911785 7.330146485690585 -0.052399339537322655 -0.24914555275555797 -1.6157838135681915
P 0.4264560889282387 4.0217604824560595 11.218538441851234 0.2325323696789092 1.1307953387032526 0.05966347729890369
Ni 2.455631750313663 8.262017458681825 0.9743536988400058 0.10759295399033085 -0.5930192877236368 0.3324248697011888
P 1.7617261102478745 2.1690989906771025 0.8619285898782386 1.0890676199471632 -2.0929005989945373 2.3701089714245827
P 2.9752415152174425 7.559572854074043 5.175486608603525 0.6341158006536305 1.714920152150737 0.7633636139095756
P 3.082814105081958 4.735158834051583 3.6705023715911858 0.6959397759389627 -0.24391695736676702 0.9165085454980926
Ni 6.307476020066349 6.95004687437484 3.083395305571752 -0.466391428589042 1.9340408764094306 -0.9740868581331934
Ni 4.516570523458844 7.503463593519071 12.891945031856213 -0.37578215364090123 0.07798387287464635 -0.6233433926284748
Ni 8.910464589664377 7.905428463071703 12.887188002254916 0.2736006004741288 0.25920627942566976 0.6669770701580255
Ni 4.377734305351867 9.25302397471518 7.889060278029754 -0.13845853322093574 -0.35060873969906714 -1.1355387669255088
Ni 2.0235142360772596 0.8462389311584978 9.256758164907898 0.12312935906303311 -0.087074779432321 -0.20395404382058424
Ni 6.896839025427685 5.114711217102056 10.333275524567595 0.7478701462596669 1.1270245588069105 -0.4576944150356763
Ni 1.8960265772970613 8.733487663269827 3.276745926017632 1.4229878432469558 -1.018506521899149 1.1358493561873924
Ni 3.915106060821866 1.179414636895412 2.4689690620273193 -0.6680294226819398 -0.9532580943133001 -0.09964464567753162
Ni 3.0777458164505807 1.1842533834692084 4.9446701335193595 0.9327802860749226 -1.4636958624892793 -0.19056245300502667
Ni 7.619520057831761 7.648855532790547 9.32490369279416 1.103951736147847 0.38069321778927334 0.5065649154841341
Ni 7.495154171034658 0.40007344299816877 11.038626131624348 0.4760371792089221 -0.04641458270879749 0.3104370525761879
Ni 0.7942660184811257 8.618652362703465 10.79551354759971 -1.2076003607784493 1.1018732563522635 -1.1690656950383609
Ni 3.6587993993275028 0.7094190104853078 13.439932622254553 0.7215741886776152 1.4431897721161273 0.1905722231970395
Ni 7.861989924095173 2.6592171920229415 6.4688844859475605 -0.4597638959701953 -2.3185907489406326 -0.4142702824137704
Ni 8.332633777275884 1.5930402429731318 13.51370927589738 -0.8005592491232664 -1.206010133473194 -1.8940573940379573
Ni 5.315973693188621 6.792489206051598 5.529748047749782 -0.6752326252985984 0.4351900632855731 0.016069394758036842
Ni 3.7153952890445456 6.811155566174043 7.204027815741798 -0.17057264014666107 0.9577976340548665 -0.1260277636567507
Ni 0.23160242708932158 7.7850382447118935 5.795423697866349 1.118583627128409 0.26875741344921456 0.6354471178705443
Ni 0.24334212608221759 4.998884294846946 8.989899914110678 -0.4008828053632709 -1.0994098824134355 0.5975652552231063
Ni 8.369204417889605 2.0852977762956213 2.3831249233333716 -0.22042555911304618 0.8519064932469909 0.01742899410972482
Ni 6.917929349678179 1.7575668081645164 8.950056003755858 0.3307729359200626 -0.7304514365625872 -0.33098428059992024
Ni 0.4494066220133654 9.499093060441455 1.4902825273084244 1.8567329465558864 -0.24838733443329478 0.5674874620011194
Ni 0.4593072300409266 6.28429227225072 10.923902847582085 -1.9147138939460444 0.2074648851873201 0.9079272315869846
Ni 2.157722886303414 7.592819725694 12.174391969018483 0.9040975734282495 -1.074773057701362 0.4258068222984602
Ni 7.982141418715099 4.958842978322608 12.47308586686566 0.8143321345376427 0.5061231999610252 1.3582083848777255
P 5.251371376503171 8.77285871698603 1.6467723659798008 -0.5714916980645061 -1.0519920552511042 0.8101546061211855
Ni 1.6391231064529892 5.985364241504815 4.787737737760967 0.023872435742223405 0.24443657731566287 -0.23327387583062406
P 7.173446386494465 6.070524344867172 4.7918364407411245 2.2252849009969355 -0.4205473736717338 0.4306073290108971
Ni 3.4529185370424194 0.14868265420894927 11.247752718603618 0.012257220100798246 0.11722430643250778 -1.4339803377027176
P 7.0319199354726445 3.244861616051473 0.4715959936355551 0.22273646663440996 1.8791012869487573 -0.09968989709317025
P 6.154435739436291 0.9722299757232712 5.4369827569356675 -0.43149153138806334 0.48782722986531474 1.2330841068718505
P 3.4262273865869615 5.941237076355542 0.3829991865871024 0.022473498512167744 -0.15871676924933956 -0.22028157733601417
Ni 7.800757284815005 -0.08372592458659495 7.025809525899852 0.6302570890291725 1.643159634477983 1.239819111602839
