# total energy = -381165.0318687542 ev
CRYSTAL
PRIMVEC
9.28448011011900 0.00000000000000 0.00000000000000
0.00000000000000 9.28448011011900 0.00000000000000
0.00000000000000 0.00000000000000 13.58877513079583
PRIMCOORD
 96 1
Ni 1.1659450320195148 3.6948889052605045 4.242306504085052 0.3163662735764293 -0.23430977329430613 0.8562904812472995
Ni 7.767897553903927 2.0780338045591953 11.00143135018146 -0.010202651564614687 -1.7222197711359435 1.1792940576345883
Ni 0.6474495176769235 1.926028293616183 12.214080103291655 -0.6184215298468253 1.0933621335574588 1.1729588594451799
Ni 4.652675889677874 3.6217550541917225 2.215065305726439 -0.8541747204558773 2.843423095275387 -1.027040527512089
Ni 7.237623747893714 1.787290304975734 1.7864751276082287 0.8840753646700517 -0.13527782150010895 0.06539858001046803
Ni 6.910466516700279 7.750860532612672 12.662115696882566 -1.191953912490444 -3.0553287898428803 -0.1759418748783744
Ni 7.886766754771468 7.616430542816442 7.854842069370934 -0.5212124901939797 -1.0077716519801483 -0.02976154753314875
Ni 9.006391514735359 6.473938107953172 9.587301947677656 -1.0386161481648306 -0.4596528243136277 -0.7107886680263372
Ni 2.309588742435981 9.086887958656439 6.797893121902274 2.864421551903925 0.04852802950737449 0.2606818355299317
Ni 7.758566651234874 9.150960156983933 3.611651682764396 0.1241734840568313 -0.2574702705711695 -2.10934948857918
Ni 1.1286307058235725 5.179087351896718 2.2111110455804197 1.8933025181498038 1.1363363231261396 0.6616762267704024
Ni 1.5741836293908962 0.11154560283236864 13.038239277007925 -0.27537131922130637 1.075075162322813 0.7239239198567146
Ni 5.877660931719782 1.283941491741891 4.120293578198862 0.13338677512498318 -0.7791676708213677 0.11162341530596259
Ni 3.1072927180774257 6.657046627793027 7.2275027359538795 1.836034023445638 0.9265075656923334 0.5768269942344905
Ni 5.844543190604846 2.764797525481727 8.450316138061169 3.603126743834872 -1.3717969221954374 1.19621320198743
Ni 9.178943580510822 4.192407064886224 11.475068898110589 -0.27035766805679895 -0.11959280666468436 -0.18674385058988485
Ni 1.2436839853010835 0.9593282081418091 10.327007631982747 0.7791229336263613 -0.812571443092794 -1.7999156804565257
Ni 8.933090543021757 6.724405532135291 2.6134883505587934 -1.7614905437111081 2.285047879988181 0.346043746036204
Ni 4.156206876322407 4.261641434242566 10.359675075804699 2.0982096699122765 1.1214334378723783 -0.3841888896473577
Ni 6.820156377136225 8.91200548833378 1.1021922198132303 -0.09646573372891774 -0.4026527527795001 0.735799845358694
Ni 2.9497443724145884 2.569034259036979 3.2680052146155005 -0.5276561889367944 -0.12279305876953692 0.7602875460874131
Ni 6.269809524787214 3.4629068812914046 0.5211063101938724 -1.4941150982110851 1.689263113704265 0.5972438673279457
Ni 2.9636803772964266 7.4418080379412785 4.870434089876836 1.2129911927767174 -0.23525413948544646 -0.14366990221854614
Ni 7.278401185229513 6.474485892288968 0.9936102230823161 -0.8634787714656226 0.3252664042795366 0.09138086300684262
P 7.2093432209982575 0.7374393426717408 8.618734753221446 -0.6228782800665982 0.6540881300104994 -0.5410611494887908
Ni 0.9283793216174115 6.24090693771382 4.376170140584951 1.221146217783684 0.1236320097310645 1.2624180799492772
P 0.4950698421791223 4.601091317310455 9.258155052362849 -0.4137568331124616 -0.5767105232612841 0.4961342070691132
Ni 1.5004555715849799 7.843519645684457 8.988866129782021 -0.3446350386141355 0.2349659188210663 -0.529332805308269
P 5.2170980141127385 2.5978811392287655 11.347456502174943 0.8611796910188007 -0.6614545976778996 -1.1891562951406487
P 3.6454119099138573 3.273661319994592 5.40450060607641 -0.811269436451919 -1.8919004955959549 -0.666208310312801
P 1.7089942828781024 3.7968046451592006 13.069765658204973 0.2529333019327644 -0.28846003408446447 0.12750666219512233
Ni 5.321529848163984 5.661871041337574 13.68444003208884 0.8135338070060634 -1.0991468585600361 -1.6285369994688017
Ni 3.6765520567317695 2.2106440362229534 8.920256605947696 -0.9260033723624053 -1.1527469032736792 1.99136490694188
Ni 9.268984470147112 7.793680555607369 0.5559843887675665 0.10315394438237073 0.7265549297216585 -0.5262641936852743
Ni 3.5511280127952225 -0.2403603389626852 9.346604582081252 -0.7880845136950233 1.5200040501627048 0.27641518710478846
Ni 3.609787359126639 0.5093410167986254 4.1118957657967155 -0.5177713257229147 -0.350914443864944 1.4101066164089133
Ni 3.2452043879740486 5.175197154664545 3.3527446660189257 -0.5489194691909449 0.6226152562131986 0.2297108410697141
Ni 6.386404027989165 9.441666518646322 10.647498606343964 -0.9894785100979153 -0.31997867351803605 0.15845580227846906
Ni 4.7751753223300915 8.254311475129459 12.33366142379573 -0.4280359687392951 2.4635839979562926 0.7733940015623841
Ni 3.7402435913682877 6.471106341471519 11.905072174125547 0.8473836656759728 -3.8750394150836165 -0.5079430267785833
Ni 0.6715965939571938 3.0897264814109113 1.9426373003670965 0.3732488456960862 -3.408038892155666 -0.1247812928441593
Ni 1.7917375710239687 5.591717508434728 10.829112324860715 0.07833200024268445 1.0753317584183093 0.08805334129550642
Ni 4.598974455809416 1.5878968067463097 6.600285957676357 -2.994131135287637 -1.6034407186218063 0.17398886491706164
Ni 6.023176590955662 1.4112781386135875 12.984821948235659 -0.9680812753690617 -0.5456721658982409 0.12550942925943545
Ni 5.245499239251675 8.258034551716813 3.3947476547500632 0.9959810871031234 -0.3518413265545876 0.4977681431281105
Ni 2.545498101558324 0.10488305979225714 1.986298497274048 -0.21836790525306907 -0.19157212521646363 -0.13087172201261332
Ni 7.739979121738911 8.276974891462949 5.651123326979668 0.6950062083810998 -2.2259274196769407 -0.20132303395564038
Ni 0.7015910359100704 3.7678556356844686 7.279656446961708 0.6250022683881364 -1.3188957033210318 -0.2921837627929549
Ni 3.5853227536212127 1.050436813008886 11.42216778644121 0.27922206042596426 0.34752932944279497 0.5444457496903075
Ni -0.43611989161532627 7.416359277527475 11.551967605927931 1.2472426577604196 -0.29153970145105274 1.568902832745937
Ni 5.787842869609916 6.874080638531108 6.445359549241123 -0.04965905778802416 -0.15801048721093433 1.8714239729091575
Ni 3.5817482287181432 6.831399882740426 9.382913399064202 1.4181963353955833 -1.758752575954655 1.728817221847803
Ni 5.574485513057851 8.505475235331657 8.473308224996135 0.3913316713397261 -0.325630986707807 -0.8230031799490795
Ni 2.176514286758837 3.2597531685535563 10.990139565279867 -0.014449342656110599 -0.8097722830811023 -0.2948314848284471
Ni 6.070908104011979 2.9478224849991714 5.705478388258973 0.9653137399262537 1.8735489896719604 -0.2622849183509935
Ni 9.457542979904114 -0.005164956372929257 7.214212930898673 -1.7591438978558025 0.7986736020647793 0.5498327250338337
P 7.068887603508281 6.918711135178008 3.896091948694106 0.2593931986254952 0.4613718638872635 -0.5478084955149534
Ni 5.994608245171905 6.500640273203118 10.462446844784075 0.12261642398235655 -0.08498524389314396 -0.14942583086571684
P 1.8246324846124793 1.6629711141910444 8.139445742153356 -1.3482461314586909 -0.5832187566934472 -0.49044769820729733
Ni 8.769145190454465 2.697095095369557 9.102060656309936 0.06524791336521667 -0.7498648080921925 -0.5031296645503399
P 1.1627418863271537 7.114595099866237 6.719159800784032 -0.6514496639463877 1.1081400631975817 -0.7554230189062602
P 8.052188339701328 3.6145874354250473 6.264289901268058 0.5671881855931458 -1.3682233459115662 -0.21514991253640367
P 4.8935431612631755 8.585006093304894 5.760607775192605 -1.347592299924776 1.8376363349357514 -0.7633253044724725
Ni 7.569265383056456 4.8690507023169465 8.084411056918455 -0.9662897306862779 -0.1617856379826504 1.0633776713802268
Ni 2.594975096904972 7.508312770098914 13.600869496751121 0.4932419731229828 -0.4564127201097753 1.2664547119124963
Ni 8.375566787425804 1.9111081338259668 4.752375424136666 0.5859186721231135 0.3145101942042971 0.4307713653925871
Ni 2.2806490174415166 8.012292927990961 11.40291177436597 -0.9026101902494453 0.9315896082009311 -2.2446111121293733
Ni 6.805951122326622 3.3143087746066433 3.326912456570065 -0.5992364722779421 0.0012590692180817027 0.2688191199250854
Ni 5.656476758302032 5.350924512691567 3.0569578367540418 1.190672217564543 2.2860069014673403 0.3846164641030796
Ni 8.178011616289387 2.7888164759343024 -0.16264645377783934 1.3971505704688778 -0.55087299337289 -0.48306323281776803
Ni 0.9004655316925296 8.782923359171752 4.821705423639766 -0.9978505362116943 -0.9746201049288441 0.8843751552986576
Ni 2.9503200101911866 2.3468937841516553 0.7903070302121574 -0.787473876694218 0.45220742377917605 -0.6395598544873372
Ni 2.9685268759961736 5.088507962404901 0.8757149641948577 0.8651849555234519 -0.08740156664412044 -0.9091616182147181
Ni 8.509096182636066 4.628424827218605 1.3397319336705842 -2.3151292727545933 -0.300269882235199 -1.1863108552720536
Ni 4.212229430257793 3.8409337798716447 12.68966089294082 -1.1696650191852564 -0.0685209276895336 0.7762127019581019
Ni 4.9793039054960495 1.6226021939870243 1.9865296808327142 -0.07284500898618422 -3.7509638900572306 -0.5783750554479007
Ni 1.731629845770789 1.9940928184587938 5.875446583175932 0.3183552789820001 -0.49080225333323857 -0.5149950485293582
Ni 7.975656368854562 0.23007313482605818 12.489362157885292 3.0259454515847564 1.839225276689426 0.5067459211466885
Ni 4.29362646876484 3.8348338763357566 7.5106385324059755 -1.6007801410705076 1.8734898542992509 -2.8889424198634246
Ni 8.938132015807126 5.625810119977773 6.39997329590043 2.1914761799776064 2.0476368420607316 -0.3050482774604488
Ni 7.03303094071437 5.290965339122671 5.429667118290076 -2.274705360411592 0.1328139333406487 -1.3726268742959007
Ni 4.6165871148772695 5.091051909998255 5.298168238914363 1.4958629341401268 1.0364607923847247 -0.3558938993574064
Ni 0.8580215301486753 5.812066078628383 13.16233285492211 -0.16602641553687536 -0.318675124215264 -0.09617237085821502
Ni 8.502912718777768 4.67945233076996 3.7863493919297277 0.022112258518007077 0.3583711572533054 -0.42766444433248924
Ni 6.690266498190907 0.7435327470714415 6.428809034715896 0.5371708132954491 0.2735244958205547 0.9422913108891514
Ni 2.537420603725413 4.53337031823775 8.811043264558577 -0.16614674316482353 0.2668303716298308 -1.0374493815502392
Ni 2.4679076999610388 5.039810863400741 5.927845404462829 -2.353583977186366 -1.1889462360123717 -0.4963653492433129
Ni 8.588459919964484 8.873019955689648 9.670275490934163 0.8278376252232452 0.7267991845219806 1.0891226415548148
P 2.1025076945448893 7.2373266445251465 2.074299586595521 -0.2071257566803465 -1.2592625650394311 1.093890238146787
Ni 6.837341950111764 3.9817050696907237 10.53242861480197 -1.2125258231045246 1.8465359514182262 -0.6516329836017875
P 5.369335637062443 5.264291027313528 8.559446847575904 0.8494942842610723 1.5135528952207222 1.4676031679634853
Ni 4.507364489007883 7.0716265251872565 1.4905796699242126 -0.9298266027632374 1.2705782471625664 1.094298015108167
P 1.1674584023031522 1.08327601971579 3.608078086309353 -0.1870744944564262 2.3330524328919178 -1.5959953180873545
P 4.011062596297235 0.48300466007122805 0.4050633051198232 0.27297350841309115 -1.0278861633418361 -1.716671587624205
P 7.5162974231291475 5.418394830797045 12.111009374047656 -0.8904406447664471 1.582503711358823 0.5942955833328991
Ni -0.08578209853748928 0.6616909819595699 1.655710650621692 1.0635450501960262 -0.134849989934071 0.13766663344725966
