# total energy = -340889.5271492922 ev
CRYSTAL
PRIMVEC
9.12071801336705 0.00000000000000 0.00000000000000

0.00000000000000 9.12071801336705 0.00000000000000

0.00000000000000 0.00000000000000 13.34909274887053

PRIMCOORD
 96 1
Ni 6.428300227049357 2.0184422364674104 11.013641742363715 0.08437640666455146 0.8316024915823162 1.3525799829473544
Ni 4.496459207173037 0.41214608901490585 5.869181977500435 0.6032083124414966 0.04882113526776108 0.1424123756623612
Ni 2.810676915173961 1.719383016793344 4.678790566915093 -1.1830427260437433 0.24214623861958942 0.5311564887805691
Ni 3.6259687687664806 4.431455850601715 4.689736340483389 -1.121267087497843 0.6166927200811766 0.5736105441797218
Ni 3.7534764052007557 2.8940129147519276 2.82281203035821 -0.15435849228064383 1.046252581664166 -1.5602592981383259
Ni 5.3053574375080155 4.896977292919699 2.2707878752026054 0.23925580444567182 -1.7736433770235582 0.4509280428461202
Ni 5.203807364256283 4.555716511458694 11.725549346332047 1.2119226423028868 0.18068324621810172 -0.4808389714729396
Ni 5.881431101658606 8.148741247120697 12.490879731336605 0.08498961476851814 0.09206786177153821 -0.2813686744553219
Ni 2.0841205261643503 6.61854016129443 0.2537237792119628 0.32960694063641943 1.4665323034968099 1.895240101492149
Ni 2.9049030519409493 1.678002319618644 0.22404861140777418 -0.3624399280060403 -1.2247779009990005 1.3997185883063699
Ni 7.9045705078515995 8.851437838067929 6.874449264518527 -0.20078310229177032 0.34482581446870286 0.2397373720677807
Ni 8.859938347163547 2.439810283364913 0.9811420760644235 -0.03187370878014511 0.9615285618522087 0.6828371771187337
Ni 6.921603376132634 0.8444717664139915 4.880134975220161 -0.1172685294068819 0.5285884709430768 -1.0432649597907517
Ni 1.3518363263049018 7.750184115725492 2.4042248903526118 -2.415167040105486 -1.8287508595206634 1.050195625472314
Ni 7.533776841785861 4.359247126878528 3.466558685213478 1.8022687540697346 -2.0808475244847453 0.8372702313910548
Ni 8.036519933909872 3.79610664072964 12.243173801804138 -0.4024815173089585 0.13989655121904293 0.3421135577438624
Ni 8.819269065986118 7.267789345267065 9.424486160086527 -1.613357977735518 0.6578182864768929 -0.5898591448281003
Ni 7.257108984590059 0.844577566741791 0.4340257792182093 -1.340352844753543 -0.37709753001821505 -1.3894506307214587
Ni 2.008254394557748 6.588669810126887 9.211701635302237 0.5410619208197391 0.6805021012276538 0.01197902673874711
Ni 0.4964926641377162 5.0132208427304885 1.2171078174983079 -1.0696488491009193 -0.2920585500690002 0.27805812202485014
Ni 6.422517691892038 2.4228183858915897 6.859631746195844 0.17111025781768596 -1.2158129784962286 0.6439705819605233
Ni 3.7336570851741695 4.47177854449842 0.3156498055591842 -0.904076490382327 -0.04984649120848189 0.506482640182973
Ni 6.121023240534999 5.902007441272033 4.533858710978383 -0.4700498512772357 0.42268601728129135 1.3677975712280572
Ni 5.108203999084317 3.164350993715584 8.99790288668594 0.961757390033563 -0.2645757712676992 0.6010804674652164
P 0.25129128374436477 5.671590744616878 12.30211005681923 0.05000769937669452 -0.8279600097337224 0.8085633503746656
P 4.216662943732818 6.325436770418045 12.795225319113484 0.8176784253020563 0.6709939046269024 -1.1864530372768727
P 2.674604924618671 8.626128743444474 1.1449729715902222 1.4848259595996751 1.165596505542838 -0.8647596950605752
P 6.22762619151095 7.976843076600182 5.691638994663099 0.6192532817195012 0.12658363616022072 -0.09670073255785927
P 4.942425830283932 1.0818357139040544 12.548280969526813 0.3420063427420368 -0.21796732738054075 -0.7700960475374028
P 3.9970999013950284 6.223184401886952 8.021709712161519 0.5449980226493516 -0.029994489479561244 0.8924661598369081
P 4.856855254817096 1.4090049861883096 3.76091982309017 1.0535259753971276 -1.7367681012637637 0.16510647482576726
P 0.2601839837102745 5.798013015619415 3.4727534768204995 0.2708783164469593 0.5155380655170219 -0.00796013538734113
Ni 0.5188785541852331 0.12952422716500608 4.424156540055338 0.8358229574215669 0.10004959442543414 0.582498590697971
Ni 2.1536203966671525 6.830779267147475 4.658192337578672 -0.4455007011829618 -0.33416139277632123 -0.6550546076888267
Ni 6.1989050508005406 5.838171536593673 9.057012435341395 -0.06686642280524613 -0.7292417325252022 -0.4217997580215962
Ni 8.805597109833403 2.5718053130127547 10.151210370305751 -0.11846023572213794 -0.3151082327996121 -0.5740969968978371
Ni 2.3360985999676207 5.381779932907356 6.929033112945177 -0.10712707009750581 0.35913400356125896 0.3306605787119144
Ni 0.8070011210089176 0.3966271874846541 9.524270462350158 -1.5847380000059803 -0.5916658590195358 -0.9280599977811178
Ni 1.8391380430009288 1.1475048828830805 11.478791059390815 -0.4739301601682483 -0.22035305400389793 0.15961896934863476
Ni 4.4692521056363095 6.9412767646726 1.6440477109693223 -0.5177322449548633 1.175170779494834 -1.1119784631070655
Ni 5.380922585423464 7.907908690608033 7.866620112684262 0.728059796401959 1.0637512526695616 0.8541950321708515
Ni 5.649655418034299 3.3430714612355854 4.664854109942878 -0.34372409676409194 -1.4157501878479362 -1.2452323121986102
Ni 0.5851761406285165 7.3928161464288 6.349295656408633 0.2811647859746319 0.44450439870796354 0.7156385399194708
Ni 4.996539049666232 4.551603067679591 6.771553885374517 0.512930966911478 2.391793912597184 0.8266142943391054
Ni 1.0049571826090256 7.513966642477188 11.45647175058407 0.06963524379963491 1.2589488904537545 -0.22865077523631586
Ni 4.679584981445381 0.3324629369613976 10.498780864419489 0.41730701235756523 -0.15114204222587518 -1.114228435483507
Ni 8.090268324575622 7.51892831302227 4.336866709261759 -0.010429422863440103 -0.3110613164237482 1.077630324644499
Ni 7.3080573148562875 6.461755020357006 6.917433383902465 -0.1328152188922293 -1.2088851410281438 -0.5347645178468016
Ni 2.56144417746273 5.39617242577526 2.5632664969018983 -0.04591398892329512 0.36771068948667646 -0.05442614015936433
Ni 2.3327695379291002 5.5138752904522494 11.731650194544555 1.1803374112974383 -1.7767305005893141 -2.42786751839129
Ni 1.0928626618617825 3.6979129916701687 3.811926525951046 -0.062421756770331197 -0.7586381834094483 -0.9440923686536321
Ni 1.4331748886597564 1.2385478890981687 2.282775234756652 0.29271906647113455 1.0539931448415332 0.8910309700522784
Ni 1.230767916717737 3.044568605354258 7.9428300953562125 -0.2642392138638868 0.20620067376291584 0.5763317997656269
Ni 3.763199090496817 2.7445425895813336 6.894004995797407 -1.4021953319816367 -0.33126684483734564 -0.610203255702091
Ni 4.197208452422782 7.066011702861094 5.942014558328922 -0.0491234969995283 -0.5139450099982891 -0.6035811223998832
Ni 0.7721134629170188 0.01108988091133299 0.2753754514674225 -0.01409915840554346 0.8855010413729846 -1.089557157989072
P 0.0763048381382539 5.825703515205571 7.857702786779986 1.9520504256129738 0.9037155074984822 0.523280428466602
P 8.29740894911488 1.6082197068605155 7.906494067259611 0.951466035409884 0.797732835418065 0.3358092127923894
P 1.8946558529419468 3.3261160466339175 10.314069909373734 0.269544171016568 -0.6316220876974994 0.21582791244003474
P 4.1638266248584435 6.360414723617288 3.754993180589813 -0.5472994170890187 0.3562800790522316 -0.30016215301274113
P 7.019778783756277 4.053766921793179 10.091740553292704 -0.3500919479636487 -0.19237019563772675 0.8386043768214462
P 6.605862363394312 7.78086621078736 10.07903174495168 -0.8062357306827534 0.6677062350145662 -0.4727302263228762
P 2.361946714535198 8.839124868884362 5.633130501318161 0.015809713338746968 -0.4485130056467243 -0.28204924546211424
P 6.913412971446084 4.075893783451945 0.9179026663376216 0.16095440033060668 -0.9725681074958219 0.43949691819104314
Ni 5.020024898294149 2.6080966495915803 0.5894355158942395 2.1291009601744944 1.464571066005381 0.49596914224615873
Ni 1.1048199230467135 0.6748656323052039 7.155474088661729 -0.36361955013643826 0.23844153607449256 -0.3015682893316484
Ni 6.606701469442377 0.7986428951127539 9.052259629236538 0.19831484325693588 -0.7557986570781242 -0.8227509547289572
Ni 2.8735277823176366 1.5701315888526803 9.241095884994683 0.5046581853797244 0.5329290072999595 -0.5543624945833873
Ni 6.644014326427543 2.2969068750922212 2.490206810197358 -0.10425874741077529 -0.3994499295714863 -0.10948117215197918
Ni 4.579849931058486 6.713240575392933 10.571653576406797 -0.5438937338415795 0.7695612580798552 0.1087275818154063
Ni 8.671595522244536 7.181644164571662 0.35673590354527 -0.3799691951390553 0.47127189660979485 0.10592379381802403
Ni 8.014739659531829 4.083007943424673 7.9535898062790675 -0.596552754798192 -0.8170976130979218 0.20958861639854226
Ni 3.4400155719408723 8.405069903368828 12.198640984518443 -0.976879333276666 -0.5177451004706697 1.5664898524290698
Ni 0.5345525079200186 4.990409927228191 10.029493477674917 -1.0902233308181613 -0.6350010314720612 0.00038643680514126994
Ni 9.074302580290498 2.253273360592824 5.677515562973651 -0.38562485076293584 1.019148526358522 0.30944717785909287
Ni 3.680766041992312 2.767362625801545 11.597825548883215 0.2971652751679463 0.32144008855491096 -0.9078097321725139
Ni 1.377967183127806 3.2154634969042593 12.670865242431244 -0.25142766392151533 1.2831828233004545 -0.5410950880505199
Ni 2.8179461273512225 8.302553034018237 7.794281874766699 0.9191022743671976 0.28543076033983744 0.06378187034265145
Ni 5.73735112077504 8.230298706705481 3.4028969862472698 -0.19650838617581642 0.2572134173653571 0.9153376651184431
Ni 3.2451605544314406 8.779721633112084 3.303273208618922 0.9691120306264213 0.30944794919004126 0.9804490529057953
Ni 3.455666723880874 4.706700875802971 9.528555375626038 0.08891877461959524 -0.5202442127434396 0.2242084231942461
Ni 7.504481095846885 6.111419124571816 11.274189642718747 -0.3559746319966708 -0.1313142088666706 -0.48255929659815594
Ni 8.389747097273721 -0.12429531958505118 2.3228753831362607 -0.6480555506631742 0.22699575613139614 0.37604774859746204
Ni 4.7812262618762515 0.3635208056013113 1.386116544583745 0.04857508069522602 -0.36856660972906846 0.2059967852822259
Ni 6.618631368473568 6.080509011562105 0.14845792548216716 -1.4399830922533716 -0.943460391496588 0.14214112427884554
Ni 8.006394202640744 8.972533609808835 11.296135914162821 -0.0872483288957078 -0.7695545732116359 -0.246334308559008
Ni 0.294353841302361 5.052202791093871 5.733782183855388 -1.397234902652568 -0.5303036538619705 -0.46761218837002044
Ni 7.314715438933327 6.307651370486225 2.4578884583417637 0.8850436421205918 1.4174939100119202 -1.2652761182233627
P 8.58352587006933 1.9468081179727899 3.5092226673986433 0.28141238320906375 -0.2492908200841707 -0.35956337778919367
P 2.107268908229457 3.5553561706782006 1.5215026571519203 -0.8202875807901292 -1.8301482540888223 -0.520711125077529
P 4.622826753868093 1.2228237714148573 8.005958232324467 1.4230806600710781 -1.6805748419016475 0.8494634310231369
P 8.85596171415315 1.5289789096258242 12.193341847410553 -0.011788765104811957 1.3753162482026056 1.0085000455057407
P 6.543868843734529 8.040177341793287 1.3674546436604136 0.8587227448378759 0.09725789061290993 -0.9055793001800985
P 1.959941951768595 3.4964545743911795 5.922605670608455 -0.5275008943058528 -0.5379979371824347 -0.9369472729684186
P 6.976017579206088 4.295064634919444 5.960784083723636 1.517109502223729 1.157083068755188 -0.2909594034675505
P 2.6424543939726894 8.56087912748948 10.1397839349034 -0.09470761338723044 -0.4886641239443133 -0.12084519101454672
