# total energy = -381173.86157941015 ev
CRYSTAL
PRIMVEC
9.28163878119266 0.00000000000000 0.00000000000000
0.00000000000000 9.28163878119266 0.00000000000000
0.00000000000000 0.00000000000000 13.58461655869832
PRIMCOORD
 96 1
Ni 9.043926540276331 0.3821046409850562 9.457025356991968 -1.223107712385429 0.6219274861175548 1.0661305515350152
Ni 0.524720730515995 9.157951470306632 12.576542318408244 -0.2646477621562152 -0.24234807021775032 -0.5147973306962554
Ni 2.4057914398798474 7.548951576489559 11.521303545915371 -0.3401582337897045 -1.9942121465826883 -1.0498151022044437
Ni 2.881011335488427 2.8017182970473313 10.323004093403286 1.1616488337489994 -0.09543189314776468 -0.21073609973942414
Ni 0.11981945699960615 5.4917692002652325 7.734985314998581 -0.9831384268125005 0.4824047732981628 0.5282269738386
Ni 0.6637893777793245 6.4215202190739635 12.6581594791513 -0.23367136837935884 0.7607200056391415 0.05550806036963343
Ni 7.8696229080009035 7.983703527862721 11.730859741093159 1.3828477806929604 0.44613576366379937 0.01373663285980215
Ni 5.30180190332342 4.219794885148222 2.7809886854291244 0.8249291933271985 -0.07296430817286789 0.6073033084464766
Ni 7.656999131270409 4.2605784050955675 8.628635400526656 -1.0060502984136674 0.1859720054208668 0.2386109717728213
Ni 5.487054127863491 4.9723501417096205 0.7136392022975776 -0.14655313730361214 0.8916032976159807 -1.8216469014860304
Ni 7.119917114485439 2.145432195901014 9.569818613581893 -0.08785485213145514 -0.4303103665957686 0.010649509294046174
Ni 7.487952647701678 6.748187489111931 9.024817502755258 -0.367765968204644 0.847683970525211 -2.0517277243006538
Ni 0.5505422490625393 7.848729939543581 8.364877220497592 -0.2412710351034877 -0.5407009379358946 -1.345143067053335
Ni 7.404204422739252 7.165063004568254 6.704850590389548 1.8025338348056632 -0.5614389418141943 -0.02805819168879684
Ni 5.556601445789177 5.3280410956063395 7.2704866401208115 1.1485763168357574 -0.30158705838472577 0.5065965400530179
Ni 5.633499821475057 7.684268585436385 5.339460295558824 -0.16970823526383674 1.0236405006916047 -1.029820661360388
Ni 5.063532959179517 7.546900334362031 0.9658714435304172 -0.8036905956633966 0.18924064886980957 -0.9739439047974259
Ni 6.104942090179091 0.21587791921878333 13.002651207930024 -1.677314940203453 -1.4475853300806618 -0.7058943160485134
Ni 3.0594415556677106 1.2013967353082677 12.742750476897344 -0.199174877264386 -0.7775563604701898 -0.48796658365665646
Ni 0.6059805481734862 8.351878285657751 4.863863565423649 -0.025368560671775665 -1.4587889121059652 -0.46905689123634703
Ni 6.059582722408797 8.892589423129888 2.6253903680078006 0.06064203916208912 -0.538064528754312 -0.5681605768087441
Ni 2.390792311924702 4.849823230734448 8.02845402014177 1.6753421327477986 0.010372087262943426 -0.48533505957108025
Ni 2.9392721808934086 4.928856383295132 3.7966960310199154 -0.5754013175315574 -0.9870249063511001 1.4573604071895545
Ni 1.7597893942869347 1.4069571850747367 8.533325966541376 0.15743713120596756 0.5504639308599295 0.14733680954717207
P 9.077442537210755 4.290734448861823 12.628041490103247 -0.4658967483408106 0.22627970390097804 1.1205970580140119
Ni 0.9462537722148255 4.910385922508784 1.0571294422728608 0.12635095132412433 -0.08212797695000694 -0.32965347760363867
P 5.735690662308073 5.712198835046642 10.091359454718289 0.44729970206491354 0.9107227920542509 -0.6693751380765569
Ni 7.199720643048771 9.630906646100202 7.815528590157225 -0.8420126311720467 -0.2847085374618323 -0.379712599043559
P 4.361868926985732 3.3435153862340425 11.978928239256271 -0.2537953928227435 0.01969670709797898 0.32543069777154277
P 4.09492900124935 8.446337521548541 12.250933155169092 1.9723989073623385 1.1105995804816682 1.50461059842577
P 6.08430900760218 2.11608365469175 2.425057337093026 0.3212151170282984 -0.39421747752795333 -0.31805291725023294
Ni 1.2095181690711099 5.632163265518658 10.051991384655324 -0.3171358047526022 1.6495567962535782 -0.20148321368258848
Ni 6.544279171013788 1.315096807988055 5.590436731090964 -0.3277919989148677 -0.4695937375764235 0.2142644246076568
Ni 1.833661955793745 0.8304523365591443 3.7666606485552796 0.4270576639864258 -0.4454035134834652 -2.1178277012535207
Ni 7.720726861802606 1.1799004603428485 0.6844809346793285 0.44600258052004477 0.5722285762305306 1.2026957243879803
Ni 5.917425145824011 2.767339107724398 7.502239873977269 0.2312956690583307 -0.5618364343629292 -0.4934114088213115
Ni 6.5530224745618995 4.1560300280616795 11.417054965807816 -1.1138481693259528 -1.2512553784642386 0.6567682479458237
Ni 7.723065834726305 5.703037857762156 13.360810149526788 -0.9347631208329062 -0.1074875387607181 0.27945577370332514
Ni 5.119315607082008 0.7939727124241756 8.895166006001391 -1.303380638404568 0.031180539367862428 -1.8144586112677072
Ni 1.1032434072602066 1.4869185014940318 11.01776258648901 -0.24095993162097207 0.6063856817282137 -0.17717960394021742
Ni 3.8649114338084947 6.945756448055763 6.799847233154474 0.5567729037970928 -1.0770600539633257 -1.7077917686360717
Ni 4.918284596945559 3.0464286983699913 4.887092722313095 0.41965828619856116 -0.17514688978090479 0.8165985619743161
Ni 4.426181400748854 0.04544847150072207 6.517844136156703 -0.14921577173743977 0.9097478297354914 0.08078226155538991
Ni 3.672920739654911 5.172165257191291 10.841216538942707 0.3259202358134516 1.246181306375441 -0.16857952097603227
Ni 3.4817189847811467 5.67090482497706 13.240545173875049 -0.751873353881789 0.7826579433628134 -0.09553936525990643
Ni 1.7716142018456325 4.370315218099088 11.86597255399109 0.29236502556582555 -1.3838975621137133 1.2562895984540363
Ni 0.3770517169387806 9.11994316029653 1.319514867955041 0.7184778091404789 0.15634261259020818 1.4011663764964901
Ni 5.627977246516324 7.803249910471666 8.018917136494546 -0.7895158468249113 0.4332347393314152 0.4901576777707043
Ni 0.9678985533976225 3.2780798342020017 6.647183769854077 0.9589613153456646 -0.7099558877123967 0.7361618566838032
Ni 3.196150810402452 0.30811327450434384 10.441339416392976 -0.898016657341492 0.28045027640611053 -0.7746384154924466
Ni 6.904666634035076 6.564364636914121 2.1190639888417486 -0.18429487482876003 -1.0768458810699906 -0.06484579283079156
Ni 0.03020430828690311 1.708044259169399 4.965191213868158 1.155547605947268 1.0209606398665967 -0.06651341034120159
Ni 5.757660300841384 6.943222560721757 12.143872238569944 0.3312971838546488 -0.7753094734175422 0.6357507651538922
Ni 5.117440716087615 1.4879766082928478 10.972769843442867 0.742930028645572 1.1868099063956594 1.8695049015095742
Ni 3.170227193831461 7.909441137535294 4.70444771005186 -0.7158745671896768 0.24952684735437672 1.0165252298030623
Ni 3.050373394769086 3.206889666246576 0.2812067324070838 0.38474424793019546 1.1701910668920557 0.8410245562271644
P 3.80267804708866 4.339351671775841 6.373643670919116 0.5397234045139737 -0.03577715759960936 -0.2563945210084875
Ni 3.3337696657186324 8.597795299996605 2.562520260880959 0.01176973894141844 0.8998082020242761 -1.4640162219431754
P 2.005140228672036 1.4331314058875528 1.3255367950697057 0.670619037785987 -0.34071513473443904 0.4703779240406157
Ni 5.952463331486557 2.6167538033034297 13.459474895860943 -0.9901472540301657 0.0028570098328208862 -0.5599399886711647
P 1.1268837407390162 3.591548614170528 9.243503117646338 0.4913514409684892 -1.1196755746410074 -1.4106123524007383
P 7.508075240156353 4.969268637699034 5.848394815167572 -0.45017033874448925 1.0322123015210158 -0.15134850180972642
P 3.3717872573673184 5.025246200011833 1.7339947924922903 -0.11100660765757013 0.003454534207503728 -0.5807924066401416
Ni 1.8365949535869541 6.759492524909808 2.7573511364418906 -0.7566072690223485 0.16584720964653374 -0.49947458429625596
Ni 4.847224371930338 3.88146059540752 9.26769663678488 0.6479002560322326 -0.5910976452208917 -0.27093925159188176
Ni 4.534396025024253 7.652265495591495 10.211555746244489 0.9638849778995271 -0.46757387893291735 -0.3662518455529628
Ni 6.747342860000596 -0.4303710179605198 10.049097369744176 -0.36015216041312814 0.8223418922159967 -0.15554557061020954
Ni 4.666427333911598 0.758436102769555 4.048759346430487 -0.4964499385373192 -0.15970227309106044 0.6714093948977662
Ni 7.789559493557161 1.305304679279714 11.75229568540777 0.5616464298393101 0.3392670894340028 -0.18697910652914249
Ni 8.883066461940544 3.6499022759613706 10.620520521133875 -0.9215425083775742 -1.353432817865953 0.25508145862401876
Ni 7.744506419860207 7.954856195137106 0.423393082071486 -0.3489984577891538 1.318933755647819 0.2637198510253071
Ni 7.788454978565415 0.9254935311892843 3.566749932196173 -0.5256126761442044 -0.9198856895004416 -1.7716500007426135
Ni 2.868221237516774 7.196889743280009 8.713485355989253 -1.2028415059372253 0.5125015926835431 1.6368462906654453
Ni 8.001756314912695 2.987406758600949 6.490349138173084 -0.3443756143051617 0.2534102415691829 0.5249768423324185
Ni 4.439259229516676 1.0612625559352533 1.2389344662420525 0.27991677250014374 -0.4495933831950966 -0.13300162387142256
Ni 2.441961985449899 8.18990441069163 0.1769813563959928 0.6763245728111964 -0.0744995138704717 1.18474376789525
Ni 4.509409853950459 6.657765766006095 3.231305016547325 -0.0560814163746002 1.4162942332768642 -2.6826545857033413
Ni 3.6565664924661943 2.6029705700030634 2.8954387145066685 -1.6920884989682021 -0.2139587204417799 -0.6114800655319856
Ni 1.9810543765410933 0.3911133993967298 6.184301028254149 0.3885278833423438 -2.3343122734409474 1.6422332660089718
Ni 2.7651672042952495 2.123861667826906 5.347746942488499 0.13544700008812158 2.7160838118960644 -3.130998412762053
Ni 0.10677782662226991 2.370428396866787 2.370311448220602 0.6396801821152854 0.45210637942493753 0.2312308772586663
Ni 3.658200060857349 2.316260754078278 7.249538909995831 0.46397613427932993 0.14159219375391097 2.7453169977295686
Ni 0.5942494851645082 2.379422304656723 13.309840031231191 -0.12804530830741173 -0.3830707168825145 0.3296912728201096
Ni 7.938242062067978 5.875184408618647 10.852193004734634 1.3064690475219047 -0.9851143195919484 2.204106467147107
Ni 7.417783459990723 3.786834290022179 1.2950753853939676 1.0670731179539428 -0.5357749613891869 1.046814624815223
Ni 8.793730690549282 4.939715900440875 3.0963416380306303 0.8990756947336258 -0.01776298041037586 0.1619098222653405
Ni 9.225150533670032 0.824028514493701 7.067477712801662 -0.12181861067140956 -0.056587666587057384 0.1962708162437136
Ni 7.621051345026424 6.692488375956715 4.278841885341446 0.23961138801287768 0.06264749962789211 0.8689004567018261
P 1.7737953869133674 7.1821319379281015 6.612651433494473 -0.38201322215227757 1.3218028496654979 0.17329055329845638
Ni 7.365119442653162 3.2323027926953314 4.032634355714848 -0.2494121761533834 0.49943961729326236 0.12374385271858043
P 1.1403142717731103 3.6474704866518115 4.3444277999185825 -0.5480638060588691 -0.5474143454003282 -0.5458495720163695
Ni 5.127947530967085 5.412299810691001 4.792625132947575 1.4026329337396877 -0.9196095530209194 2.999969082125653
P 9.10729228690367 6.88097061072475 1.682889162273337 0.639293745310144 -0.9414474748316173 0.3235568777875976
P 0.6305462610193305 7.9018766020876186 10.518813253671194 -1.5804568561321233 0.1434189625500046 0.4306692925970841
P 7.888325409751905 8.850163053152801 5.305947083115974 -1.0432168801616357 -0.14464486453730574 0.6517414841551937
Ni 0.9870280105235851 5.453473159458963 5.692673980116911 -0.1548220621806237 0.15757365678383184 -2.316751895959681
