# total energy = -340898.6149269983 ev
CRYSTAL
PRIMVEC
9.01250466284681 0.00000000000000 0.00000000000000

0.00000000000000 9.01250466284681 0.00000000000000

0.00000000000000 0.00000000000000 13.19071157201355

PRIMCOORD
 96 1
Ni 6.35059847537269 1.9091189084943678 11.261478136358996 0.8041523657911634 0.4161060500709285 0.7024922323454998
Ni 4.625352691417349 0.4287419808478649 6.020399222870562 -0.25321098107418333 -0.5131001454994905 -0.24815310693530165
Ni 2.762684233068758 1.6080922330347052 4.768086434935727 0.4452325351232396 -0.7368822797895954 -0.5141715241867983
Ni 3.4905701771070867 4.401554170264858 4.959786919962066 0.7477945558267249 -0.46660123060700287 -0.7350112880191277
Ni 5.059331838850334 4.468760419146709 2.9123116415689956 0.5158041746942149 -0.6474181741894915 -0.9854714458210512
Ni 7.157857549879365 6.000165248166976 2.687990395133529 0.46269392513279667 -0.045852539557740386 -0.7686166347783988
Ni 5.0686868189146175 4.337367110517434 11.534881484364872 0.32558342129932316 0.951751684971103 0.19922064290065689
Ni 5.560679460252991 7.823124610019196 12.489796932554771 -0.045084808153780416 0.17840396326562177 -0.22256703093608118
Ni 1.921195665032075 6.45024072931365 0.35842371403133466 -0.19947955298899836 -0.4001816655311882 -0.0809720089686928
Ni 2.8315127328288088 1.6712518672259364 0.3495536067295353 0.053305910511992065 -0.837072770668268 -0.002813043968762897
Ni 0.6608644515064948 -0.03711349509125151 4.669709536679761 -0.3173628331617438 -0.02633709523263206 0.24629959866633064
Ni 8.531867993694771 2.2286392439655045 1.2964686543384485 0.5143234763836304 0.7346392493916897 0.34126766480379933
Ni 6.9208737340890645 0.8458425091436731 4.878255294575226 -0.5417118956989122 -1.177228176244495 0.04687275329213863
Ni 0.7871026073450473 7.413307988166503 2.4060648225141765 0.3296254525791807 -1.0988558096821786 0.4464293836448183
Ni 7.4705554191571855 3.7116198842715176 3.9476636958029503 0.655999230990283 -0.217332007789387 -0.5052544242028265
Ni 7.490869605154194 3.87142962078392 12.602050384572758 0.7425081106168051 -0.3078906320052504 -0.12005740500592874
Ni 8.024968669286721 8.73805608031392 6.967123205376042 -0.25130347963882527 0.3410807456039739 0.07136713888907709
Ni 6.809731523922646 0.7820871483799474 0.4042315725792472 -0.11744156464963644 -0.6511511588693625 -0.9110313244336052
Ni 1.721992269694063 6.696381250060899 9.174681299179346 0.9139469554185036 -0.8497344252963366 -0.42594231943506
Ni 0.14119621018603934 4.890590710002957 1.3330927704147764 -0.5719796934445183 -0.4632917066177956 0.6193550974046881
Ni 6.447960565579293 1.951612868998314 7.043233809078233 0.04223962539550145 0.3415574281300763 0.05487788298480227
Ni 3.5313607741889235 4.229478414612292 0.3336879931407448 -1.31153797740438 -0.0519455398293557 0.9060657528982137
Ni 6.149502454010112 5.548278253539643 4.844064554816197 -0.4787430081758594 0.737669294467265 0.25624796812829415
Ni 5.24078961208182 2.9631764166044507 9.28771253036838 -0.06697286647612337 -0.48173628647622835 -0.6846444055308015
P 0.195439773300589 5.530875106618516 12.42264295620122 -0.06286167252122722 -0.8191035877843571 -0.6727301705917189
P 3.9426824843563906 6.035467229777571 12.586365922332034 0.7872584182493023 1.0490566267718642 -0.33511681471105514
P 2.4331780421918165 8.419310820262368 1.3496469393763137 -0.24673385799027184 0.3815460527078719 -0.3225757448212509
P 6.418922274859523 7.848792223914263 5.8108909294540325 -0.43230425709734577 -0.4154733015829361 -0.114301476358758
P 4.701246995002446 1.040764063413726 12.403041659340131 0.16741763945744717 -0.25265305168818425 1.1533166597342202
P 3.891833931829717 6.312448542220366 8.314171839595774 -0.46669404743112525 -0.7129016006042819 -1.0531534225490573
P 4.661763211128048 0.9512248274419963 3.6600530351059968 0.1907920525173295 0.5363722286535537 0.7075249096734009
P 0.2238066324068819 5.507478643952928 3.5302567423412605 0.24091185199185605 -0.5525568088332161 0.3356922275985509
Ni 1.363483838116867 0.9803352182007972 2.4998110957633703 0.5449046916045971 0.7995593471038424 -0.1480762588163579
Ni 1.925909205083732 6.522241630791069 4.683257134013703 -0.10789351594988517 -0.579825157630866 -0.2090348007776013
Ni 5.821690614050401 5.541086274646293 9.355248636928795 -0.3714112782667152 0.8903910224754343 -1.026923799428567
Ni 8.618964840844322 2.3505063349377977 10.124926467341007 0.3323461939444534 0.5203164607422717 -0.18202921872303487
Ni 2.3615015908900383 5.289348988369257 6.8104966855868625 -0.05826633984106094 0.2537277728096017 1.5115083539868677
Ni 0.5238076848113276 9.111372057407124 9.123091918751628 0.35116512642316944 -0.171874132566904 0.003437564926639241
Ni 1.417594917409697 1.0650527640623233 11.501931766527667 0.48311002689530347 0.3960768993341953 -0.7773856392202805
Ni 4.116443578421308 6.824782407070384 1.5335786451970537 0.0749322305325161 -0.011114878966238922 0.6419661499359847
Ni 5.499223189483869 7.825179461131581 7.984945036370077 0.365046512390952 0.43817922782088403 0.3922706382142277
Ni 5.274460330309338 2.7281122643533524 4.892869972486827 -0.10736669691213767 0.19699638155582846 -0.12373768207099337
Ni 0.8862140247486419 7.358394795939453 6.754158616338461 -0.28633398888039724 0.35024261460890005 0.22064178888891034
Ni 5.084386602413637 4.836191230554002 7.012420054897322 -0.9586167875220523 -0.5341829343117187 0.6523490358322055
Ni 8.063668365236657 7.207498426752268 9.195918365675952 0.5179129935071015 -0.2839228083357433 -0.2721340432309313
Ni 4.575594651981021 0.4172816796438738 10.242692868593407 -0.4723389044217285 -1.2359429164768843 0.7050859612146051
Ni 8.227741016556772 7.045552726583571 4.6642227237094955 -0.2887343707917737 0.6217012290393615 0.6450630436937536
Ni 7.204181824956838 6.162741823677196 7.0799561614577415 0.48760380100059897 0.2635866678815525 -0.27527001775675175
Ni 2.366647731175882 5.141949471075081 2.6372851414344303 0.05004035238684285 0.07203639704195981 -0.22346691704253127
Ni 2.3562833505651635 5.180441879412801 11.218291114229862 -0.6227733790576178 -0.17245545899167075 0.9932361773681345
Ni 1.0980655694336818 3.1942209916795656 3.767715517138678 -0.37361702766878235 0.7978968717997549 -0.42274412421273644
Ni 3.605191214156756 2.613950865052507 2.5773204402227634 0.14344801601572715 -0.1122808463843034 0.15368152081827727
Ni 0.9956564764949031 3.4601619856457266 8.057164040465565 0.18526109539677124 0.06846102098587564 0.16674940974582894
Ni 3.73724243564219 2.7209383104697595 7.002171034349054 0.3070786776269163 0.09745226601190313 0.18999115388258891
Ni 4.311699496622367 6.925425049052902 5.914358991716081 -0.6354514887459185 0.2697519161519999 0.07919717645645714
Ni 0.7556273353060268 7.299453014031539 11.293148979753886 -0.1825274985156921 -0.4680248504274069 0.7755357304957353
P 0.233431086367044 5.728312051000266 7.960832079566619 -0.6011771409440808 -1.4858065783453895 0.025663466204375155
P 8.520413099993707 1.6394016749839544 7.911854523052802 -0.22501574958688988 0.45210098010829886 0.49969569916812645
P 1.7695602704448221 3.304858501572767 10.292290485442892 -0.7112612367873815 -0.6927595784387682 -0.30604123750133744
P 4.090487564370116 6.115804698267959 3.821191214837547 -0.8225794621480995 0.6980349679050947 -0.5801529732839298
P 6.871665457450349 3.9646639837559925 10.356555953982761 0.8553782538456752 -0.2876300819840014 0.5665546657742049
P 6.272667345684964 7.772474332599858 10.172320526747603 -1.1455730112330593 -0.36700903543396146 0.7162154954688633
P 2.460747294616328 8.423699910138385 5.687452057630861 0.9294913309110058 0.9935490806228631 1.1090795442927157
P 6.871755582499137 3.8042413969118267 1.6551573360132221 0.14784845907626795 0.6880948259732471 0.05447421978848038
Ni 5.284662485832236 2.8414625382150986 0.48817224052021335 0.4442876547114671 -0.8640955791140151 -0.02210325965694258
Ni 1.4865766297526888 1.2911314489491723 6.857191374614858 0.5896161755793587 -1.4322983220146042 0.8129527376916129
Ni 6.830334110075778 0.6691343259833602 9.214384988172789 0.313432387759086 0.0612778729738751 -0.6413380294336826
Ni 2.692648057654937 1.6007200040437766 9.134435958642682 -0.47496014409465953 0.009914945120866795 0.04926156523928935
Ni 6.430773718775258 1.7403597546372325 2.6271145296786074 -0.27633933956153056 0.8869084632434725 -0.1257032904377964
Ni 4.000344490571501 6.838066839261863 10.51014796337922 0.6981920623082492 0.6822967312342314 -0.49162834877895983
Ni 8.064821965861153 7.122762855880985 0.19735402933686433 -0.3979702597021662 -0.0631295814706332 0.6757234488920878
Ni 7.568431222141885 3.951478689118183 8.239631214243486 0.40950757091780443 -0.2219319684552436 0.06149821651479732
Ni 3.10796230748375 8.262231872728268 12.379218905193772 0.28121595092754154 0.6252357245551813 0.32161723756272353
Ni 0.0490018902769897 4.891320722898147 10.160435736563818 -0.11342807261486916 -0.08417688905923568 0.19368505779440837
Ni 8.72907061294967 2.3457927948861403 5.74005714735843 -0.541985461075273 0.5279963458850326 0.11457221352164139
Ni 3.5933577952507787 2.625243533665751 11.261754820258776 -0.4559936302944857 -0.35779291615233216 0.24788494087557952
Ni 1.1284377108755268 3.2650232300080924 12.778290818729857 -0.7505541208497333 0.6163253094394289 -1.9923468112391751
Ni 3.0222804236001832 8.393913581513667 7.9357430684847765 0.22167588658037954 0.35832230629324097 -0.13761855381814367
Ni 5.487074332907131 7.788318316176939 3.698094818199774 0.939551286250169 0.7208321683052683 -0.258167039527878
Ni 3.0532383778591563 8.349941570209584 3.529280688062877 0.51654233841182 0.02375467921743651 -0.33090149107812683
Ni 3.320621372605938 4.322135977272118 9.073785405809732 -0.05240653862617426 0.25294435767635787 -0.30758184251557996
Ni 7.0737348293398465 6.077582665076604 11.36557887646354 0.5505963426727356 -0.38318307409066266 0.39377319090168317
Ni 0.4646586152912004 8.959610487751567 0.36300477026127226 0.49236137029024235 0.44976693265848344 -0.19659760345551303
Ni 4.5509454511372684 0.24442183606684514 1.510046093707795 0.19380461409140814 0.21823806454342415 -0.17341216647798524
Ni 5.955066673753032 5.60444418394486 0.5321775980923488 0.09263221891544046 -0.4380355031541681 -0.3999476951435112
Ni 7.929400067551017 8.634998087023861 11.351728458965669 -0.6733999429652338 1.070222976436834 0.22143883086890895
Ni 0.051965201881167336 4.816435819859485 5.836335934478591 0.04928007718205061 0.16420710293994947 -0.21096827035488827
Ni 8.01098126171469 8.80606444212999 2.602052556111402 -0.8007693082515436 -0.5347994848497951 -0.2641538532389322
P 8.542502749451856 1.5442836984921942 3.64129620995206 -0.09820765612068892 1.5098479355653094 -0.16756753477175013
P 1.797201622908365 3.28720300451503 1.560105150807078 0.1155194079262591 -0.6604464681283593 0.771436363615381
P 4.69127015210152 1.0668732900478581 8.17979809560305 0.19740287296562775 0.21601071787480214 -0.6444261814407031
P 8.490013921037226 1.5953846011554764 12.22306734441171 -1.0212943690569314 0.08163252537082714 1.3123491604517656
P 6.3846747563197574 7.84056380695984 1.4936235073174895 -0.6047643440747068 -0.8720814255329691 -0.2025885309316253
P 1.9312536204769115 3.2587415141075087 5.900258026582575 -1.4174802831651652 0.36235019650571143 0.4738054616649259
P 6.875063171789688 4.004066655086481 6.172000369939275 0.31564173670557893 -0.6531998138682751 -1.0183165173755302
P 2.2972694686182193 8.434704178595503 10.332838646143486 0.8774974543422178 1.3188756487163737 -1.0044762690583282
