# total energy = -340893.953872321 ev
CRYSTAL
PRIMVEC
9.04435215668310 0.00000000000000 0.00000000000000
0.00000000000000 9.04435215668310 0.00000000000000
0.00000000000000 0.00000000000000 13.23732359843718
PRIMCOORD
 96 1
Ni 6.287326246307418 2.0036134649809902 11.348052904620983 -0.7369121045862663 -0.36345937040949017 0.814244717030159
Ni 4.684241925182319 0.11750332130656757 5.916501468877313 -0.8495091966594079 0.9116224210503847 0.10507558688511581
Ni 2.879332881348758 1.9845570145778209 4.832722153290431 -0.43071325846114206 -2.352158557593749 -0.887025448437311
Ni 3.337438372269944 4.4920403933751265 4.963334358894271 0.29214493913521944 0.0024901134117053885 -0.4404541398979898
Ni 5.057782721623375 4.4532672548471774 2.8664229728032034 0.1745071993143769 0.07301418757419684 -0.8684111757702334
Ni 7.1444776072989615 6.199496540628644 2.706000581851073 0.840915798563442 -0.7561508982112203 -0.22238422550131376
Ni 5.37492293680474 4.391584771814612 12.069407837241197 -1.800301860151351 -1.0992016230573713 -1.9223125322289083
Ni 5.675068813918923 7.852216267455022 12.361595588721897 -0.04812333786978809 0.6090629714500607 -0.12133370061519105
Ni 1.6607692004186048 6.442780574513246 0.0960844860693649 1.3097497751557057 -0.03217067119527363 1.5643095569482994
Ni 2.69316393255956 1.7912882491932318 0.29958693613890236 0.6049571768118033 -1.1496420390961102 -0.11934058144456221
Ni 0.585966404539908 0.09065606578840509 4.767991723515641 1.2412373321066041 0.7033023869516211 0.05194939648409763
Ni 8.563120450933868 2.3072866395119913 1.4245081061344111 0.6031589472608 0.7802043396159982 -0.04214680857137903
Ni 6.957747908664012 0.5886272530015181 4.731443495665993 -0.3229482976693212 0.28945505100788216 -0.42173445200129944
Ni 0.683991808623758 7.032020130168914 2.37942258499163 -0.9481254010724253 1.9818353701848899 -0.07980575657473352
Ni 7.671528196190418 4.068421017967602 3.871268607683573 -0.20452071495733162 -0.9972347570045665 -0.6632749387160899
Ni 7.569218482397986 3.847386090866008 12.623601431972688 0.8044020199081244 -0.7464714661399272 0.5772450556085156
Ni 8.017682693713201 8.919757352831247 6.79559171536623 0.41388487404989366 -0.07382639906284705 1.0030621623196208
Ni 6.890032842613452 0.7172786430157015 0.32572511443276086 0.23828701277449932 -0.18829525423740473 -0.17663890094539902
Ni 1.7754787212840053 6.521828214059378 9.242088121826747 0.8787482960301833 -0.07470751611621972 -1.1832016202191107
Ni -0.036055310646528345 4.979223477104186 1.39983420848615 -0.16827073148636182 -1.4433640929104627 0.09792252078010233
Ni 6.489765984975735 1.7008628143897724 6.8103647604960535 -1.4762724136027092 0.8291913110376623 1.1166010494807415
Ni 3.506115543612664 4.299983571205546 0.7008622390637352 -0.28203021929872074 0.4334136881114407 -0.6503651726329573
Ni 5.800513981024743 5.494335520892566 4.843947098993029 1.1789526151347696 1.1563824431437375 0.747316587749042
Ni 5.193122410200987 2.9742443149182223 9.31476039740079 0.8759810176976914 -0.6219804508426772 -0.20691878287586302
P 0.05521486666649715 5.408477484026268 12.39364334684178 0.013526316621208963 0.7794389222048834 -0.48383507798678604
P 3.863168485718182 5.99797932590011 12.576027234172162 -0.22715516452739587 0.3090296307057 0.28858010460209654
P 2.3503558454065776 8.242543381859193 1.6453992280336278 -0.8323604527942633 0.9160470324806417 -1.4991313204787537
P 6.407326713298047 7.841245468053482 5.800581813667374 -0.36605772726428565 -1.8837089609240978 0.348518947049574
P 4.63826948218312 1.0086171298106597 12.519424059419814 0.11306246174533431 0.3921654800949311 -1.0096902091590998
P 3.9607932249928903 6.052996121250124 8.265689688395401 0.5638907457887966 0.43295320353525435 0.5729420573577874
P 4.85149008885361 1.1856241496684814 3.928638743515269 0.019133121285025114 -0.6409842456386896 -0.8174745368213664
P 0.2985576888413795 5.509322012737868 3.789528464442602 -0.12371248526001274 0.5090360027324459 -0.4870163039282451
Ni 1.5230056254109738 1.08354054468482 2.612332746729846 -0.805807127785767 0.4870258170099419 -0.8271529404513948
Ni 1.8565522957567206 6.539301902801155 5.0196200768791055 0.3451628860931475 0.5420867625398277 -1.026123929235091
Ni 6.188751850035874 5.5161595431150845 9.104353488746641 -0.9136767324762523 1.6976955607423343 -0.1580426260004504
Ni 8.366224900256602 2.292797587045984 10.263824084722266 1.0424725457964434 0.7380894127238191 -0.07386650827216311
Ni 2.331833011792106 5.227925078046926 7.130417257134382 -0.8437026172799599 0.34490783265954794 -0.5910325963109112
Ni 0.6649145562101817 9.005922897677474 9.17362418340154 0.26562555268845217 0.8489661796717444 -0.4503076356533019
Ni 1.3883804406690765 1.1302094028150311 11.366294458877345 0.9091546762361827 0.7045632559419156 -1.0964112047964278
Ni 4.04545740734888 6.9539854580860725 1.445184400043612 0.31728981383196325 -0.3853523138278396 0.4334892785443825
Ni 5.673386564381671 7.779789093829686 8.01283039867699 -0.37920120662477924 0.13586788967562405 -0.01486611847855504
Ni 5.117773910766338 2.9477805399397345 5.088282086620796 0.7593064131210665 0.2551416224379929 -0.4537416010355153
Ni 0.8052955667881385 7.535862910928176 6.968961096708554 0.3450428155755154 -0.6431190325935053 0.7156218277489224
Ni 5.186085904072051 4.484479314809844 7.248136738462135 -0.5003279334354868 -0.4125661552384701 -0.9582658319405368
Ni 8.356755463345298 7.189337594959009 9.444221256950371 -0.844878382755616 -0.41138627599775607 -1.4474755439756748
Ni 4.631350552634747 0.17227772801357996 10.232226735349455 -0.42940353851078306 -0.06832166719453396 0.5906608147937892
Ni 8.31178694345704 7.322380018039514 4.825891858395096 -0.7159835819637153 -1.491252174840993 -0.4143312175586929
Ni 7.282168827487785 6.108410868103575 7.072159870337071 -0.503547725924365 0.11156556548483365 -1.4290692735543453
Ni 2.3837023725240365 5.442936466482878 2.617270058678157 -0.056479937364599504 -1.15963051776739 0.2908516742450926
Ni 2.157050902612585 5.268941215957877 11.192144549927146 0.4029024068964609 -0.9931443889852768 0.9939262614566235
Ni 1.1286899516200941 3.3754789182574765 3.6607025184280477 -0.8489160431600992 0.34255733014950035 0.711572083159581
Ni 3.6130197883993103 2.6268236080663234 2.6340817008278536 0.03311272339356878 -0.39324097254729695 -0.0854722108318915
Ni 1.1144541410199096 3.3442306808854068 8.099495191772979 -1.6187611510289606 0.37430274088189724 -0.21961103363155082
Ni 3.6091940273549152 2.5592894290627797 6.963493785712485 0.41270422347823116 0.7883601359539132 0.589024564741947
Ni 4.115361206668338 6.757578302435751 6.085065585815649 0.11132465311862118 0.3964926467153752 0.1992682083091407
Ni 0.8093438189003638 7.346573660577946 11.253525856026428 0.16690521859740287 -0.04441297889773641 0.8875093300522651
P 0.019357627336451678 5.616615164675599 8.03677622596101 1.6951481117301321 -0.24519993784424865 -0.13744654701665363
P 8.60303317785802 1.5970517381071052 8.123997246726576 -0.3542849029990737 -0.027095056444579144 -0.33287095609967193
P 1.5341754005642319 3.2942877672042004 10.270389380093723 0.9012899287761251 -0.9374851477497597 0.9571042075322678
P 4.010048767895435 6.253943541780556 3.8234556389809833 -0.18579614196463484 0.5844042923611161 -0.5922723822552832
P 6.790807252972649 4.085442489091838 10.42279123938115 0.47612202561324446 -2.1396638232920053 0.5738416863539215
P 6.4607426582819665 7.836081142861166 10.169203879298498 -1.040358327666918 0.010226819934330774 0.43701914607451187
P 2.4672721882455773 8.60214683132764 5.889510408156773 0.029642762567097337 -0.40686756219179604 -0.3712657538277864
P 6.7925889903857595 4.016054217856377 1.6042049163813656 0.49552665539210144 -0.022706954679212507 -0.05907418045433697
Ni 5.204436894991858 2.6442430306939957 0.6760924712805553 0.5000970483716033 0.466307610625984 -0.3662279342935628
Ni 1.365579628392669 1.2029712174773466 6.896618939995316 0.7118055393266257 -0.4465463688386568 0.28187595310904356
Ni 6.796758436819486 0.7016726130343685 9.071088360800339 0.06419530373098623 0.13878429199147066 0.44913392706017485
Ni 2.762687869080283 1.7109653559656341 9.064667775066495 -0.5179991254630046 -1.403779388639305 1.165310855981619
Ni 6.466576265548243 1.8162054399197298 2.6848340840444584 0.23285992822165705 1.0442196103945371 -0.36855272577199755
Ni 4.297324531614406 6.508867657140659 10.511202496916082 0.10910064888410888 0.6717942890410108 -0.6130255556422345
Ni 8.156016062918935 7.190748513925737 0.18331455118728085 0.007687598452244825 0.12988338995741502 -0.04830434353234262
Ni 7.566414733169233 3.61135562756676 8.217558358490063 0.16540138035836674 0.27692683663388434 -0.477494480480739
Ni 3.2326776389904412 8.256670660231167 12.583148757213193 -0.5474333715637217 0.4361154033133198 -0.5336257762566682
Ni -0.06750433264078606 4.869614970964645 10.117366173799796 -0.04670048938033247 -0.8775851289600176 0.22973500943943018
Ni 8.545601540430338 2.4336091087958396 5.913641644663985 0.8770068878590443 -0.252380771863404 -0.6941878262448625
Ni 3.553480816873888 2.895820735684296 11.351098138057504 -0.20310635110830827 -0.5460750577636144 0.25696067792460264
Ni 1.061363792720619 3.3549753714781767 12.631716024901841 -0.29673050162337283 0.34791190959319435 -0.0423075025189594
Ni 3.2258129755561717 8.345232958450358 8.088071270318665 -0.409602701734772 0.059071095130543434 -0.13307978540752563
Ni 5.633265817353451 7.931037798192384 3.35623072758447 -1.0322236143749255 0.414871406332879 1.7951902499563983
Ni 3.196545451348931 8.814869998618834 3.5482513723446463 0.6483964789423607 -1.0186168222247685 1.350589949100519
Ni 3.2390810404548187 4.040238816042459 9.070505904508945 -0.10325884539135119 1.8786541721090098 0.3696361886441634
Ni 7.116774756048411 6.083620298309988 11.294229963781277 0.3926717303073882 0.05047126927667438 1.205606470276872
Ni 0.808382404245472 -0.07589839605757846 0.030521975878299062 0.14017654435330698 -0.39295686564797483 1.6327042434726138
Ni 4.687434581562156 0.3572980440542248 1.3376579038152296 -0.5151212896945773 -0.6520764988971093 1.3180513530428655
Ni 5.8970172206079505 5.766959433803215 0.41900856457907804 1.2055871870031625 0.768888914603179 1.9154836822325336
Ni 8.112241397540984 8.881128923940912 11.368598055421097 -1.0233306827606699 0.10137988320108346 -0.39682329058191657
Ni 0.08203860686854751 4.779044826523573 5.8390501575211 -0.12486588213816559 0.5911143573914401 0.7226586799910457
Ni 8.206754879607013 8.950679993518689 2.5730051894027928 -0.20735072820695902 -0.7943289519428384 -0.6564394038514952
P 8.579644482678809 1.7207875226186204 3.7027442858955815 -0.043906471574963093 0.35957880440816137 -0.35199379297205186
P 1.751891050353077 3.235047259306355 1.624232730227013 -0.18623477216395024 0.3658610378724473 -0.8780607830448556
P 4.6701870016291505 1.1028140595444091 8.174074016822575 1.2646264004545058 -0.5721216183390211 -0.4008092718128581
P 8.569442453227088 1.6305972409762823 12.457777753796652 -0.3921749931766278 0.524276216720968 0.5507999740431095
P 6.5157504092796295 7.858275983530068 1.4524524415927278 -0.4773687535361521 0.09571779981929968 -1.2454089469857907
P 1.768351771631562 3.3518279368600927 5.936079778411124 -0.6288620084538589 -0.0422877050246175 0.8853074373049399
P 6.885727730894464 3.8654386181582367 5.945503993560675 0.018439437652110178 0.4783578569222987 0.8319711877756446
P 2.4710979492899723 8.414594096628766 10.236356386632837 0.4010838656304834 0.5324723793785153 0.6188653022524632
