# total energy = -381164.2832901148 ev
CRYSTAL
PRIMVEC
9.34816001917537 0.00000000000000 0.00000000000000

0.00000000000000 9.34816001917537 0.00000000000000

0.00000000000000 0.00000000000000 13.68197711456758

PRIMCOORD
 96 1
Ni 9.347365271847005 8.072136043803614 10.458120170769966 -4.674291772470002 -0.39134169864205504 0.5487603179052613
Ni 1.261085462166989 4.371218249397402 7.045041566780382 2.555082360377606 -1.6644545393010173 -0.7042513811284516
Ni 0.5527707150830032 4.455099287869956 3.0012370077739408 0.8245836370623219 0.10627654917175246 -1.3703694457202915
Ni 3.2990404017911352 2.4762808075545544 12.072237955439142 -0.9767944868723435 -0.11612927359611613 -2.911549615739979
Ni 9.301185362111754 3.6074735883913167 5.1606086521783245 -0.3623561100429824 -3.4841049791823093 0.3924040784682984
Ni 8.078801281787669 2.765335258753688 2.206779902345953 1.1748825588304541 0.23123987611973076 0.3650357137576745
Ni 6.280664035351406 4.914365033898939 7.602677999073344 -0.504441184272912 0.5437890899429151 0.017285783663641197
Ni 3.395578848721488 8.197046155925563 5.628833674622341 2.1419130243374984 0.14294896489212153 -1.6855668957996002
Ni -0.2740067182637415 1.548999437862539 6.727729497940009 0.9286305255726072 -0.7034767077459562 -0.9342964656091328
Ni 3.393297897714322 2.9017436075101237 6.838977274418626 -0.055316513184117636 0.2143292164073212 -0.248345682562082
Ni 5.0311515950978265 0.06133514650909584 8.908061586394673 -1.2484356496272564 1.121627041940423 -0.8821272398047453
Ni 7.915890899812723 7.011802314746852 8.477448885169235 -0.871805289053447 -0.814190723863772 -0.4797341684445351
Ni 3.205857944252474 7.721608093329375 7.863743124819377 0.4173494355597264 0.7642997525705998 -0.1288464640524684
Ni 3.7910247073491434 3.2810451940501717 0.22054646162528863 1.7545930452603267 1.204968836692873 1.9048688828311646
Ni 7.8397594858686155 7.572065579962002 13.451791712764809 -2.336856637129356 0.2913471258242724 -1.3611913787654495
Ni 5.805422284112392 8.570280786712944 5.0571320009958445 -1.1541707802043994 0.5695998803584319 1.2403664994658765
Ni 5.838804562991863 1.2729389288763613 11.988831803487754 -0.6663067835638783 0.457184051058161 1.2229603881742872
Ni 0.8070191626551602 7.61923639464299 13.263349636565387 0.49826822269298054 -0.906308207926323 0.8835909688344654
Ni 1.172558388241314 0.29625346911150513 1.298849223575389 0.26731116792099124 -0.7130759213986171 -2.2613176262507766
Ni 6.862446764576788 5.190977084317177 13.605262322907638 -1.3284884892157893 1.2431327493571043 0.7635145376651431
Ni 6.133206161634025 3.177598456979262 1.1028136371172723 -0.3411403951973157 0.3103388364354268 -0.5509573255565802
Ni 7.510535991727705 0.5013390091353499 1.2764285969541285 -0.005690622626874071 0.3222469007269224 -0.47354449469405535
Ni 7.1108741130007385 9.181809360630142 9.78708775486131 0.80004631404259 -0.6713320046926117 0.5442179499502175
Ni 4.729467779920489 5.686448253504993 2.438785338334293 0.43143728111136015 -0.39870071011028757 -0.4203136603943729
P 2.0138740798107846 0.16749098030900905 7.0897407279929485 0.12273829427220152 0.9274586167516929 0.5815781357662306
Ni 3.246896366061736 0.5893584779803316 13.306133359821526 -0.14100675356408618 -0.3825066168489284 0.48897856986093846
P 2.72836328648589 6.012390543533137 5.674819142632392 0.04596515387620471 -0.7386064615695538 1.7299220248762077
Ni 4.973370618969569 4.153630480369524 5.5709311724158335 0.0007944708768373414 -0.24291345580291718 0.2813110817445091
P 1.3985314566684879 6.954797235887427 1.6728401204958834 -1.7907437841492708 0.1607505118499167 1.042325735805934
P 6.242504846780698 6.953310878468822 1.3109279809375183 0.2697678569915999 -0.10098239065234867 -0.20467241004384754
P 5.187910887881315 1.2712656082604483 0.9617293387961457 1.1448119646973187 0.06861297318270765 -0.41022079493474506
Ni 3.2661722717042636 1.3718237639329385 1.7765906727624199 -0.31884661679612186 0.9472103454573235 0.03164745170195194
Ni 0.03967078602094892 8.519707241840937 7.775344120683858 0.8492641705281374 1.4730798748073406 0.19100931073445815
Ni 4.154051147563469 5.693702425560572 0.056879813517229254 1.3059003195026282 0.11214277814454233 -0.2276958675222143
Ni 2.177878196489986 3.762522167919431 9.75386719914751 1.2615765578845888 -0.5995023243448192 1.8208529448298254
Ni 5.243504394601061 8.726058522710561 13.570496516368083 0.7767490340775461 0.4067924859794865 1.2188620497351976
Ni 5.707659228239668 0.8149744467006459 3.205222269381624 1.4005814505272975 1.513482189883787 -0.7519689989193887
Ni 4.307136613519842 0.7455568811718944 6.556526363348436 0.1797663908307872 0.4204872098577597 -0.01211041011028882
Ni 0.9081400775515498 2.372899507602703 11.630227977705767 -0.6912400564704483 -0.9782085936110507 -0.13985335668593335
Ni 7.404686777571379 4.646147631039862 10.082987863529901 -0.6421350714136812 0.4525185272616916 -0.26589243319659367
Ni 3.904118745401183 4.979110389126947 11.35096478914969 -0.15190900229888676 0.1438552787564748 -0.4184701794277309
Ni 9.275767715437635 1.028652815272799 9.37862551843702 -0.4863167067580593 -0.2981037278218156 0.41890135342787854
Ni 5.473674786807815 2.388660505135827 8.123823889331579 0.8956628123973348 0.44558657602854873 -2.115512422856782
Ni 1.40737481590119 8.997239292246983 3.2671192402986327 -0.018234006509523434 -1.4585454286365913 2.7154220099423494
Ni 8.830066149373398 0.9966353677336821 3.968375191868228 0.11253667114885134 0.9069908358156444 -1.150087611273961
Ni 1.32635431434746 2.2363602846081507 2.803874917430919 -0.7980621937330256 -0.3132948337399572 1.1839438977017738
Ni -0.08247694486076493 5.696198384244643 4.834964568449889 2.6959096509410343 2.3959714410136415 -0.031411167321429775
Ni 3.5764190013183392 0.39770998294706383 3.746179714842676 -0.8711817965368353 -2.1826385270813184 1.3858045493284392
Ni 4.93281830147331 7.217181386990473 9.469912169154973 0.7155112703129871 -0.8465938227848259 0.8379577443763827
Ni 1.1740727901395147 6.42971109624591 7.657296492719124 0.36113329337947486 1.2154843915122164 1.0471933483108804
Ni 2.4831610532155155 6.571429199805913 3.668767602997004 -0.05627836287675469 0.033705105561929044 -1.4555866031185833
Ni 5.622160958110394 7.048409708779898 12.227049091706675 1.153610279715239 -1.81530784664188 -2.0221469253197433
Ni 1.855263851373939 1.3711693927423583 5.193514174904657 -0.18297152803164615 0.4096798348296105 0.45499424249569387
Ni 8.107481436254824 9.130104688414418 5.669483212981202 -0.9133723138619559 -2.324130190701623 1.1555185524815454
Ni 7.281487378704803 6.4529412735115175 5.125980263588791 -1.8697316728083992 0.5226679916935837 0.4218642927109445
Ni 6.696619756723827 1.7740937792623621 5.467633071086785 -0.0016329076177326715 0.1206947814796115 0.8767279231660449
P 5.160184245720433 4.272473636738806 9.436883250718417 -0.2261290372557267 1.3821975487034712 0.18736425778270313
Ni 4.874009027759855 8.074407646650913 2.6646200539954585 -0.049761130583527206 -0.7189033267136715 0.004168786665708949
P 9.497076052091955 3.220132584366994 9.593747242892398 -0.32497638384294353 -0.07112776918476137 1.7435709831182102
Ni 8.953648822794456 4.825641648616091 0.617514200679037 1.029849200605478 0.38161187294880083 1.231891629225646
P 7.090569909773013 7.039884186982621 10.379735850298287 -0.24730078623733542 -0.534461384784086 2.2892459772299287
P 7.1782369529910675 4.154761607713241 5.26416756716762 -0.012503274673333306 0.1896132017178799 -0.06469872572996599
P 3.9238246663975214 2.307294121667076 4.271773459564885 0.8770236000295928 1.8197710246195564 0.8001198475930026
Ni 7.960659237408293 0.40495948092270917 12.245765977389249 1.4778883519395773 0.09823413848325016 0.3247470414409569
Ni 8.705595400765123 5.869606749748473 12.048554392420062 -0.9516596394779288 0.43117451436827675 -0.6532175544800879
Ni 8.18178995902517 3.0921001868499878 8.031552877379797 -1.7603494881281296 0.2761534488029696 0.10273511167739727
Ni 1.3317762470694128 4.558069268787729 12.219934207233091 0.8688379788950068 0.8412073616619318 -0.3272965473356879
Ni 2.609136855562125 4.019802223735948 4.610511510816836 -1.1943069861036528 0.384309474385622 2.2650992047803955
Ni 4.774610043910679 6.449220705885074 4.708297002273237 0.1103599752125067 -0.3666884188697491 0.3056442591732349
Ni 7.294182179802064 2.1144883244424673 10.416841501252161 0.13155100746782508 1.1048601068947292 -0.18062076841128247
Ni 4.0890907846585565 9.348440310231531 11.212366166536782 0.13133169236816736 0.20798681912906114 -1.4481805404624994
Ni 6.004762445082941 3.1952851754446656 3.615544789619133 -0.03355341047541318 0.6139223564248911 -0.869294092595819
Ni 8.229876893372973 3.4210619325146654 12.587705773395111 0.19106767477621933 -0.8623585418182503 -0.19281242538146792
Ni 4.642829034287633 2.3819952671517717 10.152956970490713 -0.7254794372692925 -0.7750078830167233 1.389176808234782
Ni 1.5188422741366439 3.144795764011448 0.4975988103731891 -1.536344182083625 -2.813073793559568 -0.0002493970066447318
Ni 8.70027629780169 7.670997155817907 1.7349296635061195 1.8958826201721544 -0.4716236235222588 1.1062883547008238
Ni 2.9708919460347505 3.969209982544211 2.514268924799725 0.9809810141498655 -0.2891058951985795 -1.9816862462015357
Ni 2.2968615752572497 1.2225336508819327 9.984504999347537 1.3138211170116019 -0.2163871273776144 0.5181179104290561
Ni 3.069486988135499 7.9390369436395405 1.1320088751930142 0.9239876274839571 0.5243950016870194 -0.43760947136034306
Ni 1.9623002818331763 8.15392309446631 9.798512141032859 3.47395709211503 -0.1060772886767528 -1.1323256593048499
Ni 2.0232596323156815 5.229510199282504 0.7411585719552071 0.6568052718313463 1.2915131975430207 -0.09110035565194632
Ni 8.62195741444907 5.218769163597117 7.158765670807352 -1.8034478619795007 0.13258047717360394 -0.6354016093445896
Ni 1.5140934089250027 -0.07688487562926137 11.87677728081275 -0.18046315978749564 1.3672018466255873 0.02958799806976195
Ni 0.3721885716984382 5.382296524123183 9.853116612438841 0.13634920018741678 0.7954052157261526 -0.7302346925660909
Ni 5.960592389718758 3.8552372174648206 12.01627800085267 -0.9698152273410329 -0.7824568830956008 -0.7156277412861932
Ni 7.670483007025308 5.384745742007927 3.0085706391883753 -0.7286946017724806 -0.4937538797623948 -0.9982909661832228
Ni 1.5911596388556535 2.3285705335208076 8.143813994387827 -0.40812303186545196 -1.5801475524218207 -1.9565624545507145
Ni 3.3457718529584475 7.538608515803609 12.301643668168904 -1.4954541287374825 -1.0979479531559284 0.39830810265755917
P 9.081307293916844 7.812864829935757 4.1812533579558995 -0.10168713002885714 0.2696621846516711 -0.27789897073916653
Ni 1.3040028641092036 7.812846133616026 5.830368783529294 -2.758441965147301 -0.0006687439322504611 -1.435393158889844
P 1.402326809573855 6.690188222736407 11.330687695585572 1.020741324766939 -0.7195144779351093 0.7798839801621021
Ni 7.150117688115837 8.272158620444339 3.2183293243289515 0.31336425352531194 -0.32289327606166973 0.31284926156210635
P 9.441080574497997 1.439111818644344 13.76913089126879 -2.3554644820385304 1.4487459260476663 -2.2015906427037892
P 6.331480632379914 7.289293092192442 6.819247983022624 -0.5511630138094831 -0.08684723680254722 0.89402142013917
P 7.10575132139448 0.9159962711024618 7.86085641305293 0.5225839166202096 0.44663352923582433 -0.4359403111880363
Ni 3.1722700058559634 5.566576799550514 8.892751170167063 0.7321159687492037 0.24581545994106052 -0.06656714639727246
