# total energy = -340860.4431811201 ev
CRYSTAL
PRIMVEC
9.37850840169231 0.00000000000000 0.00000000000000

0.00000000000000 9.37850840169231 0.00000000000000

0.00000000000000 0.00000000000000 13.72639504003613

PRIMCOORD
 96 1
Ni 3.118926058295147 3.905614081310214 13.09775348297581 0.7731942268467522 -0.28560662379606944 1.427481103131619
Ni 7.518440515800998 7.850383434264975 2.004300677659071 1.0181938757547369 0.49170779586664354 -1.730792343296303
Ni 6.492956917549176 2.1492820977371285 10.799446890284944 -0.7858029167496983 0.8449532018576095 -0.4653269918802696
Ni 6.232234390191472 8.618239412857944 5.87449869853544 0.09914765143645506 0.047829203668136984 1.5816200232022888
Ni 3.1139273134360947 8.095068712637726 0.6031862562961353 -1.7068108927800412 -1.221121792303652 1.3847341990823956
Ni 6.297855811915279 6.384363171352239 7.958851508452322 0.6330500783932775 0.1776143774847909 0.7275926269575534
Ni 7.350912224211406 2.9225869895817116 13.091754989144947 -0.6590009939310844 -0.8190907322685507 -0.6132456420728406
Ni 2.332838259803494 2.017092024963502 11.89488196748651 1.221366047103974 -0.10585591669456608 0.34080229513160665
Ni 0.8353887402835226 0.9875381541622813 8.186600138905819 -2.357802643253404 -3.0271317585833737 -1.9963124807551422
Ni 2.0732036393944777 8.976648481401181 3.302501915228687 -0.3834098453894881 -0.8447295158825775 -0.3670144347506002
Ni 5.597581363255389 4.168240445828119 0.5453424314046207 0.16813677701165883 0.6365130972412135 0.297290745002217
Ni 7.967239646167024 8.140582612827183 11.742834779346897 0.8386691686211105 -1.1232602066684718 0.7222251919980529
Ni 1.2064888060936818 2.1089638910784676 9.873024722517597 4.296473305125362 -0.989961877492237 0.7582808000700296
Ni 4.222701442819708 3.9596061528928863 6.892763659042399 -0.5731539162582774 3.3848845655263897 3.087026120946161
Ni 4.40340653839986 6.548196330719566 13.110697699963545 1.2174785391241096 -1.2320975745888652 0.318501060531245
Ni 4.811587349845518 1.344240334217061 8.604596497010922 2.155822692440055 -0.7734978741301002 1.4739108553490678
Ni 2.8299179502715868 1.7636003274112946 7.7037607752557085 0.18791678785206345 1.6119983783838305 -1.26395868496352
Ni 8.312378125637919 4.418599721648762 0.8028612603686046 -0.4700169411567711 -0.552490731481971 1.8309890048225628
Ni 9.224831943324451 6.723283699900896 0.2865537524332902 -0.47694169330106245 1.8436987390797472 -1.3726343304950683
Ni 6.291159557075948 3.45083146272641 5.112176039767687 -1.1034989648811446 -0.40733061787114366 -0.4499291692679606
Ni 7.405682711972881 0.4743574408536236 7.980580574050705 -0.23107018331108595 -2.623079811463502 0.7191591514782195
Ni 6.111176606625529 1.9139002994772856 1.4178128551744607 -0.8915508471114904 -0.05136112808079541 -2.6966534710855945
Ni 6.087955420375972 9.315897257736081 11.42290010275446 -1.5676681890078874 0.2701116134842639 -0.6831202555767912
Ni 4.145628862610154 0.3577760192411992 13.362507830999379 1.0580220634952684 1.6818254264792971 -1.5417098172709125
P 6.061076615936865 1.0917615155481142 3.2359698403607635 0.28103365971340627 -0.9792966844689069 2.216808745205124
P 0.5354143426470356 9.345167581760665 10.291680389747638 0.4292960663986413 -1.3069884103604845 0.6189066970133599
P 7.823926662693893 5.938068102669828 11.11761090453331 0.5939628825838287 0.4982628233763418 0.921074053381588
P 6.400015901501879 8.572331615324996 9.36616418587032 -0.7753038169905873 -0.6842754522271569 0.0110094637366262
P 6.693835184220925 6.53477568551637 5.874663760279378 0.19944021511063073 -0.8206619334104125 -1.0645536939661988
P 2.3941737032898027 5.924300452664032 12.377406213261827 0.41122403938827884 0.2783879945604431 0.9486313941745663
P 9.178567762480727 8.890750724995815 0.3164318037878287 -1.5452371136978809 0.310399257359717 -1.1295483536700288
P 0.7868268249361058 8.386965401180213 7.502271029850732 -0.6803522059133509 -2.628852966501853 -0.15058745527398582
Ni 8.587346606918512 7.526656088965219 9.478912611190259 -1.0224266828891617 2.6911914195297584 -1.1390879177293478
Ni 3.2420846276930377 7.857501721972331 11.718745143240026 -0.3583917260785957 0.9113005189345919 -1.4774044703246232
Ni 3.8739053451592644 7.36373264489119 2.8424345072863924 -0.050222129380345766 0.6117767708367979 0.7957078345682361
Ni 6.958674876668917 2.6683637683915946 8.317563502809719 -3.2684542157500873 1.7214762081016997 1.4039701644938725
Ni 6.87328355970518 9.178295785743554 13.56998200247295 1.1094873212540957 0.5668819672066366 0.6477686155503748
Ni 4.339688953836254 7.307114591018584 8.960659062807938 -0.607374013783412 -0.08878584858615676 0.44707035966292685
Ni 4.241533487241805 0.6889958547246259 5.359072770368888 0.6404360864447035 0.7247821540919517 -1.4502988723570829
Ni 8.8712340494767 6.063852654357651 2.4212672755661937 1.0036566013705102 -1.219264427379939 0.9456360589916682
Ni 3.5557582122256184 3.01810709537805 9.937442881642124 1.654398697726912 -1.718595544119795 -0.861708052718445
Ni -0.11824985821735018 5.493723763688511 9.66518009997098 1.0628997033025436 -3.561088692927215 -0.686744739703256
Ni 0.44982701486237153 2.5210930544672054 13.339214430236849 0.02669910655774111 -0.06585366527001561 0.33914521914415785
Ni 1.4087926060085383 5.133570292624103 0.6368597899104458 0.6765503156687575 -1.2065222972229221 0.197167359916054
Ni 2.8889837947787385 0.017234884479325575 9.514450592230421 -0.18127794237930714 0.4022310918610492 0.8309291196643753
Ni 3.862885598049721 8.979499547887395 7.282099296154511 -0.16397698920701437 -1.4154509114399625 0.29307747825181785
Ni 3.589126944324133 2.7880898037962147 1.6370101618709516 0.6200418390590677 0.57427877389134 -1.273249880457459
Ni 9.188255761428946 6.222874639029494 7.126415122543339 0.13821813507535552 0.827201534301143 -0.0564547405536189
Ni 1.989078421034816 6.287361261263723 3.838847543737832 0.002375442210712038 -0.5327726842277534 1.6146299024694064
Ni 6.94581694195642 5.988833967439152 13.1487331777316 0.43918915714263723 0.07968028674046279 -0.7681515222165223
Ni 6.580505291393929 5.700754331725248 3.382280195047691 0.7714031963846005 1.2925994886286643 -0.6381151516210107
Ni 1.7911074918983503 8.878727477511191 5.733460003295554 1.0004856598416962 -0.5736863917229797 -0.3909832868613718
Ni 4.761881256500345 5.736674018048269 4.610544959280648 -1.4001654460358015 0.5379208040875961 1.517069393014413
Ni 5.933913423546826 6.876641065633025 10.757568099865406 -0.5050965584687237 0.040668938474271894 0.2260624456838494
Ni 5.906434394584305 8.325958205480145 3.6985769483177515 -1.375308792003438 0.6071097043784318 0.2601316194534165
Ni 5.44754398941839 8.428108916558566 1.5068702309851085 -0.6426462067221449 -0.5705920690683722 -2.3246462111060935
P 5.703774211358672 6.2052336651460465 1.1466426697060927 -0.2715547736886936 1.675666605966753 1.8216422735003401
P 5.253662089847679 2.302817655124645 6.7043550568445625 0.9824259741265081 -2.8259899874006043 -0.45193617239566036
P 2.1090858116847864 1.4828265495683122 0.6843609959828929 0.19846550990218723 -0.3803936842709836 -1.0880610330595197
P 9.258632086799171 3.5856944103308623 2.588139071583302 -0.4575825720481604 -0.0033573465080071214 0.08378582426840409
P 9.350269490209678 3.192491076446004 10.775562643507177 -3.5540323003010665 3.0391220981760303 3.00760140185993
P 4.6153702017384015 4.00700513322619 3.1178540948103635 1.3274353653609268 0.3890994395750977 1.115370262397434
P 4.739682327642226 5.000779995327064 8.962758910789068 -1.3976879310295864 0.5479751029998047 0.1784597562042217
P 4.194115749892144 1.070988119933103 11.027799496665123 -0.08985208506714203 -0.16738781466077624 -0.564379512499757
Ni 4.66414782277392 4.514157341477814 11.291675078472384 0.2181413910645598 0.6937101152774956 0.38999855435059927
Ni 8.259342661889434 1.847406676492893 4.572069629479031 -0.49456737680262575 1.3541617256121776 -1.3695878303592608
Ni 9.185611022122655 3.081449539614522 8.345318259912682 1.2014523388991825 2.7811648606661135 0.28149260162769585
Ni 8.525551616531464 1.0592087136611146 11.61850108287426 0.38333065541212047 0.8375947046100091 0.3838484755888034
Ni 4.020135044675858 0.6287070527510195 2.155455969670926 -1.0191431270418834 -0.2634467998695786 1.3212791159515436
Ni 0.842696473856081 3.8911618002074 4.877962803626864 -1.4883249738918691 1.0774518900851058 1.4156167475938652
Ni 1.5873125091831384 -0.014953093439536755 12.66953079955305 -1.2236995803331572 -0.6353177913815317 0.5782673262254427
Ni 8.259464582495754 1.0728638215687698 1.6060020002809237 -0.36723195007804493 -0.45224367633375023 -0.515304609349977
Ni 6.565002617375142 4.570428390547821 9.918308849256686 1.5249649937124061 -0.6088724527058095 -0.18672045355111713
Ni 0.988879280831783 1.6911513517336596 5.929844088848246 0.5845505881309933 1.600133251515128 -0.32377542155630695
Ni 1.7011019489108725 7.313960901988768 9.261981152069653 -0.11694611307045664 0.05518410137131142 0.06707262527878127
Ni 2.0908258562615685 4.304416384577538 11.064984343741402 -2.1042417350389697 0.3727698491771387 -0.06643704857731139
Ni 8.67334752691384 9.415271930393715 5.847087194831803 0.25905021346377965 -1.6596854000471482 0.6166598099607121
Ni 0.7156983432099803 6.934956629485908 11.49998675072628 0.4059607341068105 0.3595173550426067 0.15308245378169766
Ni 9.19127564106237 4.726083490783642 12.560845143975966 0.13138491420360598 0.1565038207584208 -2.940609766330729
Ni 0.8895824497920294 1.631869801538406 2.550075458290713 1.8854197729676176 1.8424478973917817 0.3681711740628627
Ni 3.418409959953907 3.550037322236834 4.943657377714462 -0.5687177348637947 -1.0453658081838384 -1.538895744860885
Ni 2.230378057955188 6.4740123310289395 7.058112385331345 0.6304134121013788 0.6142810253158905 -0.6535669673997067
Ni 7.556601665578642 4.602212154764198 6.720457017535946 -0.05378799235473317 -0.14864627238721495 0.19527040000365725
Ni 7.036554008581808 3.610641242085233 2.766898126716449 0.008628365098959333 -1.1270975781366912 -0.06885311421797174
Ni 3.5660464356972517 5.292639169836837 1.7727368700786283 0.4291662256889964 0.5698693319697347 -0.915432024604462
Ni 2.264093794856301 4.5731575364277175 8.757837569241639 -0.12899944469056493 0.6971512797485606 -1.304861850935785
Ni 8.018286866181699 7.675558663312639 4.202143752892798 0.6182855184895932 0.02210145988472968 1.663658268651967
Ni 2.036805649154361 3.8544355621810418 3.043498468420073 0.25920216566061166 -0.11208312855120052 -1.6169708918977572
P 9.273581428835435 5.9997224154342 4.492567077800469 0.9517426861100382 -0.8673071440727773 2.066428006625306
P 1.6397289913918507 6.908377937308508 1.8863912592885945 0.40441755798940676 0.7007719072202835 -0.740432201924383
P 4.943346011242943 2.4221310361694184 13.295935428546287 0.2634673686948688 -0.0175223251544795 -0.6839748902676027
P 2.729708590386081 1.5608557376120562 4.055421681696842 -0.4847712166478103 0.3708276378491033 -0.3986932539111198
P 3.5997903081228997 7.576962406833807 5.472672764231421 0.08979526368727761 -0.2943622585015124 -0.36207431713650545
P 1.9318695211469747 3.659972195103273 6.8275914678603336 -0.15705377972461984 0.0671243044523231 -0.12733388406268395
P 9.249075386965448 9.405424496806463 3.311795078982599 -1.4298629731002341 -1.8224526852167775 1.9125557099524606
P 8.185346232362376 2.018798913451959 6.863457696686739 1.705049430004244 0.36892090774469366 -4.014536931092028
