# total energy = -340863.56220626633 ev
CRYSTAL
PRIMVEC
9.32126325904495 0.00000000000000 0.00000000000000
0.00000000000000 9.32126325904495 0.00000000000000
0.00000000000000 0.00000000000000 13.64261098733946
PRIMCOORD
 96 1
Ni 4.012813204401739 9.031707649971088 12.01360124268861 0.2843802075881361 -0.15754743153158673 0.23839551332790554
Ni 1.8835570115439073 4.759511649620239 9.25532475834853 1.2674011349861656 1.3185149229428452 -0.9257694019747282
Ni 2.896731734140247 7.436289531889602 0.27889313232029767 -0.7874255399547858 1.8881453994288964 -0.09405095363983801
Ni 3.088954827469119 6.826306056599069 3.6505721313570314 2.4613124283132963 -1.8302469844502156 -1.2032276856320503
Ni 9.294129177780597 7.568399797710089 11.340965827746215 0.005513730729377601 -1.1517336315178164 0.7691357405066624
Ni 5.672864962728708 4.096396973089547 11.241606752921767 0.554078387684065 0.11187075543007831 0.24577586495237672
Ni 1.9450773498219869 6.401377623101674 7.282494278952429 0.8992212191725546 -0.6013285789202805 0.5833447407483502
Ni 1.5139502761799066 2.7695990229622582 10.266992232657056 0.24481504370100418 -0.43775525290958806 0.8851421153716692
Ni 5.0129101944822985 1.6716008036491727 10.954170682717853 0.6378582984151981 0.7477156229596735 -1.1047865733443165
Ni 2.730309897834667 3.096383874379366 1.2638626440688132 0.29477569188984715 -1.1785461237249701 -1.7623904298175581
Ni 4.5365283871523285 4.352722394651503 2.2648507469280683 -0.7265600719279809 -0.5416982688521573 0.8094043582187221
Ni 7.042904253654786 0.2820166876774165 8.285689656978994 -0.5747174040906554 0.5603701342300479 -1.1684244619099362
Ni 8.00592125802774 6.728581931370678 9.728204567028337 -0.7335750697932334 -0.08087559260014458 -1.8358589313203542
Ni 3.7248327724166987 2.251355421813068 6.627185228372352 -1.4472559717657012 -0.2894352535135402 -1.1159392475270264
Ni 8.005287412118209 2.0354469982471355 4.98027645140479 1.1892059174316618 -2.5000442976658555 -0.8155328397139632
Ni 9.226428841884584 7.263613127859084 6.990146835075983 -2.0598552385037943 0.14062057386926105 -0.37902302917570213
Ni 4.585996331885929 3.6834183992395 4.772198821200587 4.299891329667975 -0.25129679477060596 -0.10325267474376411
Ni 7.793937086342879 -0.044472679690688605 10.393214256403262 -0.4519379721678733 0.6003775278609209 0.6360204738755111
Ni 0.39756306847970024 7.367787567343298 1.4940568358839859 2.8471044007817157 -0.18332299783379397 0.3816087876250073
Ni 5.150044621262163 8.60232365258022 0.49589494008017226 0.22722509853338288 1.6788128649052185 0.1600696837328082
Ni 4.619142744449089 6.614331206177583 1.4355435371708318 0.3145063375495551 -1.2424236391052215 1.9258632256946446
Ni 1.7169021436539404 1.8286454489990338 2.8336929620583047 0.1657983586864693 -0.7571983656391282 0.9622127324034268
Ni 5.91462124963481 5.907919261267849 3.576110151008454 -1.756873613764387 -0.4773450993870682 -0.7324499550498547
Ni 6.663482227956419 7.367675712182793 5.125583761912263 -0.2662081646647996 1.2688368389914277 1.5471957800861482
P 7.57868115121323 5.3084874561183435 11.255931670477183 -1.5096934122653163 -0.1958789801219336 0.2816124150350118
P 8.660572227413509 1.821057940611404 2.7413733053350082 0.6028447584544908 -1.2573216392629765 0.9842997941104531
P 7.794515004672158 6.847222971613617 1.5927475761244134 -2.975312459919237 -0.27927296826855774 0.03161402736085523
P 0.9647600806241665 8.280050292636837 13.118011559077678 0.9146501521331151 0.6705246782999679 0.3235905592390105
P 5.581227622484497 2.472726105717024 8.511229741990796 1.7164792691077408 -0.8730808133317608 -0.5894781073395977
P 4.517112195541231 6.058905085423656 5.268148756734675 -0.46317703541680233 -0.0012333581864688438 0.22503169042648988
P 2.0367799389098273 0.45826313558073856 7.613600468070402 0.7842201456436106 -0.3272245564471719 -0.22073897658840694
P 1.9901549795057432 4.109567918239081 6.934184766148694 1.2131310607886914 0.9309563454923064 0.5232997117403116
Ni 0.06901090552660437 1.8837247942846658 12.396440443540424 0.9608600750302742 1.0305845361096058 1.8917899381600196
Ni 8.166293594402642 6.164654818418325 3.817229795626011 1.3338350982396836 -1.0760940905056307 -0.36420499032626313
Ni 6.798603261847183 0.8998812911519064 1.7728987012557182 0.22643448431128743 0.29286870467512144 -0.9000581132515532
Ni 0.8578097689067381 0.24623981458970065 11.040937662848384 0.2777511323073926 0.2642232730242869 -0.4749138642377563
Ni 0.29716374066254964 3.700532238796857 3.591771737731913 -0.4431933932060238 -0.37408908220919446 -0.9592780752551351
Ni 6.556996115155089 8.12309885992073 12.09537575415524 0.6622377557008272 1.4256381363856092 -1.8455566182240926
Ni 7.763698907952866 3.3151352832748158 7.14486768946634 -0.2063156020742253 -0.02050686170410017 0.013253522575796529
Ni 4.675405890183404 2.119580721474097 13.241068081781576 0.4539956260278504 -0.7572024794041863 1.2763848265420148
Ni 2.0746149469508457 0.6891685397914592 5.349076897486813 -1.250530584483072 0.028534617104583118 0.5344634416666151
Ni 3.555334919197214 7.838921503392882 8.826783403166804 -1.0649954094893077 -0.6070829649055545 0.9032357396485864
Ni 5.450972288075726 8.555167381163733 3.10700918250106 -0.26928397537664595 -0.9427014018433766 0.048754800806199906
Ni 4.331572448052569 6.0206319780039905 7.804760937374471 -2.2908284912257 -1.6058254168038988 -1.8354817504865937
Ni 7.4973438069989085 3.880171626568849 12.953099767438923 -1.439196334686018 0.48322752630977417 -0.7171920004495197
Ni 6.15936034082106 1.1966171858255221 4.110327601204182 -1.269631052757949 -0.5824366271117839 -0.5488161108438613
Ni 7.643314791458716 2.4957962325713035 11.12685920439076 -1.7919151787495526 -0.9174775942795811 -0.31239751873666843
Ni 7.989981897655692 8.501243872536659 3.126668659086257 0.34608719767962975 0.5408006967385525 0.0060698603431637395
Ni 6.0576746786580955 2.003577598766415 6.252503997226747 -0.8921861667026441 -0.682955962084785 1.596415950564541
Ni 4.431822635655712 0.48227377790960296 8.117585332634143 1.262207763710684 0.5447116017571845 -1.0548050992198672
Ni 3.1955714379577063 7.9482785653138555 5.694234891143302 0.5316750802882004 -0.35038685349624815 1.3282398635400932
Ni 1.3992334878180392 8.115893523331495 3.7826320623552916 -2.2724929261413056 1.6074249000805347 0.09454126301269525
Ni 0.2772264904287642 8.859124458574323 8.764436268827321 0.40400592437328486 -0.16499103229382553 0.39074597403958516
Ni 4.459833032098989 1.5971798368594476 2.2986160913793583 -0.8703888683218945 -0.3166668355359836 0.42259320045716897
Ni 3.0019781189126404 0.4943737098972961 9.973185078936014 -0.7357229693741717 0.7015033860696692 -0.7589400309205833
Ni 1.3500358597223265 6.051895495365305 12.885719150876689 0.8492502865710663 -1.1992165075901282 0.3174415089184791
P 3.9555340409594963 5.77289144001084 13.098994317539052 -0.44756426858020987 -0.9989581674535765 -0.5650390004606268
P 0.9916146404088858 6.7284048273665436 9.39052315872531 0.05724844009950785 0.908621429440532 0.1591543710073904
P 5.2197117437304 8.771635080532194 6.111534802694216 0.6864228375874629 0.983663446078035 0.35658012679115364
P 6.505896949330781 0.7396058959161089 12.838911494710446 0.18925478993719663 1.2051009913953632 0.44311831699371423
P 2.3778915721350264 1.591810789155179 11.721827056509754 2.2108494422978953 -0.021692911592401345 2.971413381975147
P 5.945819518152496 2.9566301725909954 1.2763307659598373 -0.4310912106258511 -0.7734341107717002 -0.892427850399805
P 9.051021307685053 9.119057209062584 4.998011087102952 0.29562235616085863 -0.491014883564677 0.823718203738233
P 3.266413039611252 2.1981776142560308 4.397941707538567 -0.5415141778658092 -0.7049638338144439 -1.2106293774127603
Ni 9.129403811409352 0.9918942783101499 6.878726977570018 0.307631979027225 -0.3506041117133768 0.1706862829063899
Ni 2.5109805706099384 7.283663165379712 11.157569038707573 0.15563941587559646 -0.2529628696191192 -0.9041438532851526
Ni 7.840990823862235 4.082424399289723 9.36195535073218 1.883352091805311 -0.16089140830315518 1.131480280585419
Ni 5.780637409875853 4.713623070022818 8.937916165760804 -0.23001731656653934 0.21437395360232755 -0.39614169113385966
Ni 6.615664146840276 4.946971577364248 1.4039752144971391 0.7398994693493645 1.3973256625941612 -0.3271901036648107
Ni 5.342547352492299 6.584931941491362 10.998673190451344 -0.6347423784940359 0.43592874122381053 -1.5842664596862006
Ni 8.398383731188385 5.960733539553242 13.164997251374393 -0.41136853538594315 1.50057139535939 -0.33264418480084645
Ni 6.008663475829892 6.395915362763651 13.212732373246496 0.07142318893799313 -1.8995104467327288 1.1626960440665912
Ni 8.157997669998478 8.575571626692629 0.07134122137047103 -1.0605677127352573 0.09263530423923401 -0.06133777967753307
Ni 0.5284354705239261 3.1171796129700318 8.226985272366644 -0.21601714563270538 -0.6322178122999692 -0.9873972020888543
Ni 5.9065117504981535 4.789731185483503 6.404128327923774 0.9798880381960027 0.23760849865023592 -0.07698037131079646
Ni 5.937253277110442 7.347075720123011 8.333711873763061 1.6817904594763033 1.469932073206978 0.21817790072945006
Ni 2.723859583578844 0.6051671785044295 0.3718745987432519 -0.2143713824991663 0.15761222333125113 0.15735048502943222
Ni 0.42349016255856053 0.4705261896775024 1.2506059432962249 -0.02844977070026068 0.916041890274319 0.42694684944017436
Ni 7.12960132431 3.541763159722535 3.205372746397009 -0.4592777003623961 -0.28892463242570887 0.1172890982321722
Ni 0.35605361841607247 4.871609162973601 10.988577330089376 -0.3317062463676094 0.03999890899044079 0.5986320059247239
Ni 3.7635160154248846 3.378967294870011 8.57937470214982 -1.8318528954847548 1.1425100560370194 1.2728318190834336
Ni 3.474342461727785 3.709163728682539 11.938171715201658 -1.223451468878093 0.8595753226461583 -0.02424884524503566
Ni 0.7085502427280668 5.480045308543806 5.340781905208986 -0.46713062074791156 -0.017576061210550373 1.3975200379931545
Ni 2.2994344983037243 5.222703869273925 1.6675637644812582 -0.16012213423729843 1.3210101785608734 -0.27221708986304083
Ni 8.341533345861414 2.735725551855813 0.8948981437513821 0.7982807375017349 -1.2793950741232483 0.684885060786698
Ni 0.6830966688286801 2.9336532583704704 5.704425828391701 1.3551071202445824 0.10018997665804034 1.0232476361285603
Ni 9.039034162984203 4.9005423644910495 1.5047119720484818 0.5616500293837359 0.2820836982444755 1.2353117106507887
Ni 2.712413072153771 4.48232524062399 4.28088807844847 -2.425322640482249 0.3702961908256655 -0.6996923010028595
P 5.331240660017858 8.959421252494343 10.162667720832497 0.1642335853025107 -1.3002233237225092 -0.6732551898572535
P 7.97923448098378 4.051878619208319 5.158707803443321 -0.10593047868624338 3.012869849347721 0.009453689213732106
P 1.0368600528334007 4.006791668261187 0.08072866571590341 0.04238720671695926 -0.7921617690881906 -0.7506201982009781
P 7.6513031141714904 5.579232872122146 7.702290424835292 -0.1999356666898105 1.0010371614697922 -0.17017026250191983
P 0.9875971758940597 5.696373188961635 3.2771735060518905 1.0196846013676504 1.8020741215604255 -0.6634356326636703
P 9.02316937271916 1.7643566954984409 9.67498481378611 -0.7146977732727562 -1.2593497254365988 -0.36074454258148836
P 3.8919350609486876 5.342808347866812 10.094658851118755 -0.5978691596167703 -0.97664330600646 -0.7370566005839306
P 3.390581589035842 8.70454994801896 2.4335003651803855 -0.15084533692106278 0.12564492639603522 -1.1858346869665835
