# total energy = -381171.8267861397 ev
CRYSTAL
PRIMVEC
9.22088693604874 0.00000000000000 0.00000000000000

0.00000000000000 9.22088693604874 0.00000000000000

0.00000000000000 0.00000000000000 13.49570009243857

PRIMCOORD
 96 1
Ni 0.9765933552065853 7.035149447193454 4.048237688269655 -1.1201530284980579 -1.0072941981230974 -1.1598038101204606
Ni 2.2370332726524498 1.1596925068937298 9.258846551085007 0.9272940661493707 -0.774731232316569 0.366984095733297
Ni 0.9271048550754021 4.4022634988130935 4.188444962332389 0.5778770327655596 1.3338710936839415 0.16807429920483957
Ni 7.665415510351016 7.564013416827144 3.3413598860884424 1.7869807175624126 0.12373665362972884 0.19122296940716102
Ni 7.82780455000264 9.371464009376824 10.83905760623337 0.48781565990108894 -0.7750469637847749 -1.4043859118750524
Ni 7.625138676258784 2.012781302615115 7.182357218610314 -1.1555733169788809 0.07255267455674601 0.020923380416228484
Ni 3.3637703296730943 7.081309207144395 3.6186697615859673 1.1320772907394696 1.064833429990147 -0.6506523648560729
Ni 7.6645210843192055 3.5516920052224727 1.8031066327188998 -0.3877318698036097 -0.8495660180392723 0.46608418176126826
Ni 5.748559094425802 0.9334857088281092 11.337913121455482 0.23137331637380154 0.4580679963250111 0.22705154906999603
Ni 3.7932976844543083 8.715222707749067 11.131860415943754 0.34663124310855786 0.07888710141520608 -0.849313535708834
Ni 2.4746831913930842 5.819384726903465 8.261258158436892 0.36615285808125325 1.53561861677151 -0.7336000094938979
Ni 4.799250343632887 0.48963278411885225 9.068355014349388 0.8442944852276878 -2.1354531276447672 0.004286800300811972
Ni 2.161966032188883 7.992231405664883 1.6312523526378626 1.109458010678057 0.7098214190170614 0.15680901070366543
Ni 0.5745931141651927 8.463215868064841 10.118482176523765 1.9835896338718353 -0.70951468640992 0.16414231114028505
Ni 8.294307661356621 2.9327215285491106 5.065745962943742 -0.057283921323133605 -0.49111387103638643 -1.0120731075689797
Ni 6.47218663770787 9.24015857955233 6.715891912892729 -0.14098849873164107 -1.8364587696878822 0.35912577603114276
Ni 2.434360252866223 4.017033284823794 10.499775993884407 -0.8375347979063512 -0.6244104004404085 1.3762351604724494
Ni 5.760140528404704 6.4015638647425765 2.642066263403764 0.16164474152941194 0.03713572851003282 -0.31862215949014155
Ni 0.595392668803894 3.051007066034264 2.3135813875563125 0.13069251612227167 -1.0659431181145576 1.0712092516095033
Ni 4.10024256844291 0.8990272543861059 1.9811684138784378 -1.0573954856548629 -0.5808772530444641 -1.5140488610205345
Ni 0.371537196904372 4.71666808032473 0.6874521596944673 -0.35031023462204186 0.5413642825515064 -0.5975272028963193
Ni 7.3643904357688275 5.7571252983799415 0.9055731620147861 -1.5583317420983096 0.7203171763420627 -2.3845675700520736
Ni 0.7237345055704091 0.35813648193499453 4.074055249573419 -1.037601333747071 0.3567976421185984 -1.4187838324679372
Ni 1.8878751683171822 8.389974363212598 7.775452964480972 -0.5824847067409001 -0.37385202649772387 0.5159754101647566
P 4.267481794617546 8.459426083538306 5.498728384056084 0.48200959474227306 0.40149498502597303 0.46023029408365257
Ni 2.003707949880052 1.09357874763519 13.261684280486413 1.072670152425746 0.46710439549566657 0.7792718004993998
P 2.1027218336901217 1.4819993885008431 2.7031749252389377 -1.059995128061239 0.2728506096819817 -0.8057258809258704
Ni 4.469419218294258 4.890380369121332 6.85306274889077 -0.31273870412617105 0.942317021920764 1.232371397075542
P 0.6823437883375313 4.170256762871096 12.111783433419273 0.1429780183578441 -1.5133209817155744 -0.6523089266228894
P 6.522292937263088 7.900870858003291 9.204283796878514 -1.9063629508781879 0.8633021366784422 -0.8650162911560715
P 4.169224023535398 1.9849618867597434 13.10630864743061 -0.8168325323619933 1.711099492853066 -0.6469299216991633
Ni 5.286518892343945 2.1408133175809207 3.4956695846156127 2.6235312971786238 1.6646723117387783 1.1679999727780077
Ni 6.904821431383105 4.302843895978285 9.173054497037954 0.4203311438958697 1.0216059867600795 -1.2333191057007922
Ni 2.7403369437276077 5.724584788418521 5.414231864622114 0.13081464352243277 0.4068230821071058 0.19491404510550303
Ni 7.489287349179834 0.5519180311257679 13.10289415300196 0.48382710756698605 0.41481587050459523 0.4281025603111724
Ni 8.411062531612078 8.262495601462346 8.152617668676207 0.8512092100696502 1.3595666986778328 0.2844707104194133
Ni 2.04504518596876 8.483538702849476 5.449131999547867 1.729878573232782 -0.608647481179197 1.181728378107694
Ni 5.831187462168587 3.3954348553765565 10.836614993286705 -0.24562031321111893 0.9256187353294769 1.458564711910301
Ni 4.682080533465765 7.306271185475023 7.84117760231124 -0.1919099681718566 0.2912291121891694 -0.030232059411664063
Ni 5.860832613635282 -0.3645274786633201 3.7408732539259257 -0.8589407743859531 1.3263804417338512 -0.12069401014866309
Ni 5.365495788864083 1.7648039905174984 5.800006110940041 0.35656110062776014 0.17033789842803568 -0.08913346173356262
Ni 1.7980268461114342 4.190681027411914 6.895155175618708 -1.8706582983877267 -0.7579748387938366 -0.783855048994708
Ni 7.947657638265192 2.4861539747288752 11.24550784730519 0.0010986323808174628 -0.15831336316333383 0.6165577371652091
Ni -0.07780307761447446 7.475114845974761 1.248406660007595 0.0707475030272072 -0.7113609955900394 0.714205664127686
Ni -0.015554714155262332 3.8324034659069537 9.738443321873735 0.35989325032478664 0.15744073075039336 -0.3868219563948306
Ni 3.5213829498971143 0.9821074455882599 4.228918201316143 -0.8457844395096531 -0.8384295418064787 2.1826236146829827
Ni 7.916269739169507 6.737019731105991 10.203761549257742 1.1056936585396182 -0.11298712842270864 -0.5020292323973097
Ni 2.23656300741923 8.01379906018451 12.656888151195512 -0.7762219579294825 -0.5708309245520556 -0.15639506309469842
Ni 8.655904742154899 5.4749753793350235 2.543736569403594 1.397355487390832 0.36496269442789403 4.53276539895702
Ni 5.649259363121029 6.538401826722595 10.890463128756442 -0.656798844073443 -3.1863216108143897 -3.286444224569605
Ni 7.107081586102222 6.6478537545327585 7.388423755452434 -1.361234573298559 -1.5105758148702695 0.13411593998152385
Ni 9.467637860013722 5.881256878176101 8.316886847172016 -1.378682593571677 0.9637119426567724 0.6728679817211637
Ni 8.39479688707483 4.200418284005641 7.230240362327701 0.7156251701830321 -0.17595575883544534 0.18215468855730566
Ni 9.293916350330196 0.6693626237232813 1.5991867183531245 -0.12084724789707575 0.5265048489411707 1.2977504367019843
Ni 6.449254291923213 1.3818605564858162 1.7347236131879018 1.4495527382196778 -1.3539195276943843 0.14983052250330325
Ni 3.4509814782180417 1.197765549010677 7.0990889213148725 -0.565145187021188 -0.6074053812419796 -0.9369958668181669
P 1.3703528896023214 2.0967928033967826 7.506511043868681 0.5468679859785549 0.7350670809577275 -0.267294712860759
Ni 8.920802381761499 6.9569194425143115 12.460903732118144 0.2672512612173333 1.1169234658171667 0.10216972609223048
P 1.8051822543659148 5.846300495840101 2.117003143360921 -1.3098127671831572 0.1463991282242511 0.49486793876218
Ni 0.1944657390006734 0.6625474661963654 6.415842408147297 0.18797618033508917 0.4381519741273745 0.42300431985265863
P 2.671051199366566 7.5094165453390245 9.578964394135918 -0.07915166793050239 1.060643303168199 0.7675750808877619
P 5.975263820385419 4.753708383105979 13.171061403778893 -0.2950978511159563 0.5855268360013335 -1.0746280474830654
P 7.872138574342257 1.038059787454483 3.824087147988505 -0.9816633849288707 -0.3525087849352574 -0.6636066110238958
Ni -0.07407138467557194 2.4847155163684387 -0.0697624642151095 -0.09156212577971329 0.11151928562793052 -0.2560695335689009
Ni 1.5430693226109282 2.4394962868839367 5.256210759107278 -0.500708456703357 -1.4988549268889155 -0.18939774327296413
Ni 3.7813289732245194 5.183106645470231 1.6004684216358214 -1.2679570074896356 2.827263454796389 -0.04592067379151447
Ni -0.06385279778431477 1.3554519363301036 8.978675434374383 -0.22701941028047998 -0.34996339280558436 -0.004598675114275951
Ni 7.830432502776515 5.010915803016399 11.724160399272709 -0.8748469040932483 -1.3441056269277563 0.4709055144093116
Ni 2.1154835411955357 5.682685078227335 -0.4726101047649903 0.6551350832177749 0.03821790583061805 0.38582976768489036
Ni 6.47471316072556 2.6611295250343225 13.333589678823097 -0.33068808951574014 0.08441034522628044 -1.5423189116098213
Ni 6.468839455753777 7.8555040943279755 12.115211759178315 2.5683173710106413 2.8665946482958438 1.5006372156003187
Ni 8.122826827196082 5.720232529789507 5.453221462899494 0.24850097719302364 -1.2352564319328212 -1.783314581564735
Ni 5.384435490609834 3.7736110908675604 1.5850695404696065 0.40186882342562397 -1.13207394830536 0.6679780006187142
Ni 2.3976703437881572 3.4060480962282416 0.9610137446566231 0.7416439628442969 -1.1335261073708542 -1.3769131603760802
Ni 6.807098471742658 8.044532276308459 0.9993606471152687 -0.7111547931165043 0.3380314172546888 0.9690775778440602
Ni 4.6038781914474 5.121852293621629 4.136675214775744 0.45229227018349843 -1.5774967450625348 0.3220651237334195
Ni 4.169159477326917 5.0667667151264375 9.325151182702912 4.139408983877781 0.14944382858784586 0.8562249181166868
Ni 4.9669967185884465 0.12089228221909884 13.376006680770825 -0.1822588182353377 -1.743481251617881 0.40319114178147336
Ni 1.0464323527831796 1.9293414968228522 11.149837457094444 0.22879809944745758 0.3066963545868331 0.5061918484154315
Ni 8.399047715947662 7.960548438187569 5.677357249761562 -0.01737834337744749 0.33047674483588246 -0.24111934001697183
Ni 4.058951436788832 2.168688058757848 10.462797471045564 -2.2460961813153317 0.322759835807599 0.8816233035851332
Ni 3.5863256565160677 3.3580810424398284 5.429455548936739 0.6682479664506491 -0.2511289017341739 0.4904235298375812
Ni 6.356160217519557 3.966622696000023 6.130178409094928 0.08935843326017513 -0.05994347043316772 -0.2935893848912298
Ni 0.9663212871711581 5.8027133633414785 10.807181000130612 0.06828901418438561 1.7619358587786431 -1.0105039633096466
Ni 3.4918484490735295 6.209372918546516 11.097338337381963 -1.8571669487695113 1.1119177850724593 0.8604253293512794
Ni 3.154695939515754 3.3700497536696172 8.529120313190164 -0.9689765334898217 -1.9649159687217321 -1.7403807583156867
Ni 5.771390010454273 6.91585883303338 5.145977822174493 0.413981547528758 -0.023296251523779232 0.9933860726824377
Ni 5.2433835833046905 2.5178738257538935 8.198543218099232 1.6339054628695666 1.1714069415770278 -0.5962617059203343
P 7.141410948127263 1.9754551523391644 9.308375623118664 -1.4080409921291361 0.6673028289285604 0.3056422022907059
Ni 3.9915651951345215 4.2844943309957895 12.37574607509159 0.6977791431405466 -1.0980783080862058 0.8017668962781224
P 0.26324802293556215 9.024684893868432 13.14135723863587 0.5082099072867248 -0.5297490669100813 -0.817659656248979
Ni 3.457620516804673 3.351257586114679 3.1349835274456135 -1.9794686697249264 -0.14708201322388864 -0.567774654224235
P 6.697535893289384 4.401996093092243 3.9863461731344745 0.6073562731715992 -0.018326052002697473 -0.5481018583856561
P 4.552490188609486 7.886928876971365 1.6698638945512811 -0.23939772934017478 0.434406133931697 -0.1445404777489575
P 0.9933938111855336 6.435828680559136 6.385166361522289 -0.6637973868784632 0.6966553139487486 -0.507480742430184
Ni 4.7996652835445515 6.735221658155445 13.155149841299599 -1.1194405758120656 -0.7964999914522283 1.249118277516578
