# total energy = -381170.55570906535 ev
CRYSTAL
PRIMVEC
9.17949014045472 0.00000000000000 0.00000000000000

0.00000000000000 9.17949014045472 0.00000000000000

0.00000000000000 0.00000000000000 13.43511169763496

PRIMCOORD
 96 1
Ni 5.955047215087914 6.400325912226471 5.685349211433272 -0.6846207513817177 -0.1370451978131769 0.18857241915819137
Ni 1.9251593444109567 1.4060132918697041 4.440076131690512 -0.8004800591458989 0.07249868139035902 -1.1996875336892758
Ni 2.6826049553284967 0.5861930469318689 -0.07816978232915824 0.49701686678438284 0.9030524199931866 1.7406944329013634
Ni 3.691788897868197 4.450464560435291 2.8291389888520846 0.9243282986528275 0.15126468384666855 -0.14541542415474312
Ni 8.426982876705479 5.752198846790564 7.397573764020536 1.4293004157285447 -1.4142880014801127 -0.2174428223356384
Ni 2.583503182130099 7.512109013624868 9.336945712677794 0.8800148214474328 -1.252278163301798 1.3330069459114333
Ni 6.771214023036776 4.027996895753016 6.152420935595756 -1.856394589379861 0.5842207155954002 0.6110743454531348
Ni 8.276099600856826 3.132464217938154 11.759134964560822 1.211862992709545 -0.853880072033594 -0.08323740796410181
Ni 1.9425911957729203 1.4553530502006957 6.6482437401430765 -0.4607396296199032 -0.7294091113410018 1.9020712654813692
Ni 4.886068075196012 7.572262211084028 9.856468124305852 0.916191528478306 -0.6205450039477313 -0.2833072862389314
Ni 5.329694464148601 1.2828428960957048 8.111582946575952 0.4168035903585854 0.22761256377978864 -1.2968135267100118
Ni 7.223928107012188 0.36389792923466724 11.977428742601004 1.5525693856932359 1.5304339872467771 0.3428542925646289
Ni 1.9631440737083787 1.6725397817562795 10.529970053733265 1.8216075636076627 -0.1699468336372041 1.0404871399352984
Ni 7.433927297958811 8.834194229137315 1.570496899986859 0.6078290990429596 0.5860454275089649 0.47600478330908996
Ni 4.644932054433814 3.681351817826832 7.285511469001203 -0.5720015478213891 0.10577389850372106 0.5184439263099071
Ni 5.456215373744147 2.7015238840578313 4.378825067236676 -0.3360848350512793 -0.05221910520571651 1.053079374778012
Ni 3.4383064631608478 5.34876944420661 9.123219648822822 -0.9459988416477257 -3.0377064487754266 3.9248943909325305
Ni 2.5884325682182374 2.985904481842784 8.541238151867187 1.0340017893212707 -0.9152484478387463 -0.3631477527063423
Ni 4.624140509760381 2.5565980971685853 0.46597661101478377 -1.3913876998431713 0.48706206956451603 -1.1686437770095939
Ni 7.582827803984301 7.804347254783091 7.189343460781892 -0.3840479931941192 -1.6921458345686986 -2.46761805881635
Ni 6.604789870750101 6.427680792194165 2.0967910213304077 2.239052644204989 -0.20077898852671228 0.5569037729480022
Ni 1.9786482321867127 5.979418760830943 4.5861153907073025 -1.636625690014207 -0.3899756715324639 0.7336717432720978
Ni 6.90244401096233 7.266153760653595 13.365101413606462 0.18760902680365754 -0.020078258807113808 0.32441099825777675
Ni 3.205193316590516 4.820379645313858 0.32397265576772494 -0.7536996084572504 0.566551066229779 0.37063454800169077
P 1.1677504514531052 4.185599558224606 1.2063575501672419 0.6296356533950898 0.8023171123546377 0.7441343333663184
Ni 6.273492899973575 4.751276445180704 3.774419912299469 0.507448860750984 0.9334194623208183 0.8982382864339951
P 8.937087131673517 0.96290095435275 8.051702379967475 -0.866800636750004 1.129142890701494 -0.1532953411234521
Ni 6.813044958611534 2.1232619164186093 9.780962229952072 2.383895997906346 0.6519253180312257 -0.6910050576415068
P 5.724935761722091 3.8482992010390635 1.879746571868616 -0.21948556379728007 -0.06481082582779805 0.017874052066943414
P 3.0515470142753274 5.615727370119522 11.349512160126464 0.23037444279564198 1.3579631016361389 0.5098140185490511
P 4.821049748078169 6.322447119727841 3.522645780666612 -0.700111133707833 1.173782640898056 0.7487777456756007
Ni 0.9141798936425041 6.190418516179068 10.361493367500023 0.30803101423785656 0.7358145006467134 -0.04390929978844051
Ni 4.625297125490559 6.614015258121755 1.235867774368632 -1.108464022195904 0.3499644212468489 1.4090164686685283
Ni 2.6169348844261866 2.409166309530621 2.1429537581993796 0.3237391690017328 -1.0846010995353772 -1.5713934603782744
Ni 1.5898509365384985 8.528039881257271 5.319686066286596 0.25367480808447923 -0.7357425097581973 0.7786745332350331
Ni 2.7108227073488624 7.336771576623887 0.3846160379887227 -1.6059010072368407 1.1482343601153062 -1.2756029540706675
Ni 8.733871583779285 0.06446847567151394 5.880305972244639 -0.15823185919312105 1.009736746126319 -0.5909459501343758
Ni 1.2654385832035078 8.69766767552674 8.236207373553603 -1.2427044035704342 2.001684543700333 -1.0887050944014218
Ni 5.666407333979132 1.6834817337433572 2.2093636959894063 0.3327480573685624 -1.3599485074972837 0.9321362247330205
Ni 0.4060712597835184 2.20958583964552 0.8589863745882244 -0.1628783568261969 0.4276495319341538 1.521704063572947
Ni 1.8629866591689461 3.8007127252831827 6.3025588368627385 -0.16102047768185174 1.6738524355761493 -0.19322045945316402
Ni 7.519746349240009 5.332172926427553 12.069982785638006 1.047082533764629 1.1462350702970905 -1.0278370552714557
Ni 9.306166882969178 0.9252834046522097 2.9174612870350245 -0.22373996819825986 2.0230149297469935 -0.49515281699245045
Ni 5.805467426808191 9.175662074747466 5.833430906957717 -0.00802004209099909 -1.5592272573293855 0.10776496079182084
Ni 0.33270051478560525 2.812641609564185 9.407828815906834 -1.4292479652240544 -3.0027798121015707 0.17026487909825513
Ni 3.870027053684544 6.286004544737322 7.425411485158129 0.9989201151267894 1.1739423064043717 -4.170545043160954
Ni 7.586251753725225 3.1145458536103217 2.7023647253346903 1.4134199970528627 -0.9250767467830778 0.5895655248470815
Ni 3.8623530001097146 3.608209642127978 11.857493199075535 1.3528021262604895 1.7942494833096843 -1.026167895099149
Ni 5.7950487057466695 4.892787461818949 0.05741311971743018 -0.44225442633152223 -0.751713431265157 -0.03870358721778496
Ni 2.2275133834632737 6.252031252535835 2.355457113996736 -0.8550121287555081 -1.8842404079475357 -1.3133979134312541
Ni 4.004892119619228 4.697227608519703 5.221233283025686 0.1917744710352568 0.8961580068661984 -0.15424613507249565
Ni 8.798045397824302 5.618205832398474 2.646032031581085 0.577947738102495 -0.8329353514611268 1.8043045535528408
Ni 6.00974779553338 2.730228149044066 11.88428262246403 0.14100469668155716 0.014336985447962405 0.4421338415932579
Ni 4.074454294248485 0.7218805951635687 4.461988492083426 0.012012965300476085 -0.16424052728104616 -0.5167955920732068
Ni 0.3104218927448021 0.21088684762208423 10.45826722205419 -1.498915604923522 -1.0260750782750263 -2.329962738223
Ni 0.09059697578562272 7.996574953240635 3.4442116290276994 -0.4057409047865206 -2.4225743883131505 0.3618624582360155
P 3.675467764786801 0.49966625697768097 1.8659084908111332 0.8980081727010599 -0.2752337652021776 0.3814118411228528
Ni 1.6931844545909587 4.070534652051772 10.653962931804282 0.7930917371016276 -0.29169242497883313 -0.3938634366226443
P 3.565772860218364 2.6213777575484567 5.61480207753538 0.1623034581593334 -0.7846790875579002 -0.32378210642452626
Ni 8.001871518925654 6.858088715659009 9.72317825884179 -1.2853744316351345 1.3695423218333058 0.6407592741120771
P 0.457166136587605 8.558974762294563 1.2865073484725853 0.7823897773030912 0.7189552629975295 -0.8086006313705043
P 5.171265647584027 7.958287300775784 7.608975581027247 3.2846303112893174 -0.6451949412859275 1.2788114337056364
P 6.568567603517711 3.866456232104869 8.32908361668687 -0.566762925130269 -1.2642682457841388 0.11249296239510947
Ni 3.6652693514834094 8.931304053022629 6.845175927185667 -2.846115811616202 1.9650838617581643 0.00471360342558543
Ni 0.6374770212283497 4.981250206197696 12.561116706733147 0.6022346356743177 0.2749378312283136 -0.4523622041894855
Ni 6.143098245630927 5.9848621983547154 8.1019096000961 0.06894490260082965 -0.1861851498729374 0.7908883016924056
Ni 4.687506528692258 3.0098629505393215 9.697933743607175 -0.37398700941369134 0.0782479251693104 -0.18911029393953238
Ni 5.7339683798053835 5.134345739117562 10.600813685155641 -0.5635323340081133 -0.08458466602061561 -0.33419173179362444
Ni 5.395997919855532 8.537476396897134 2.822112089316759 -0.9763977656545573 -0.8099157506375019 0.26464184861894424
Ni 3.108065133725358 8.638285555221032 11.457596982162576 -0.09095765942649496 -0.7049910875079536 -1.0148874370893233
Ni 1.9076081596800067 3.0052273081286884 12.666811189593558 -0.9691097166335761 -1.3623414332094925 1.4409984208917634
Ni 5.287321938668441 9.331961249650124 0.18878079999181557 -0.5026761219526891 -0.34906042137534077 0.11495659344425364
Ni 7.199409689430406 7.608695606584624 4.138659318559236 -0.5684937917784467 -0.007167721393032817 0.5785601748755134
Ni 0.06268122898369179 6.564354217643492 0.6454778646444042 -0.21161875945469363 0.46278237108154496 0.9977929435008815
Ni 5.252366441045295 0.6102570797625098 10.655238880903445 1.686810281288398 -1.3633356788019617 -1.3701447313039952
Ni 2.2587511876679924 8.307511815370063 3.1282581756558723 2.177080573377567 2.1176870619105976 -1.011438045088142
Ni 8.841473564645495 3.194609364710398 7.228989677755203 -0.026835117914973138 -0.16120508288883206 -0.6738917949999877
Ni 7.360674968380892 1.9192844708608479 0.3996088988783988 -0.7688621751303016 0.05972004156845198 0.009401495819558002
Ni 4.684798579165254 6.7338076016044415 12.428136190079456 -0.6616299469134992 0.4041355079726136 -2.04750674424077
Ni 8.107086832412135 4.530491353575679 9.567371104598953 -0.12982065504027965 0.7300328609679299 1.043847314656783
Ni 7.148500238322745 9.055548449117508 8.740803016619422 -0.6369345010493482 1.773715367912074 3.201184901079467
Ni 1.7353642107827552 6.882019645885779 7.018972127828738 -0.8978289668107182 -1.7011701495544962 -0.31321127288721545
Ni 3.450551902716856 0.4864441196939674 9.022523398224966 -1.350881512199009 0.49690785201034426 1.0244843367491387
Ni 3.5883268669568285 7.5283842492566535 5.190279125059559 2.4410734755586025 -2.0048601132148374 -2.0448770199274073
Ni 7.103043404228778 1.7321238508402734 6.346087978073076 0.6028285605045747 0.616483432283848 0.6191545513581078
Ni 0.6133836140299583 0.880679345172001 12.54037289540731 -1.1580004383631346 -0.12426090156431502 0.2196619414741443
Ni 1.5281464052825124 3.4522042109028237 3.747468929888345 -1.5111376009110102 2.671009031044613 0.42462411484426865
Ni 0.09405947938421806 7.833345263446831 12.220254707457851 -0.2693387398739813 -0.5203514277452651 -0.8167584845909482
P 1.1911397917744757 4.542323716085194 8.412193800492071 -0.6553194313144391 2.0050935693818825 -0.5396940939379351
Ni 8.5795184607401 4.483868724261613 5.051265847629103 1.8639855143532418 0.9493086227472489 -1.1951695912142641
P 6.538302825244728 7.7385578505117945 11.390354464636617 -0.6093051693678538 -1.7731749220275719 -2.1798589074536525
Ni 7.0217131235194605 0.9288358672520411 4.074237658286325 0.7442024676000925 -0.4516602930264544 -0.930923435371842
P 3.9228183002262247 1.5151390680629746 11.759403923615539 -1.7842964858620303 0.4358058424927011 1.8092367007471357
P 8.667026538166954 2.3619194749018555 4.609734218276724 0.16686973737377714 -0.059874307758129144 0.28738325608051796
P -0.089920447378368 6.894476213709995 5.547989160137776 0.301229675045307 -0.20047302725051927 -0.41933252742802624
Ni 8.155527000730764 4.345084016130214 0.7538573483070123 -0.6725566211283321 -0.36219567320571816 -0.4322718611975136
