# total energy = -340868.8099624619 ev
CRYSTAL
PRIMVEC
9.29798339058028 0.00000000000000 0.00000000000000

0.00000000000000 9.29798339058028 0.00000000000000

0.00000000000000 0.00000000000000 13.60853854668138

PRIMCOORD
 96 1
Ni 5.212700473740263 0.34005328299566007 3.9840761203654345 1.3872952749413525 1.0212666011427896 -0.9111894472780243
Ni 1.4733026430515115 2.659613734104159 11.261555566902707 -1.2582546926002072 -0.5681942582601569 0.5240090791025104
Ni 6.048105675709871 7.1910602707160365 10.070931141405287 -1.0586707528228607 0.6790483995002627 2.0577266221965655
Ni 6.157217509530471 1.3522150067629997 12.342944495401866 0.05084896433106727 -0.7331948036356791 -0.16520289119431547
Ni 2.7344253075954716 4.768721771999003 12.93790942847497 -2.2224320049291726 0.16397236122132405 0.294961325538092
Ni 9.211586421878128 1.3801926384601608 5.409680109177518 -0.2839510904705175 -0.3955639642535187 1.0545222778721257
Ni 0.30442806004861 5.81516330053241 6.516012737428746 -1.0582002409443454 1.6707557989286967 -0.7417390936612644
Ni 8.084122267020671 4.878902873897096 4.5902283869240925 1.0037409335542002 1.6917570837707123 -1.9213301137109813
Ni 3.690053433408315 7.866019473162143 9.326788434748792 0.13217732819791428 0.4646559339551739 0.7458592864772251
Ni 5.158046928005496 1.2874917451332424 1.2710157187565823 1.4650305221403028 0.625187130705433 0.3884594919982536
Ni 3.278766440888463 3.102485975834797 1.095155522547287 0.35423296671521576 -0.05827302470928029 0.8058402950165476
Ni 3.729783715974606 1.4864127994798921 12.917414813723598 -0.7191018158777229 -1.257082783779293 -0.21248059323435664
Ni 6.878731714272253 6.483288485265849 8.11417241919151 1.2711801424126237 -1.1849473992656236 -1.6806825711241054
Ni 7.638451332321989 0.5336428737281016 0.4443366740976381 -1.2159045097687704 -1.8307468069047697 0.9006543520746554
Ni 3.288910540649714 0.9266500311144805 2.915833610429458 -0.5293335766392174 0.83478937395073 0.3763421399094293
Ni 8.749997339799737 2.456489991313801 9.640969149462457 -0.0854225885408787 0.016945626715403075 2.171539074734047
Ni 3.4292357043497996 6.506719403137848 11.152020674842749 0.30007524972588967 0.3242050528945578 0.3790425695597278
Ni 2.120414385566412 5.2654293369355445 1.8545311152155692 0.33951083001369275 -0.09517786815542963 0.13915838750143775
Ni 8.200374952002262 7.527042896630601 4.6873114197720716 -0.34349141192799554 -0.7688706597707339 0.7003466467574068
Ni 2.727777249548456 7.7487626059860375 7.036322303129686 0.7712183340673041 -2.03621728736988 0.13721206240834433
Ni 1.1846839439782033 8.593391407371923 4.854600734991522 -0.06617993826118279 -0.34178317098763716 0.020835705798428632
Ni 0.13547998461155455 4.058597596778332 8.117887893311215 0.7549921020164287 -1.1406871438956678 -0.7693596835920106
Ni 4.991938456662928 4.8702464514610515 2.4341460076875308 -1.1777596232679328 -0.9150126776788565 -0.25118880843783187
Ni 4.3607820534608654 4.510646948008837 4.9494113407252485 -0.7728507274644044 -0.7151204626324716 0.2795861286336024
P 7.376917658550719 0.1833850540798545 4.921922782948749 -0.19276640263488093 -0.03309472567143978 -0.3286993412204855
P 6.689898971787159 7.371450444380585 12.624749632325729 -2.1111232926501513 -0.5395390564173095 -0.8691971620066385
P 6.4832141013995885 5.117080013662627 6.004876562034359 -0.6805216416116797 0.16468969900332284 1.2564317804588556
P 3.790192713361265 6.465891958544217 3.382306923126166 0.43057184778727137 -0.9247044510453236 0.31500384601126397
P 0.34444007150836214 8.815092520760796 0.03788463288470713 -1.3735522143236474 1.3201187770948555 -0.694656538351165
P 7.359121318547938 6.680610286487901 2.5212950751964454 -0.6792062652343658 -2.428265010940024 2.182377817220764
P 6.414381131158949 4.092804877274795 9.191288924372342 -0.6654866016554281 0.1730522120354052 -1.0970138713774331
P 2.3728081417709457 5.585242769921773 6.219319669672881 2.041957275177451 -0.05398365330530703 1.5020384668232196
Ni 2.8074981582129497 3.676357504033134 7.176693956746185 1.1352857703744386 0.3917769864072608 0.9661737739337037
Ni 4.070313055714332 0.40270216455508284 7.91565117812601 -0.16530162155570885 1.2372858036580239 -1.0088342889167077
Ni 2.503723746389102 5.979421473201751 8.484583617604663 -0.7427127704284435 -2.1250933816769986 0.2618465452619942
Ni 2.658302718461321 8.032760207367923 2.5675497526320945 -0.5050268815730528 -0.7069582385366534 -0.7068322544817504
Ni 5.712048665929046 8.309198548341104 5.749335438488686 0.34627848775482944 -1.3388744604358036 1.8113959131819835
Ni 8.99941574135386 2.321185738586287 1.3879759802659748 3.67741799834928 -2.0371032895192593 -1.322275161316226
Ni 5.860955868198916 1.0320575483953176 9.72603639851441 -0.36850104659845573 -2.1027103859961076 1.3037207953528065
Ni 2.319019308481455 8.576106456449683 12.217297128111596 0.07006178981409225 0.5209502376715287 0.09317549301342018
Ni 0.9566323080073573 0.4289029516469508 10.344122626616208 -1.0039882736783161 -0.04422374570506577 -0.22309179309129964
Ni 7.810891730279966 3.356172151715604 6.1444867108200185 0.4902546083598847 -1.178207766548945 1.8539353292060912
Ni 6.803176302118337 2.193394256351064 8.066882876216514 0.8955627964843609 0.09494235510585584 0.839094429083987
Ni 6.353395658808773 3.3207375374258468 11.163601313021152 -0.668523331599223 -1.029037246227144 -0.199684727021269
Ni 5.942945484784349 6.184916201729157 4.282308004354561 -0.19985056317517194 1.5071945571028622 -1.1246210915717407
Ni 6.06128091802123 1.4645811347324893 6.03341393232513 -0.7515889898721507 -0.11811699345010625 0.417772639140074
Ni 8.729114069347153 6.655189600193439 12.203878278638236 0.43993066329435204 0.06916036104574541 -0.583742233297085
Ni 4.595221403946816 6.109472365374631 6.9496223282133185 0.011414926705160986 0.3285317052943697 -0.007268251526639095
Ni 3.735697233342301 3.210379773845385 11.502304528844189 1.1544533444418246 0.48440072068226897 -1.6562851161163477
Ni 0.08132760017571636 7.804959616945706 2.6641297645844886 2.423654765861522 0.02815666493987409 -0.08724730045444329
Ni 4.907038571310061 8.711550178926435 11.818376453357523 -0.18675979142948482 -0.765295797935282 0.03406608844577359
Ni 8.847774931998922 1.3305507057146828 12.403488313546122 1.0354786309771136 0.6314032868184738 -1.862398886592412
Ni 4.4319581154887056 4.963319264119272 9.722062440459453 0.162822563887597 -0.4867748773414004 -1.128898893011488
Ni 0.9778131139249822 3.6773337922778007 5.75464272734636 -0.40793251312120066 -0.3546492283170279 -1.3175952393420534
Ni 7.3775127294808005 3.0617515110739912 13.62418799576924 -2.347287859765009 0.5364033390018051 -1.5153719507073322
Ni 7.345323111356649 8.760094949644575 2.6970901855227627 -1.433527823546331 2.474188770055332 0.5776885709038374
P 1.5368171668545385 6.4384722058440085 12.024912556012572 0.40289752180045446 -0.6567931876464881 -0.32556388091529737
P 7.0926411176703565 1.9518791405871012 1.9434486591448226 -1.8286750119774056 0.259350775423334 2.05681979411158
P 2.2952257692614366 3.608398544221053 9.543205504238195 1.3906695907302244 1.0102877335337828 -1.593825049908913
P 2.3183498536851124 0.3683405375361299 6.5004720881703095 -1.3784815333044647 0.5897899821530617 -0.3948880212324167
P 9.154180673091728 6.080053546268677 8.574876333261404 -0.4211806363803585 2.021784656884318 1.4930817718505642
P 7.810742962547446 0.6291824413511795 10.412940720083595 0.3944110815959982 0.9406314066882251 1.6680859654060174
P 3.0404312354071283 0.596370788145426 10.196320024760302 1.2640098499164298 -0.1798257833138129 0.28603316981052673
P 0.76595856483232 0.920855527932802 3.4357889229673337 0.8673811918438222 -0.37750967785496914 -1.0107009098118012
Ni 5.333397594730908 5.351482172215447 11.90121125662334 1.0283404772704354 2.0673998836202716 -0.26826710407635734
Ni 1.2488214326611606 7.3126128061686755 10.022552804587907 -0.1907023210170006 0.062395017297453836 0.33613420023197593
Ni 7.749432060782381 8.797500736390232 7.1037791718445105 0.1470814990032564 0.6416990123175271 0.19000992293566632
Ni 1.6128095842227337 0.792550797020383 1.2805033808980855 0.05498869753105369 -0.2656468928446909 -0.1472203385739658
Ni 0.8387097052282221 8.593512281154597 7.96209739401728 -0.5811346204709089 0.7470993295319133 -0.5335360447563392
Ni 3.583647312722933 8.2585059434847 4.970518692574942 -0.2724148076961438 -0.12859655282519145 -1.49784448334653
Ni 4.183646173945206 2.433300821007148 9.16662974290872 -1.0268957744041087 0.8480436678574751 0.21022650709285728
Ni 5.319794645188553 3.7146187052407837 7.2345980774365275 -0.4629518067798737 0.4065415463109451 -0.15485651496298491
Ni 8.637101226783143 2.754787890984233 3.4854187683345446 2.006018909409629 -0.5038292617205258 2.1295653014054228
Ni 0.7063166510664707 4.849474756807858 10.346231409224687 -0.09221287198983473 0.621024514687311 0.9392054728749759
Ni 3.7548510789043323 6.598127876788493 0.5616511887700952 -0.037712169838793115 -0.09038430342152821 -0.4960038521388361
Ni 8.321750825772533 8.203424690518935 9.437194547842322 -0.4016518223188115 -1.562357575428251 0.10497839918561919
Ni 5.3780837023867925 7.969069021882528 1.379933224726578 1.1246036080702437 0.2904097016116676 0.33724388835638697
Ni -0.056903657689141636 4.368490081602091 0.6348086510354441 1.7600952060254786 2.426788169284182 -1.1508342596319987
Ni 6.364432364965146 5.660463454677517 0.6545733740991384 -1.0271767959796372 0.3329827990871878 -1.2981407301618677
Ni 1.5803131326502582 1.8592712270930078 8.205023013845203 1.2721635893718155 -0.3899471322873736 0.3135002648825439
Ni 3.591941113810958 1.7894340746578536 5.643664788280954 0.5280619090156453 0.9684885381098094 -0.4622252130264942
Ni 7.399316500278356 4.229066822280411 2.0912103498742836 -0.03407585863778648 0.7294967859588017 1.6163957361205776
Ni 1.8050267926226724 2.879808574201259 3.2121324436941436 0.9859560987669536 -0.49968567186579743 0.14558665962528475
Ni 1.374818404122853 7.100209676062343 0.42814888520273686 0.1619931260077662 -1.3812686091312987 0.6296425953736252
Ni 7.60759132580724 5.294076423429049 10.653185731331163 -1.0739207370033956 2.182864012828563 -2.7769222833396756
Ni 8.058385449294603 7.323035845428402 0.7334593238648599 0.6481121149327225 1.300680980085218 -1.2562772571588623
Ni 1.8288110338594086 5.659859085764152 4.235779966210405 0.6379662847479722 2.010617327413589 0.018923576377380315
Ni 6.612567644826278 2.7782188088562325 4.195716815842599 -3.1807544011392577 0.06411817063614764 -0.7588821810994544
P 4.261042586789064 2.6724821429671937 3.656369629370659 0.17594393176090345 0.6909304956498294 -0.4300810241937819
P 1.4859014103993524 2.503054291592759 -0.17930974800711744 0.1661166612578365 1.0774955988388475 0.2270952578237379
P 8.888890614074311 1.781354127185327 7.62264569054 -1.2205636058073366 -0.5759098817368598 -1.5068703409942243
P 4.689521550398331 4.013307120209083 13.275537797430545 1.3059489133523765 -0.8154562208397569 2.3977210767148964
P 8.327311019775491 3.9236838593486842 11.87396723580717 2.1292081751763203 -1.4828629223360332 1.6058439287466602
P 3.694311909751718 9.189457221665682 0.8143843213644423 -1.2874799080139117 -1.7230654069656905 -0.5163474487921946
P 0.5175276091028042 4.544817036572169 3.1435719043636827 -1.959698429076535 -0.21186738513038997 -1.4038089563256597
P 5.563615660806586 8.25447991672336 8.201253611422462 1.1554787003825453 -0.5932478587946751 -0.7269261970181481
