# total energy = -381170.74533921306 ev
CRYSTAL
PRIMVEC
9.25496300441990 0.00000000000000 0.00000000000000
0.00000000000000 9.25496300441990 0.00000000000000
0.00000000000000 0.00000000000000 13.54557386296375
PRIMCOORD
 96 1
Ni 7.98774549662934 8.932427310740302 0.8923931254923838 -2.075078483211452 -0.007879916968709008 -1.1282841422456247
Ni 0.4607823840607303 7.667810688874088 9.959856821419256 -0.31559288574551453 -0.35928209910334896 0.8971062297120809
Ni 8.469919801620541 8.948401376469294 6.478197210735762 0.636874080125058 0.5467898244424518 -0.09295514947249797
Ni 4.813395073499769 0.28309172649189807 2.9289597129491596 2.1986179332287104 -1.9248324704372852 -0.1685833776307742
Ni 3.616182345436717 4.736199429093319 1.6820755997369152 -0.5028067339932825 -0.015851108099643667 -1.0675462009356196
Ni 2.58546639748061 2.9794501623028804 10.419119540594297 1.6015113628095774 -0.289890595883404 -0.0261234365599292
Ni 2.4572018685477497 8.953093642590153 2.4832693966661057 -0.48148277570452563 0.12288021916670451 0.8291013224270172
Ni 2.781884472200437 4.237810429341285 12.555283409825442 0.033039189843156 0.281093052196432 -0.2707199364922241
Ni 0.5534467732293116 3.2565344924652946 9.258833188459464 -0.6571444003383199 1.074017153371944 0.2957048885723359
Ni 9.08153401581551 3.43530335319602 2.817330054086573 1.4516888107260741 -2.7892574078662604 1.9904421380172947
Ni 7.087145070158699 6.649163212360975 13.493910627296826 -0.8998503681161213 0.704830136450057 -1.120039385738329
Ni 7.542711357206185 2.332833678938126 8.571652203304343 -0.23358240820997836 0.5260446214753005 0.5586084143439348
Ni 5.432394747979636 8.6660046976809 0.10012666564441393 0.9110896884753664 -0.4998581928879197 0.6342703239536237
Ni 4.349656654332526 0.49359770552961274 11.795783220143708 0.40486467282915434 1.4795708818483229 -0.5298629667801261
Ni 6.547293837228281 1.2294385084039292 12.553725799592423 0.6368866785305484 0.3122288543692881 -0.46678994957904124
Ni 7.872049207128677 9.251482897033066 9.114708429839599 1.9520483687304448 -1.5859515606981074 2.656089176509987
Ni 7.547653507321645 7.681359954359167 4.3567302223723114 0.7558446798247112 0.25187606431284365 -0.16364403134762784
Ni 1.7298265801127786 5.918520922070653 8.571584642076171 -0.3252556056462592 -1.3594319728721815 0.25272581390764864
Ni 3.8709714703029867 1.0394896526554613 0.927857217304046 -0.22311544724038349 -0.7861006504957752 -0.10793799603457539
Ni 7.1261639931676415 4.423909220580332 12.992061196967695 0.11268759490441882 -1.942691610105893 0.24239306452307285
Ni 1.8943335432256718 2.9883349265553916 1.2677373953099083 0.20190204638756196 -1.2420976232243703 -0.15446133640709528
Ni 8.643950121416596 3.521032073269985 5.427616410705083 -0.4856536192527636 0.16555487521709553 -0.6007346540900235
Ni 5.0302758708886595 5.40954424491771 5.3810065672379 0.8155521229876729 0.003168884646284865 1.8117414694468603
Ni 0.7886255574969931 2.7651144796738234 11.809722119561112 1.528058287925749 0.2211860914281545 0.9363050113987295
P 3.199662746286463 8.090901311586094 4.860923934769319 0.07288948907087447 1.1541314423260318 0.40300396547133166
Ni 8.269910801348658 6.637224310396664 1.8161096724562495 0.7482630108227113 -1.4514013613926422 2.3849853743157827
P 7.346024888566229 5.52715631171032 5.642028909525073 -0.06836691861017258 0.11817869992597711 -0.2985845241129761
Ni 1.2414144302192927 4.714959289552161 6.217553396425597 1.6762975546825323 0.28277738187739043 0.508606114283879
P 9.24692020039089 7.234113878835647 7.774942435833841 -0.746968460381004 -0.4516266115750416 -0.03948263147565458
P 2.833277280423554 2.0676882507400234 12.867116423177935 -0.19743115510040193 -0.4918828879919271 -1.1226274581804796
P 9.22369024385568 0.7826153846786802 11.991530310063217 -0.443571602481049 -0.956247001738295 0.05605082024698088
Ni 5.705860387701705 2.648955442035009 4.826964699902926 -1.0511405058840866 -1.6620724122220858 0.18743547734027075
Ni 3.1849103356421904 6.722120083821956 6.795435122341865 0.03934096369146773 -1.6354442681115964 -1.474458500322422
Ni 0.7729069287402596 0.695048628999977 9.027285126083722 0.7769182126655587 0.5611985436686141 0.9799019221530736
Ni 7.494335666843817 1.35297375136488 3.519939062167671 0.1245079845781146 -0.33572076684364116 1.6564573800281537
Ni 4.4459082670680585 2.499793207183223 2.614052200966787 -0.41047173460328656 1.193233807644132 0.07026310719162092
Ni 1.6072168334281312 2.48616990199604 5.336265300752576 -0.1146460041823703 1.7050777121390184 1.032174249194229
Ni 5.3748288795935775 0.20160640684478312 5.486946274993776 0.655880960244864 -0.18399302731762504 -1.3048795915475977
Ni 3.6391624179773254 5.262408846911027 10.172224898964892 0.33330033032760664 -0.24490374676006857 0.22997592180564266
Ni 0.49539964677957504 5.081326245489545 12.892446330764075 1.3506398285018482 -0.37223197439579764 2.675185531019806
Ni 7.496112619694319 6.7970482623514625 9.044690934552156 -0.3955490518551833 -0.19138597734758653 -0.16677306389491278
Ni 8.574473115954515 4.654033869683121 7.538870547659526 -1.088005497231236 0.7372494333210271 0.6296335965125608
Ni 1.342247249522526 0.6242435363814008 0.36805506114536046 0.1104075406209905 0.8178131511077077 -1.6858142359237158
Ni 6.029941418774794 3.5475012667722563 7.0227842081120215 0.2241875972586397 0.6379524007909013 0.14366013202653322
Ni 3.2731008758111217 4.132618522576664 7.640489113301341 0.06556210217152579 -0.29034902357706127 0.1307223409189426
Ni 4.212988619210833 7.313271575347859 1.8015886358810522 0.45548558030981556 -0.8511783568317147 0.2611400061132728
Ni 7.009690286794885 3.906112563914219 3.623725140088588 0.1256528968158352 1.5857222182961206 -0.2938693780254939
Ni 6.845951485591323 7.924746965101381 11.45463788872814 1.0085473538039083 0.7375044867546267 -0.610833175976606
Ni 0.6019603625368488 7.650096690145645 3.6206506414587087 0.2445422496555917 0.06406134925628322 -1.469609913980869
Ni 8.621914055077816 2.0541852600687602 0.14396927524544895 -0.5413709674197257 0.9496688343001453 0.44840784752742774
Ni 4.663372127111021 3.000625517104698 0.17301505038094847 1.1104489138364166 1.272378533596099 -0.3614667654594936
Ni 0.23543514673621757 5.45316288441988 4.30952435930319 -0.9898317796722758 0.7957525717632424 -0.757615912792521
Ni 0.8170734620380008 0.5593218235912842 4.516839227180212 -0.8546094940004507 -1.4480121332054352 0.3279614346131965
Ni 7.9799898378339185 2.868686767954914 11.044437578152486 -1.7630987687384925 -0.4321723595051718 -0.37033938535877514
Ni 1.2299197664676071 7.151476316324534 5.835825978790409 -1.4344598484422972 0.7063977380474931 -0.3739448433218463
Ni 2.979422397414592 8.336176334731967 0.12986471199458824 0.47237798518977997 -1.0773511028411833 -1.5002430654856937
P 8.469716192439755 4.405639924086107 1.2287730765812674 -2.169999241050753 0.8473271014064245 -2.6473129729792535
Ni 4.95799461170938 5.886221102027672 7.709625536133743 1.8092562411311615 -0.29296974902935996 1.854083424748181
P 4.652488290901695 4.444945750940703 3.4275856397479276 1.0670378938406333 0.7888990391765187 1.3824096647142772
Ni 1.9648378495544492 6.93830675900362 11.921079682518464 0.3475411565173369 -1.3174638559705116 -0.48671445641711014
P 7.45552035301566 1.82692964942251 5.785897305676405 -0.30789860242505035 -1.7287794266313325 0.977607726802258
P 6.481592856573518 7.737593108107349 1.9329942991756852 -1.5455381898780673 0.6199639346332807 0.3217319087637169
P 2.3349438104480975 2.246993899311005 8.324080098400685 0.027721377174668382 0.4748367311429177 -1.0409671648955103
Ni 2.9510929563969506 6.168108757864099 3.8651075258963297 1.2367831529899926 3.328357576973939 0.5022135804939738
Ni 2.2120749248060854 4.258448996302846 3.657629770674679 -2.485900916285938 -3.3813791234762927 -1.3387518188150107
Ni 3.4349609195737876 0.6664998453648522 9.20310628117442 0.024688503885615543 -0.40677834491209947 0.15609141581135053
Ni 2.1831624211343734 0.49955882704528165 6.7311344175531485 0.09772608849858008 1.9918418465782985 -2.044490068901634
Ni 3.3948036361449923 1.2880224226939216 4.374800537167132 0.9751317544579401 -1.6157532174405722 2.06372937674722
Ni 5.45447708913223 3.349824517116657 11.489125581968304 -0.18546344121556446 0.2690960277355559 -0.6943336077941075
Ni 0.8561506913123507 7.578481788285304 0.9208289985817996 2.3348496340016562 -0.4870139899353999 2.405886386134508
Ni 9.075638604535458 7.847292181737567 12.686702955564218 -0.9099519753264974 0.7307777095537544 -3.6018473629018164
Ni 0.06526969939000664 0.6986228956190599 2.1742952413111123 1.1613518713338706 1.3442542366904784 2.5358222265964137
Ni 4.610072796558719 7.394354304114782 11.652497886646447 -1.2285476524540777 0.31885201611276054 -0.16789792152797536
Ni 8.444320574617997 5.450821378840832 11.342913829245372 -3.168036953572589 1.5146885514870623 -3.1800666310436134
Ni 3.6295927864803503 3.6045303473180597 5.177862911078178 0.2349108972134148 -0.27323550382522616 1.9479415456509228
Ni 6.442324049569973 0.36849837386170964 7.735904077403096 -2.5180965271818763 1.585427055653205 -3.4410012060142994
Ni 0.24580718350474748 2.176202689136573 7.201395734475776 -0.15185758023566104 -0.484788700149307 -0.5642784681455185
Ni 5.363815473905569 8.337842228029313 9.297790103217896 0.8709524541348483 -0.21230267289559568 1.5429568023041362
Ni 2.123976934264784 0.019517790970958113 11.332009632117966 -1.3824166066928127 0.561500134069433 0.018481603743955268
Ni 4.760641785750487 2.6600984172017 9.204488047114943 1.0518223624424594 -0.004118135933431618 -0.15309762329034923
Ni 4.895320003878128 5.554273352606004 12.914810022784668 0.44932187470126483 -1.4741949622483903 0.7012447330916439
Ni 6.549505773328646 7.544182896285507 6.5232772088582145 -0.5299429280884422 -1.383365086649011 0.394212849542263
Ni 1.9223575704721327 8.173113145810106 8.046043432569954 -0.43342680073756323 -0.9145635059565798 1.2796622117417058
Ni 3.186826112934138 7.597010223736893 9.84784863457966 -0.3923554846185501 -0.02663945696439928 -0.3722517718901395
Ni 5.7830190122571015 6.398131602376496 3.543115339918856 0.15018224941576716 0.8597745831411581 -0.8129388537345419
Ni 6.5120694489521815 1.9766842018911301 1.5809854924688695 0.07500833518609017 -0.09122145461084288 -1.126429348425073
Ni 4.315792745582592 8.550947000610886 7.287139262490162 -0.004536711528088961 0.2676011883575843 0.10909653511905082
Ni 6.066637346130216 4.947008970909661 1.6744633928643213 0.690785742541849 -0.26919938608263966 -1.080127894255372
P 1.0885594652250568 5.092867184055045 10.550416920824603 1.7717795843419422 -0.3519696246023358 0.11724461814748195
Ni 6.604221113183691 4.448471891753418 9.271335717656045 -0.2988634888059756 0.6040554909331404 0.8759859027936977
P 6.318307548545345 1.043200892723437 10.25384996854973 -0.9053959805246987 0.8012197655254009 0.40026059839823974
Ni 1.1123169546377598 5.146620007782734 1.7298238036239497 0.8707621925009134 2.3839931856058425 0.015454129771541125
P 2.92377230632048 6.086951989395071 0.2179349376476004 -1.2864861766420748 1.569333235415136 -0.042522703853559024
P 1.8576561257957762 1.9894375405785885 3.2732332217786335 -1.55890021300727 0.30983258622296966 -2.608857754326849
P 6.07290295592079 5.9062395864841095 10.952720897170838 0.25667399992211926 -0.8686567161221364 -0.27845664301484946
Ni 4.284409166853151 1.835333155611343 6.830423509067508 -0.577503965696857 0.28351965936005363 0.5783984524866684
