# total energy = -340894.2228606601 ev
CRYSTAL
PRIMVEC
9.05147238694771 0.00000000000000 0.00000000000000
0.00000000000000 9.05147238694771 0.00000000000000
0.00000000000000 0.00000000000000 13.24774477515202
PRIMCOORD
 96 1
Ni 6.384790983089384 2.0652020526089085 11.430856521697516 0.3565166205430698 0.048275032956303955 0.6131613098891504
Ni 4.678018187242163 0.35414338456600947 6.0491985912689765 -0.09983362175988612 -1.4852761597632163 -0.8262252864308027
Ni 2.9733543844711687 1.7299536167408462 4.926518216486867 -0.08042127867154536 -0.7925428065766932 -1.0637044585920263
Ni 3.230696797132891 4.371490073394982 4.868334446558592 0.7453586926917227 -0.25412192292422686 0.056995700658753444
Ni 5.0579627939703276 4.362492909799408 2.899520618711155 0.10759603931412437 0.9795977606490937 -0.5557033248819978
Ni 7.35714540889873 6.150593185431568 2.5570663056414475 -0.34983895141257815 -0.24518348278401644 -0.19118774529385135
Ni 4.88172157428279 4.842085176511144 11.334783288176613 0.3792084057136308 -0.2961574027287222 1.1057903320184828
Ni 5.4910304923910696 7.8846923765454235 12.368730268431433 0.09876352862415894 0.46004157511161414 0.5841888339162004
Ni 1.861697797961745 6.337044466020319 0.37911458670631965 -0.12811035721739225 0.6103415810521682 0.22398936520490456
Ni 2.653647326765682 1.5160492202714355 0.30129183704633733 -0.22096883321102592 0.3134490999296344 0.32042527413715133
Ni 0.6486819180322086 9.131487446437054 4.762710099329389 0.3325243713935305 0.48769970314851485 -0.3119830569070691
Ni 8.487620006590445 2.2656469095746794 1.492398627958685 0.6134778126883048 0.5727631085777619 -0.47960689883805147
Ni 6.790170227346283 0.7947011764227038 4.639015392540628 0.08047218651413882 -0.8831155718599436 1.2407182263783407
Ni 0.823779936751818 7.416821766630739 2.3944638446116664 -0.9766422775651954 -1.2464530719795888 0.7149703102078525
Ni 7.475402896198698 3.5552101866987895 3.7590475355313826 0.6981105583380365 0.7849300272264417 -0.3482978321777034
Ni 7.6026756500391 3.907991324664061 12.747893733088876 0.045197936692877 -0.3470549609095378 -0.09159863544460353
Ni 8.038811797613665 8.656973055758636 6.875751899173394 -0.08473224734207342 2.2870628535356805 0.7012115658608633
Ni 6.716418829985384 0.5503892634714319 0.3680817469612043 0.03130600920213319 1.5588616464598508 -0.5716130541337188
Ni 1.8385622344302701 6.57206594766928 9.31063418877467 0.26059338958118344 0.5055534435004843 -1.0476836576837376
Ni 0.13536205475123134 4.785432010570807 1.3851441105448123 -0.5141892647986113 -0.3488231085535541 0.46126002089974755
Ni 6.295869317935547 1.9846348965081033 6.953992826859649 1.6347014764083008 0.1440041456295133 -0.3560283680527417
Ni 3.4386543762156903 4.282695128855166 0.35964034377284226 -1.2649698998368537 1.0126847730110495 -0.19457748770169073
Ni 6.192021774744384 5.728160967116257 4.700909361018024 -0.25234683330167507 0.11520316223742094 1.0883711081007708
Ni 5.543058355919597 2.6405045887970977 9.114223573071019 -0.18943810959259633 1.7272719888478705 1.1772446313047273
P 0.14793998084017398 5.443202512070133 12.496279997328198 0.04989071418285602 0.3157954886746239 0.5811333349193282
P 3.864996830620827 6.41440740088085 12.745615477478205 0.11263668706182538 -1.7957139836703526 -1.3455896676724501
P 2.302477350892978 8.46972524559603 1.329345403601882 1.2969194561602568 0.40512589691034095 -0.674578022433735
P 6.421711939131985 7.748359098802438 5.928392209332676 -2.260265016616546 0.4849928457403131 -1.981025986909717
P 4.614811755262394 1.2130330777271536 12.690531836857257 0.909015579555157 -0.5977655441593706 -0.6769426660111697
P 3.9640923507861583 6.194257488434632 8.424651628335589 0.6247166188269176 -0.005731246056822388 -0.11829979888487369
P 4.771356970941917 1.0773696089439981 3.782575932966326 -0.5901527648091192 -0.2510417413370064 0.9041757349643524
P 0.14399444400786965 5.686442730685674 3.6341209233448764 0.7227296424382972 -0.8154837316435827 -0.7465467994625531
Ni 1.5872571538794609 1.057085259228022 2.5481641825063903 -1.1810529493072242 0.8649841523665553 -0.1531055937101492
Ni 1.937096563304932 6.489950989782919 4.708844786897541 -0.9796766935161451 -0.6477670728884779 -0.28020062228914966
Ni 6.103145366952696 5.775246726697921 9.509085911511324 -0.6690756045582671 -0.23853229601608594 -1.8578374924739745
Ni 8.887450698247658 2.2450729127409383 10.019243190325204 -0.7464133592084822 1.1816584441017068 0.02412620362424232
Ni 2.410479519929581 5.245020523211901 7.170222546596366 -0.6542776203134861 -0.5857260964963331 -0.39827673519899154
Ni 0.5270292234236892 -0.04174177025890044 9.195391746941189 0.7754431707819289 0.5244734203334387 -0.26704634429537877
Ni 1.3359611248010819 1.1038361143297701 11.377574124090168 -0.22906575128654744 0.07726910619580886 1.0202612998067266
Ni 4.0012667480568025 6.960147828112154 1.593478230880706 0.02340758029066291 0.31522547510376675 0.6640745517992499
Ni 5.883475182545277 8.082711438899914 8.155219163948908 -1.39153656671621 -0.3583559877446538 -0.8531691620094983
Ni 5.320220156161624 3.0696801540728726 4.927923005008028 -0.08946667670326527 -0.46654492344777065 0.2162737417282017
Ni 0.6902227456031595 7.281303121406465 6.709757851424034 1.747087995132533 -0.42669899509542647 0.570174007694347
Ni 5.138720030992166 4.690654042754659 7.219438117640846 1.006749124252905 0.2362679254619415 -0.23621778895029638
Ni 8.220112790389658 7.209932261294698 9.259961330668938 -0.002572902933498795 -1.0198625217064112 -0.09383626652587065
Ni 4.697180154376801 0.5791240678482004 10.451172213514232 -0.08243882332220641 -0.830370418947428 -0.1682805016783747
Ni 8.236486904015809 7.344382832772212 4.7588152507426935 -0.4333812922116084 -0.46569183141885606 -0.7879675285011849
Ni 7.340291567233782 6.274245350299907 7.070069814451193 0.3484742098545676 -2.0721777646248896 0.4818525003391186
Ni 2.309148286074002 4.933686077504308 2.6342608831147767 0.621422264346362 1.2559859511706886 -0.24180942410546097
Ni 2.356749979584184 5.4660031711216925 11.330941843277257 0.7784739871884528 -1.541918590847609 0.5988999148741299
Ni 1.138693334658295 3.1689838581040974 3.7259019486394003 -0.9283916700889236 0.16195584501192753 0.6361045489488851
Ni 3.651852757835549 2.587281930907789 2.5762490911626736 -0.6948527135223711 0.033312755219516814 -0.1726349219923285
Ni 1.1990485528225652 3.134914115876996 8.070578845254534 -0.7958944966577455 0.6639560239435146 0.15551008938658378
Ni 3.781741387208266 2.8054043135296522 7.060557622074344 -0.7407255647950856 -0.3272189000202171 0.1402649903020552
Ni 3.9909480694864268 6.573351256754362 5.923622988509228 1.1483269198291126 1.1639160325166213 0.896267021640237
Ni 0.7087846001156773 7.134289106195896 11.381415568989526 -0.6245968054196018 1.9446585040242765 -0.09177989821747419
P 0.3450991533137991 5.554852424496089 7.951309403336875 -0.5700061146579151 -0.3646356501057785 1.0936012461514586
P 8.505025988073632 1.4606904148886106 7.887495617557043 0.5607087485163892 1.1445569112637193 0.1975435123085501
P 1.8486184203001719 3.3681343545123568 10.440892456275307 -0.540569811674669 -0.07629774342147505 -1.014283484956737
P 4.058535414122391 6.16484020303663 3.769751806827283 -0.303924962489283 -0.3810025214995761 -0.6248521159635174
P 7.0499474860917175 3.932375991390897 10.520564421752768 -0.726276222138975 0.7929919782989697 -0.7547290781630293
P 6.414624636219173 7.922400810689448 10.253012853337076 -0.6958204767522791 -0.7703662704796539 0.9412459003437725
P 2.503130391724643 8.337646159895215 5.790602549675677 0.10953362265646942 0.5343837374686151 0.3804376501350416
P 6.811314466943124 3.981253942513731 1.6325199469136915 0.9569057183682165 0.09666525133423352 0.3906030207038176
Ni 5.247971303224131 3.0422089352473534 0.49580254868689927 0.6575256949371385 -1.1933101694080224 -0.37822418742349057
Ni 1.657161675457544 0.9479154502479288 6.947647744686111 -0.7325054908781384 0.3585519058055438 0.2142315144871923
Ni 7.004527197437201 0.7764343999114091 9.341912456904314 0.5661054940519282 -0.14126257832863415 -0.10516943215050274
Ni 2.7611969221807775 1.6930417121706764 9.347528895547224 -0.037740451973567256 -0.9222323353557471 -0.861910141426922
Ni 6.286410529246035 1.7843529660460749 2.467498365356097 0.9243650654280338 1.3958040837433123 0.1290927757353196
Ni 4.0969770175332565 7.131510304159839 10.538222939316757 0.15351928420880012 -0.0548449728643378 -1.1343951402393688
Ni 8.134947486294335 7.007903396653649 13.567280085123096 -0.4798624664922832 0.2509512385057291 0.7217497950235311
Ni 7.664089890477699 3.9250624016673323 8.204301678348665 0.3186555838312383 0.02961859419738125 0.08846163247751862
Ni 3.037990949094902 8.524323727294721 12.353641463890364 0.015770118350063162 -0.48015043004634733 0.5692288701722584
Ni 0.14389578295838096 4.813247185348671 10.429154506827881 -0.878949613407712 -0.2756402566119769 -1.1928072616296748
Ni 8.659688497487682 2.3882762580584127 5.736591508537702 0.4728762649824372 -0.6685863236266743 0.6835619710999001
Ni 3.6017347549897836 2.7794175361826787 11.430948846716305 0.8948506009086846 -0.25529640284830224 0.9192218306641976
Ni 1.1694321350310997 3.4060962298844246 12.575713003933505 -0.7890399356297573 -0.042861061029584244 0.172286023293342
Ni 3.2501936687474435 8.444163887453273 8.081919435062275 -0.09322562952506526 -0.9710138756348243 0.18190066356497062
Ni 5.4891477861255975 7.850088597444944 3.5001998630045255 0.267740542148926 0.5765012354639556 0.4466013904463083
Ni 2.769451865037078 8.314791192009075 3.5000677115070453 2.0095107246129715 0.3400309641832208 0.5832418966218987
Ni 3.6550298246585333 4.15634562520264 9.318715343360314 -0.538230364908215 0.7086680221389086 -0.25388718120560144
Ni 7.066403062969738 6.1632924012510735 11.598029976304527 0.9099470902304909 -0.5457919793055568 -0.1945425206986972
Ni 0.516698777939154 8.85348957368972 0.25120370405959147 -0.17824378353867365 0.9774130942929489 -0.29944481523074234
Ni 4.582479895741883 0.45809954542633374 1.6538877578795572 -1.1281280762837345 -1.2776603508203286 -0.6454808479574625
Ni 5.774595020682949 5.5863153426633065 0.5149373614042458 0.1352369409598445 0.5410781187696553 -0.3007123690892563
Ni 7.8270073427480495 -0.29064187458501756 11.648424049059411 0.9034473414387602 0.2218697477587405 -0.6609761153795842
Ni -0.006812138150934267 4.82779290154393 5.651964767051973 1.3210430886813378 0.6109432191919091 0.3947216708578815
Ni 8.007113541163264 8.773646535383326 2.3384524280666272 -0.5829770729962863 0.47470740465390504 0.6543007602419376
P 8.49907011921459 1.5693533414126155 3.574214658213142 0.6425952988795515 -0.5669855826640363 -0.02794223493622285
P 1.7342440146727396 3.1389148666911244 1.480965713132157 0.2562649374091586 -0.11491391313177628 0.5370445721302299
P 4.621301660994815 1.0672681657119458 8.07899128373112 0.04102760736527128 -0.1511124745395204 0.8196743726861625
P 8.361931260425319 1.7263601821860752 12.559365139577402 0.7542971328319331 -0.6458109776033717 -0.7716446229714453
P 6.182309544826828 7.822400143281101 1.3251590976029355 0.3432708112767572 -1.5637999643017326 0.9961716058473747
P 1.823029907740125 3.206972887893456 5.998459657414502 -0.6462817465922032 -0.1028595530704035 0.048489720070271324
P 7.116493911398212 4.031190915910893 5.96384320625262 -2.40610672967543 -0.11220936971641965 0.617825291023723
P 2.4232511475285294 8.652999459361798 10.254059203550002 -0.18110079337149454 -0.2680778708836867 -0.5543259849184968
