# total energy = -340853.7138888849 ev
CRYSTAL
PRIMVEC
9.41264322982636 0.00000000000000 0.00000000000000
0.00000000000000 9.41264322982636 0.00000000000000
0.00000000000000 0.00000000000000 13.77635481140560
PRIMCOORD
 96 1
Ni 0.9369250997800513 8.187992503671609 11.923352927447358 -0.3674456087507478 -1.4420700566893874 -0.08343795401068212
Ni 8.31259707545642 8.23186483401524 0.5301859582205061 -1.5843096542193102 -1.4206782212771727 0.6278001428482478
Ni 1.9541965226266647 9.573034724884753 10.155474031028374 -1.8677907470319446 -1.0258382796738719 1.328551481243241
Ni 8.119882616873383 3.970525903566635 11.41008713679298 -0.5283904959996577 -1.4472467157943205 0.6274059927336227
Ni 1.820264021348067 3.2199429028668 0.8738302693231887 0.5507801765487675 1.1978749059605693 0.581195041395199
Ni 7.591908629824462 5.91707935984723 13.051305740134072 0.6823566379378894 0.19610498008981067 -0.03343411128872952
Ni 5.689999340636732 6.760753402619264 11.86016020550035 -1.3420202051536372 -1.1517038067211456 1.1688476654902837
Ni 2.170668492856842 8.608210550412892 4.0153394982386015 1.3805749254983837 1.1652998002380255 -1.0318991411559713
Ni 6.1725290859137045 2.6339023194029743 3.130084162498098 -0.5388919097516138 -0.649670717669094 -3.1697721910961407
Ni 9.491238854752558 8.37778904283681 3.617643083081357 -2.2492254709729327 0.05278603345278006 -0.46700797912711833
Ni 6.550700855108323 2.8015414962792007 5.202254990980792 1.4015227313946443 0.42413817634678563 3.680478639552474
Ni 0.33465241297411125 5.7730565049688956 0.9606468433827166 -0.9413664850820368 -1.1830434973746915 0.2282283429869166
Ni 5.650343874484035 6.584464006565652 9.112493855581983 -0.756956167721335 1.7330253463918799 -0.035742704817248123
Ni 3.421589959925722 3.5522468613417186 6.5655492998877865 -0.8707148842027456 -0.8511896696856244 -0.9829743904308103
Ni 1.5505917912804705 8.89315008788606 6.210945848210315 -0.5574809856077109 0.6447336853787928 0.31463977780362584
Ni 3.977519497526154 1.324189482386373 2.8917259141055065 2.782306430469725 1.8193961577786406 -0.6485522877939347
Ni 7.5119293998459495 4.4286110142367825 2.5700205919676247 0.4124075181734188 0.778864280648336 0.39794789110466305
Ni 4.884672406601011 5.071372186125995 13.659834069666116 -0.3062952624936725 1.5960045740587352 1.411453617355111
Ni 6.9662972939974885 9.43711615587337 12.962737473159514 -1.7851040693649902 -1.4338384128082144 -0.714891377340801
Ni 0.28313701628440946 0.9395634636923706 0.8017604834956646 0.924863088110375 -2.1242397754274513 0.7404005773554991
Ni 1.9967040196942134 2.931511274735514 12.454651460103955 -0.06940770116986111 0.7648551108534376 -2.08947486114244
Ni 5.1188683841337115 5.478186628831807 4.998612453545802 0.22155067385642488 -0.9737029924312133 0.32765650177826794
Ni 4.644650002875926 6.424599673041461 2.8521184524335537 1.4236851264242962 -1.0948813984154628 -1.877759428208882
Ni 6.135283256441541 8.483276536113163 10.71844516706907 -0.3973457387442899 1.6484435085847415 -1.4199881371886836
P 7.180990274647114 6.118858193912119 1.3820574720279988 -0.09028505883950258 0.9579866101372212 0.5001914078576224
P 1.5349479781435649 6.910875650345202 9.763481677700833 0.14200177048750381 0.7282143197019523 0.5896151471380943
P 8.891822905183108 8.233775600601758 6.457556160969409 -1.2888991569589414 -1.1795928198219297 -4.115732723306763
P 0.2891074559190299 4.231858531685195 12.941122279123661 -0.5646895875410081 0.46704757411580206 0.7370324322142146
P 4.605512232103812 3.4077910248723504 1.6355700761067626 0.21760788715859297 0.3396324431932215 -1.2243181877537623
P 1.5160756283604748 3.0553157718412414 8.9102434480886 -0.34719508603182786 0.8552278443107401 0.41210489933133543
P 4.525062369961133 2.818371302469807 4.585597902709257 -2.1008766752214787 2.4381804702815235 0.18498033093155883
P 1.3615200256480864 0.8005067194103243 12.375836574099592 0.8977492626127184 -1.2615300209173694 -0.5766115357895747
Ni 9.050265929571516 1.926918682391555 12.59756738813217 -1.802292665329135 1.8671867948993586 2.1632521521349064
Ni 6.839066594736626 1.4453396140861996 9.936017311613051 -0.5759255654661436 -1.248785062546875 -0.5280266849023358
Ni 5.070129717212594 1.255091268043398 0.8289865541927162 1.1349597544935874 -0.41290965462081786 -0.5216783740868047
Ni 8.276593714897656 1.0288207361552675 6.118354617496461 1.1073504774167509 0.5164924590104911 0.34253984664800363
Ni 8.386683990739561 2.066734085722238 8.260026521454655 0.17879040007076305 0.8114769244770348 -0.9431042937087499
Ni 7.119064494486042 3.776286596771699 0.15769283671872464 -0.5578070014885619 -0.14581445936537468 0.20687867366654691
Ni 4.119264492729921 9.029915794792943 12.945461507677278 -0.34897660341228287 -0.4008540090078645 0.37041986088772333
Ni 6.258899500681602 6.726453730494786 6.732132378187623 0.06409657336959283 0.12387986407581246 -0.09257488331494379
Ni 6.384934794245481 8.929351113953773 5.8345342433096805 0.531874083672884 0.6013404059948224 -1.327171570176579
Ni 3.7833837298073347 8.594364552143103 2.182629138676978 0.4752113408735171 -1.4630047499595256 -1.148077522822468
Ni 0.08450859392645352 5.717578385456909 11.299421748446461 0.776704811103172 2.4365442202296808 -0.7357913607182619
Ni 6.254447320408584 3.513363231938255 9.12210981196024 -0.25178530437125024 1.6387095691264293 0.2902749758060162
Ni 1.4972879923669347 1.060089537142512 8.179407231732876 0.2783946794286625 1.4960118010131656 -1.9791861054875008
Ni 4.622605592306351 5.139745626936152 7.56881188573581 -0.055247864729711306 0.26244715496047055 -0.8096401283786121
Ni 2.078754031195059 5.691354761269533 12.951164628242653 0.23751748159832645 -0.6640745517992499 -1.0035288175433943
Ni 3.449394908184699 7.804982635829354 10.628953519788418 0.5412197865538421 -1.3859467313332583 1.000327022776645
Ni 2.5287536812848197 1.5100044734427227 4.606028044955739 -1.8669247994872233 1.033620494722452 1.6299616477304701
Ni 1.0057503474678093 8.08119665297887 0.7309868186482561 3.1235131601286015 -0.23770182969499065 0.3558345068743807
Ni 2.820865652939891 3.622888749183161 2.9213860943556282 3.580753004125362 -2.3933406882590136 2.418874827974376
Ni 6.666994062873948 9.756581268909818 2.3190569316899885 0.5326793531829987 -0.8763016342619038 -0.20101141625249253
Ni 0.28230682114681915 1.5152002525351247 3.473514806598249 0.2220371265745402 -0.3526669077796765 -0.22043430086379454
Ni 5.829880632470399 7.777375353079329 0.8095946265003858 -0.703450225383395 -0.5792859972979444 0.017319208004737914
Ni 7.1673325292429935 8.79717877696916 7.799717203176656 0.6275288914647321 0.27689624050626505 3.051059987264197
Ni 4.232263275346378 2.8977575359214685 13.203919514537109 0.45671559606217477 0.06803087542699252 -0.7027187465340091
P 7.348262358435292 5.1610182007564935 5.543728746542337 0.6706074678217613 -0.09505625497590081 -0.6359816502177756
P 5.008768695648523 8.579191371170364 8.00253331053137 -0.21304777859173632 0.07378988939795678 -0.45980220540729844
P 1.0951892839460746 2.348379198046239 6.1585541344309345 -0.22449947207210372 -0.6947624678014099 0.24899771432378412
P 8.709707082937111 0.3809663829854411 9.458183534070136 -0.9653083406096149 2.6163982856782684 2.5266608718121195
P 3.6403868530468837 7.060941422211439 -0.41062185691392167 1.0357668516414937 -1.1756132663488916 0.6224856726138699
P 7.73726808004903 0.7079747883491545 4.139036691210898 -0.5991009751413424 -0.058698285172156965 -1.2003611627175328
P 5.274675868402785 0.7495174894801611 11.67792672521331 1.2587576003785548 1.150231078830361 1.388183848193893
P 1.5460925477910354 6.858475465186866 2.545608901612291 -0.019702877745566068 0.9114856383622044 0.7757596735810833
Ni 8.14983364780096 7.8130586837664575 9.851581195039879 0.2508000576398455 -2.1205607839139677 1.0703728717511374
Ni 4.036357930690292 0.7191315944328935 10.203884196698903 0.03695960794348473 0.49470647348365127 -3.100827288495311
Ni 3.731783619328083 3.123209167843949 9.275550957707882 -0.7013385783570308 -1.5291108975599794 -0.08669657015729584
Ni 3.1126105315069115 6.625437242778017 4.393555506856651 -1.1864484092911824 -1.3663742085179695 1.1062492739327723
Ni 8.852007424094595 3.5920435171436664 4.495182875122509 -2.3998962299893445 -0.7830688056479869 -2.2737103434881747
Ni 1.4835267078866965 4.147267106497848 4.9254875104062155 3.3603431287416 0.56880438104033 1.1335325351287575
Ni 8.610215443432242 6.462137294455408 7.739528996965688 -0.729981181794388 -1.1896548320436222 -0.18799057851279236
Ni 5.678073521596745 8.051782142718443 3.96954604740084 -2.1517516076944747 1.6241188157964481 -0.971662307852101
Ni 6.764377270283349 2.0815495862502105 12.069009817199682 -0.47338174386394605 2.9355248956086544 0.755588597949847
Ni 2.966272166380876 5.37621946414342 1.4880946636720997 -0.103460419879196 1.408874029553393 -0.5824176009483905
Ni 3.8476061949295413 5.204994070176243 9.72120196660074 -0.45767744575481173 3.184038471207168 0.09896536022231989
Ni 3.835887454041787 8.43313538534283 5.80973663457973 0.27376540818676726 -1.746550120351192 1.480360981849786
Ni 9.111193969544555 2.9589303046198734 1.3779243803622854 -1.908258625239004 2.3608026064219922 1.1273528886806068
Ni 9.460647764081713 6.133297188708758 4.676315076145398 0.23349216248901722 0.009424892858325705 0.23492452406016961
Ni 8.69072178143462 4.1949515573712315 9.233450086830173 1.890950987198492 -0.23458642399446053 -1.3061301761252473
Ni 0.5199817116370408 1.9676471898785528 10.672707250826681 -0.1571774497866777 0.7422857101933539 -3.960078395032832
Ni 4.70441087508183 0.8393639934125949 5.045121265273098 1.5409742246564686 -0.09727306012156152 0.6387643551692354
Ni 2.937083559559249 8.139667993054958 8.33187040384338 -0.5057185083234387 -0.3514052674584335 -0.7450038804554654
Ni 9.255037984200506 4.24459383804755 6.548397581296891 -0.4173293809550684 0.39430180971164347 2.942849711404841
Ni 0.19440967563836445 8.574560350674963 8.227239461105809 4.174974539687216 -1.8801634096646846 1.4612592280233285
Ni 2.7060502301697498 1.2423088984646269 0.1883422857779256 0.5966705113229789 -1.2730197667245238 0.24301552859842018
Ni 5.885659956567452 4.391082805466119 11.761232383328153 -0.17337154304803692 -0.3532459202115981 -1.5649230221625823
Ni 4.102124069310965 1.3832349937027442 7.758994343275629 0.08136281664920827 -1.572484636559924 -0.5282853378803611
Ni 7.432411389388322 6.928674958793991 3.688178608053698 0.7122251433625476 -1.7049442718849475 -0.6347305514194939
P 7.265195781459845 5.581631578515677 9.829167808853597 0.9097429446394847 -0.4863020514700399 0.6959405472699111
P 2.6276617369061217 5.896051514752256 6.556070768101467 1.1705422795838873 -0.37398032454547203 -0.7258579036546338
P 6.079278028905688 2.1821425050192294 7.480216322095733 0.9282039795581498 0.1188250752607244 -0.5541943444366391
P 7.952092837704623 7.814611769908208 12.026385603355418 1.0565105119467482 -0.8773694134047857 0.3635092498108191
P 2.2190212414033423 0.6847999193212513 2.1875472447925213 -3.7076631703870664 -0.6864701458856306 0.5985875258400336
P 3.6601439912986073 4.352961600168605 11.538523595658438 -0.2493784947019705 -0.9763517429079701 1.7060025379461328
P 1.059110622241045 4.499262314721507 2.9010246644051145 -3.6972594585552385 0.7066399359652862 -1.3966893145617432
P 7.4369106328777566 1.6051286464641232 0.3842372765264006 0.6694486716269696 0.7862551737957685 2.675248523047257
