# total energy = -340890.5105410855 ev
CRYSTAL
PRIMVEC
9.07570729943899 0.00000000000000 0.00000000000000

0.00000000000000 9.07570729943899 0.00000000000000

0.00000000000000 0.00000000000000 13.28321501928417

PRIMCOORD
 96 1
Ni 6.519679448813704 1.8663102687142106 11.049947552153135 1.507891326059571 1.1933883309441253 1.7466917881353787
Ni 4.820852280007353 0.30863122035312573 5.814301874873715 0.36035347779065685 0.9489584384966818 -0.5308700678884019
Ni 2.9128209854842964 1.714491839362382 4.791826353372189 0.03481762189981746 -0.2251162797204962 -0.001732923530706693
Ni 3.6203540398744924 4.636225169276587 4.706229728875008 -0.603060988230355 -0.416938830384869 0.6893194424089676
Ni 3.643987181315918 2.812307528700969 2.628429163810802 0.3697585731546406 0.34835773888136135 0.18503355276699746
Ni 5.108987830883838 4.779612266677923 2.593029368038037 0.4721488998981094 -0.3143826674874973 -0.24498576495091356
Ni 5.5271601139311155 4.690697563643496 11.423033537177098 -1.0146745497475687 -0.018870868762573954 -0.07603574800934002
Ni 5.858432500933214 8.098770813074465 12.428984918654661 -0.6071703824130382 -0.9334456875730633 -1.0857786647832461
Ni 1.888119193016724 6.589054154335309 13.715185061487743 -0.6554592993264131 0.5660031641461091 -1.477385701271546
Ni 3.0048758831956546 1.747037325233715 0.14372017585406213 -0.7824304007330395 0.7093509071385461 0.08081157213142857
Ni 7.9853789278328495 9.021806533949547 6.703494283753761 0.6006662627459333 0.2736155128724643 0.9885891655144264
Ni -0.34829569091979423 2.2689812439343164 1.0569731919827108 0.866176887123076 1.2687633054410148 0.09271809376102742
Ni 7.266610147980102 0.7521446929291078 4.678440821125584 -1.8622520766019022 0.5291098906641855 -1.1061855105743723
Ni 1.0915716028133564 7.440691286992382 2.5222969367254824 -0.9289927940080324 -0.023908431186481404 -0.5794970848674859
Ni 7.621452146473514 3.976294198934115 3.5298020792686264 0.41977244317892215 -0.2690284077224141 0.04947496680167608
Ni 7.662810143996008 4.065581005962049 12.519761956798066 1.607613619052573 -1.3080890996238312 -0.48941257207456357
Ni 7.958070124992124 7.147482415814147 8.801617172287875 1.2352659450145178 0.06310309910807196 -0.21632953466680163
Ni 6.985453815908707 0.7998003236490693 0.2601360867209784 -0.2562718793876941 -0.15846274425700452 -1.317820467978982
Ni 2.170627805454775 6.622180485464802 9.040197546936069 -0.11200085325003936 1.358399160732293 0.9486434783594244
Ni 0.16770636230396335 4.919704882380625 1.4004097492897019 -0.4026640656334098 -0.1320539152461726 -0.09571111495108033
Ni 6.637591036220385 2.1313662962859556 6.922481114216897 -0.6043352269570882 -0.5929868918238046 -0.9531693912542358
Ni 3.533200024028868 4.599414101040634 0.441447841626647 0.8629984893950944 0.8406090659563007 -0.9702721123727934
Ni 5.9500336132866325 5.924902980164012 4.822497705715236 -0.390451839837934 -1.0020913137659193 -2.6807010615213964
Ni 5.3636884765874315 3.175934811724066 9.204005893015344 0.31428445134673616 -0.13060664127668475 -0.3116362150906117
P 0.3226432046355437 5.7637365724386544 12.234611406006097 0.959909795301863 0.29500246318867257 0.7933514185209175
P 4.276210017702678 6.325432088494648 12.446598143537678 -1.049586016912773 0.2685753793453955 0.14886867281066618
P 2.5694779079610406 8.986674471537967 1.188223346200629 -1.3636915194794836 -2.64977377581492 -1.8293573827564105
P 6.479074734985388 7.95699919154739 5.5885137094658015 -2.1466811351501027 0.32643265667349586 0.011573820880528454
P 4.89240515524706 1.1299799955092518 12.434922246277926 0.5653454759574522 0.7548517197838226 0.1932338291896027
P 4.288725417874616 6.216641586782527 8.11061098063379 -1.4063420071601584 0.5262050583125648 -1.383450447273966
P 4.823838187662585 1.1843525570974156 3.5957924535907257 0.012435911770507615 -0.06566700318050626 0.24675057016082017
P 0.05912369428577756 5.794140191420518 3.487694428334818 0.5197101946168404 -1.0624096510400027 0.11538879588566579
Ni 0.785216569815649 0.4219550377910506 4.286161530602265 -0.11432564472847406 -1.2423578188642925 0.41963463204947726
Ni 1.7780217894737405 6.683341676007723 4.822059349059468 -0.11790719143214533 -0.27081918107424974 -0.6083294357181459
Ni 6.19236407013283 5.573173949226056 8.711398290134735 0.23109846544586005 -0.15253840835276958 1.319201921707541
Ni 8.783369555474462 2.2495229277859234 10.063270249968642 0.15412709299612812 1.0277545228599785 0.3742533757012006
Ni 2.3290715010325025 5.572620331089371 6.973966693357857 0.4096222421187978 -1.4392331014612245 -0.8470237112333928
Ni 0.36582451172623387 -0.027147255253299227 9.311081993645175 1.6467015861929706 0.2314270524298724 -1.5773939009360833
Ni 1.5663944499456475 1.2110169847298686 11.391260393984977 0.25218125425808824 0.6075555336665989 -0.5824615668124485
Ni 4.032327614932333 6.963290939027002 1.3625785715691041 0.9053098485687956 0.7318416320418945 -0.030841925081521077
Ni 5.779809649816827 7.949611565920155 7.740528147108665 -0.40392776283718174 0.07317462441146108 0.5372163218214038
Ni 5.32407301483942 2.9234214114457346 4.730139679384775 0.7692159589252947 0.18431030144772773 0.02246192854794196
Ni 0.6507027913034387 7.615217135655442 7.184984145364881 1.3739111403249629 0.19726223362270545 -0.8647892627469299
Ni 5.138129926570634 4.5942137208386615 6.7072534416589225 0.6794654324330233 1.0055016249990492 0.39358652881217376
Ni 1.21703417857613 7.670352056644942 11.092959143519959 0.8507718654219155 -0.6793520467836106 0.7202073902370757
Ni 4.927119735129337 0.4882312968886512 10.285312871032136 -1.693510576126709 -2.0609569562084054 -0.5035364130704554
Ni 8.165322973669692 7.4270868019613925 4.492369765385859 1.4639408886205496 0.2599729823883652 -0.4349576355597929
Ni 7.290606317707878 6.307362355541547 6.550245522953712 1.9652268150939316 -1.4167937986211019 2.451476158949165
Ni 2.381402028509944 5.2587460747106265 2.653415493189599 -0.3441007633772203 0.6105063887648067 -0.2722857383174472
Ni 2.440820683278382 5.514045717086699 11.39503225788016 0.2412584366979974 -0.6104143432716326 -0.07983866669519799
Ni 1.301973721875016 3.483319937484293 3.878419957792557 -0.6298781084231991 -0.4107193318377184 -0.6047630585231262
Ni 1.6774720298617778 1.3964972119335581 2.2866126202316504 -1.2119182714275127 1.5212263526055803 0.5650888798619558
Ni 1.0584815745124976 3.5470314017388263 8.311878400440152 0.6533612791468039 -0.2146171799613852 -1.4430103091154698
Ni 3.9734171997647865 2.7265511717577944 7.002498901523585 -1.3598975996546903 -0.8299533860146674 -0.21628479747179527
Ni 4.062812915278626 6.987405092947841 5.7778002882518775 0.0396240421495253 0.06018386857874797 -0.24338319635048405
Ni 0.5231564331770124 9.010207780200645 0.03876960584081427 1.008031076289122 0.2096796334504518 0.7944122556852642
P 0.29780208657128676 5.654210938446673 7.930504479638806 -0.2130475214814202 -0.5204311319432651 -0.0032149073928718825
P 8.780773903227054 1.637076057298113 7.941861819577285 -0.1346072777956456 0.11519853425173063 -0.6185984217443217
P 1.8115293003039024 3.3736490921777715 10.366951579637378 0.5962845887384698 0.037373041331819505 1.1437719534685786
P 3.959195566647001 6.4613589546114785 3.52068916171051 0.5329806864735014 0.029679015121671468 1.0467668022964232
P 7.130792190349177 3.9016011290174757 10.29847627669521 0.10302821743778386 0.3626384171700916 -0.7745160309819693
P 6.597757757500564 7.896545906162854 10.160371240860275 -1.0362918709070283 0.03517963322492651 0.8175336721940759
P 2.1334718603467895 8.621549696833673 5.638126970219909 1.0962194005005959 0.16779533451184006 1.0681007878875088
P 7.0787339340864985 3.9596765791264157 1.2459058181895946 -1.0711519160090068 -0.30110060566661045 2.022777874035523
Ni 5.098623373308527 2.890721638552703 0.5251875764391442 1.5346408262392732 0.016111560849881933 0.022828824969057457
Ni 1.790146934237851 1.2340783566202917 7.07041604847549 -0.779663893731496 0.6579185595001831 0.09830252982734039
Ni 7.033482458192894 0.6732622765879819 8.980675429106022 0.1919678179929855 0.004088311136760702 -0.06977973979729916
Ni 3.1433439473169393 1.968802229658149 9.382664818718505 -0.26582069941839387 -0.7351750672905016 -0.8681615216532726
Ni 6.679793074508646 1.8878832246305963 2.229587229440979 -1.153756061264484 0.7679013538789291 1.98842947846264
Ni 4.6232196809180754 6.700649049559488 10.299392923118246 -0.12092540943317882 1.0790233483372835 0.03897663837351352
Ni 8.131806387132372 7.065819202799575 0.20117575516405858 0.6046316751515846 0.8014660772082519 0.3348267942744621
Ni 7.652055431012871 3.7609730465924045 8.12720228089073 1.4594352874407124 0.9732484213922981 0.14849791973480878
Ni 3.363320937431096 8.621939952241501 12.257644643204328 -0.4495687006047484 -0.9946250872958611 0.006457582699885653
Ni 0.08798353547993584 4.915666192694975 10.175540377805435 0.537474717689113 -0.24815053583214036 -0.5353954665625811
Ni 8.865441175311178 2.296943497690473 5.659433100345827 0.36248672208357574 0.7595619807752984 0.4876223129433603
Ni 4.074956211457055 3.0023709880198353 11.433128446249793 -1.5874194034928855 -0.7724450073855536 0.029247841121523822
Ni 1.2601347118731072 3.6439962570230766 12.709339865783939 -0.6124977081632226 -0.29143711443491743 -1.750602693154011
Ni 3.3681855164681944 8.518004953859318 7.469550220615824 -0.6638999738945986 -0.18234546441187308 2.1339310345732865
Ni 5.498008942537161 8.1732006874835 3.523705019199368 0.46316032324625395 -0.505632890588168 -0.08785768034493256
Ni 2.929783482164029 8.551321874839147 3.267086676573127 1.5791396799825965 0.0881890955424223 1.5236804705730274
Ni 3.348110052233005 4.498374253242098 9.173388087344533 0.41552318098426505 -0.3053269850431322 0.0008865163700113765
Ni 7.431025658868297 6.082502634975973 11.357334493054795 -0.44798721505024136 1.7684019261189607 -1.1890339106301715
Ni 8.168009382988688 8.763511908211083 2.372355363614087 -0.3953019688413837 0.4109908403315502 -0.4834866935084319
Ni 4.653704981264369 0.3466575257776371 1.489965197249536 0.821654893451301 0.7701502978141059 -0.409040915694031
Ni 6.080805477737283 5.644145979207602 0.25493570651900577 -0.7557377219332017 0.6035114455042122 0.3116657827769665
Ni 8.329892771579587 8.783242495574239 11.250324645087224 -2.083086955338225 0.528157296942929 1.0841102759418877
Ni 0.1372982054685197 4.917209062911965 5.601864074696346 -0.24487057952928792 -0.07377394855835682 0.6027478278653103
Ni 7.23457290170966 6.175601239010589 2.324668875489785 -0.1731951653711727 0.37274850902089995 0.7842152605476043
P 8.577069656048563 1.722124509082904 3.291859726833693 0.30507553115395847 1.4406852605267186 -0.5955330552844259
P 1.9900393844096602 3.5809019408553393 1.379554681809575 -0.9292465618900512 -2.1312303478126715 1.2129413133753884
P 5.056838817549572 1.2557420696082648 8.193418640321083 -0.4270044421509872 -0.9860815686012243 -0.9740783734927613
P 8.616222256731477 1.7397495323852266 12.245104738623063 -0.04537997079669604 -0.6937813348350632 -0.033357492414523196
P 6.353639386344091 8.007051716527982 1.3002992539042237 0.5932581432073202 -1.1102733074905007 0.6812698326316138
P 1.9765528835717348 3.4512736155066923 5.984406946579741 0.42781871052216647 -0.1862993068532985 0.248293746278224
P 7.144324069722896 4.02154567482772 5.79901293859406 -0.6936386386096118 0.3732717285142217 -0.3618704286558155
P 2.6439259337843937 8.879935079643726 9.705818985667088 -0.6321463356320854 -0.48471593792984263 0.6878878521687637
