# total energy = -340870.89105481363 ev
CRYSTAL
PRIMVEC
9.24066254279429 0.00000000000000 0.00000000000000
0.00000000000000 9.24066254279429 0.00000000000000
0.00000000000000 0.00000000000000 13.52464369186679
PRIMCOORD
 96 1
Ni 3.6038767698043896 6.762362858464063 4.307463567861674 0.21641078152669826 0.5451029236583321 1.2877069364230533
Ni 5.597180029824864 4.742649785652627 7.2633555286026565 -1.073601405990764 2.0173947553467384 -0.005724046967970787
Ni 4.778623683901477 5.305045732563322 10.178632930498699 -0.4234072117180321 -1.1514307555654169 -1.427277214650929
Ni 1.7823112182233969 3.129987886193848 10.559446167378768 0.007308617846271284 -0.1334191710248154 0.7855100680996278
Ni 6.489153437548178 7.588977061893998 4.016345743450729 -0.1229990041327559 -0.6582839132594018 -0.0703366407420337
Ni 9.133119450560269 2.831431328648989 9.334073360924588 -0.8826784843225248 -0.6968409475969934 0.3431296577132026
Ni 5.405584138149631 0.6681285287635544 7.587866334288164 -1.0173513252487836 -0.7452895300166842 -0.6664764763725232
Ni 1.3462905686287279 1.171327869054171 3.3214497882660474 -0.29264836113419923 0.3589637965319818 0.26370133908254584
Ni 1.772728651440952 0.5550006448894891 10.527325625299907 -1.0203582303959071 0.20435770701690614 -2.4044679085204272
Ni 4.679785560174349 4.844084535479916 2.655874454489947 -0.3480713179891941 0.37147529873543117 -0.7153629176605809
Ni 1.4011616212364029 4.719335594724845 1.3459153977402347 -1.365755343987048 -2.133783710362145 -1.4598644045583309
Ni 0.5273202410352805 9.036970359556083 1.4701015821625665 -0.029415734157955793 0.3724389482002812 0.3993185461999445
Ni 3.2840297263706657 6.016484321358353 7.246422939044168 0.6711052333937862 0.08524981040844028 0.6628108545954777
Ni 8.784136598963528 3.7444457243796596 13.225654454494373 -0.43648667060980956 0.14013437826146186 -0.5055768405392519
Ni 0.9189006976018541 5.069131624602064 5.41895907273103 0.06818411317540515 0.13174718263903118 -0.17308795036934704
Ni 1.5181299243532689 7.369021577687113 6.217508460755986 0.08273809973018008 -0.893495629542687 -1.2058736078953296
Ni 3.258904365636366 5.637959072458355 12.125829906082327 -0.15224787369554424 -0.9718451132868682 0.4106429700738283
Ni 8.299029551347306 7.530668482918851 0.17337145753025882 0.723016834661413 -0.6560377975377024 0.8121215000395692
Ni 1.798999854297742 2.5520399046690203 5.4389484733711315 -0.6024200122122464 1.1177130515979978 -0.5166068731011683
Ni 1.6541894357367999 7.857122599881454 3.3365702839517897 -0.6595149574530256 0.5740538023647275 3.8814561172432374
Ni 7.23992952566131 4.171974205340706 5.597566289508091 0.7196162936202961 0.9434349375752914 0.7713096082295297
Ni 5.628699928855645 7.266635039645172 10.679518408954864 0.17862919190255044 1.4837473818235154 1.7289956564071967
Ni 0.9163530470117672 5.965143201740933 12.845124905946243 -0.4468862686765788 -0.3367155266567427 0.41081471976500217
Ni 4.2577552732688035 7.646500184575504 8.859790825100998 -0.036524834398911285 0.7743041720814794 -1.0928759379496598
P 5.635436371656418 5.654093268796011 5.165805585223651 -0.5263570105093968 0.09997940330913103 -0.24218249117416352
P 3.812253704176749 0.8338228440731233 10.115513662741543 1.789658264394576 -0.860380335045957 0.44934012953371005
P 5.197068593843099 8.978421523361703 3.2385296293792654 -1.6518936719168713 -0.20493183435282125 -2.5770208123219103
P 2.187772997664213 5.397858944485095 3.077803094110432 0.8085780056626849 2.694526911660895 3.4204822601253415
P 7.228221606554889 2.7434047797872996 3.45067767802734 -1.5408551825801011 1.2918281576802784 -0.9429947647140792
P 6.659079976181142 6.858179285626235 12.632855804622325 -2.036209059839764 -0.004719774073172517 0.6670197504705029
P 1.726294323493231 3.709137153814835 12.840918556477227 0.9735934634365426 -0.1747383414885765 -0.579123503578151
P 4.5915372354179835 5.525084382730711 0.4911134780970198 0.8006595221465566 -0.29481117311347294 0.6132379287633568
Ni 8.167008209379329 1.411344831066928 11.112387992712685 1.0740274377845889 1.371740100815573 1.3036847999085481
Ni 3.644323148595867 3.4327212230884316 0.6721112542054386 -0.19894244953860576 0.9235006605452095 -0.5586426100159798
Ni 8.184537745720986 6.68395583903393 5.21176217093159 0.5230207470473122 0.34732184141767924 1.4184585879180345
Ni 1.8646362784594657 1.9829352369443858 1.0466778033854762 0.4655406505529724 0.23223232193998714 1.4363660643260745
Ni 2.0824386883555417 0.22593696489953455 5.4502553477346805 0.8692323861199481 -0.43987127081132626 -0.24435661600734693
Ni 6.655845744383788 3.746155246901118 1.21547051275691 -0.4466993494767533 1.6492215244013468 0.45516162131149346
Ni 5.967499570621862 2.9804739705333256 10.057168121117284 0.9890167399701484 0.3019922642429444 -0.6271573670579264
Ni 4.993487563193101 3.0322678826023752 4.092084059614931 0.8513351941245533 0.21662675419224625 -0.03873624022793329
Ni 1.5005264627133865 7.428928791236381 8.965905046305945 1.6392736691600154 1.1639530564021439 -1.223211327842829
Ni 1.3475288173740005 1.4372002041212013 12.541375096201063 -0.8432966400907927 0.5194001195755894 -0.42546049470263503
Ni 4.713079666362535 0.0512634980542839 5.234388856585877 0.041806137402508645 0.1196444858382262 1.0818952705684401
Ni 1.0064836946741922 5.1402939648061245 9.148636370657744 -0.4561895483553756 -0.05118783572772474 0.36271889269903984
Ni 7.112888900661257 1.697260162615273 0.5522515478617385 0.9715046992283141 -1.4408215289942667 -0.906579973530471
Ni 3.2951092804421713 4.669232723852697 5.2346993428384225 1.1336983712826605 -0.6364346785947943 -0.8590654728892753
Ni 4.370500593724554 7.134401162444798 2.230443603866042 0.27756678421072845 0.8838457651577487 -1.1398862452609273
Ni 1.937637510456878 6.968318739319546 1.4749298282029017 0.26834115184740237 -0.7504448489653786 -2.672638853338552
Ni 0.7478523425683231 8.402922317340586 12.107085222651092 0.047722759997259744 -1.0169558895825774 -0.3041252514255472
Ni 6.082841517177773 4.615387384757898 12.147076960858485 -0.1378738643620593 0.016608297980642367 0.5620151260326385
Ni 3.028876559546293 9.168169282581305 1.9038508769692655 0.808914305956181 0.9657392574994466 -0.038553177682849736
Ni 6.9317904013340055 1.9326845154757877 5.497699680069403 -1.5874672260116856 -1.183669818104781 -0.1721368993099874
Ni 6.932843836833715 4.9518398983054634 3.3983644407382574 -0.3250118650665693 -0.6868074746203914 0.9672526088201794
Ni 3.469073988490688 2.3044548402504557 8.575164565940455 0.816798079579632 -0.598922283471633 0.8625508603347145
Ni 9.064830956324716 3.151019633538925 4.3096138699738 0.7490263713512971 0.526025595311907 0.42056999937955303
Ni 2.4350161575784854 3.8687695946699354 7.2225653971744315 -0.6469070388810279 0.8120767628445628 0.18591261293784112
P 3.303333469869728 1.5815301082436795 4.195939862959096 0.7859240157085948 0.0987632715138428 -0.3670517157464388
P 8.831984748239806 0.27350789430746836 9.432734988002204 -0.4895871499792149 -0.3315833476364999 -0.044388039197071946
P 9.141833395088568 6.387857297655061 7.136426715616169 0.04705067363089961 -1.7591971196912413 1.5033412447950434
P 8.527033652398464 5.307245010185522 1.3754430099838464 -1.3208895938226088 -0.5987937283135688 -2.2333252548029083
P 3.049631087023026 4.367774598352498 9.255075863174882 0.12793475087147643 0.6133585135016211 0.274440836987237
P 8.65507226892456 0.4050431774396154 13.260196050090112 -1.26440297158979 1.2276189699922213 -0.7142316322696151
P 7.962096523361278 4.062518560655978 11.030631233206721 -0.052217819654135876 -1.726155872965556 -0.7280520830924752
P 1.4137011999478573 6.665982750902923 10.869403854042412 -0.4985615855636833 -1.7629581293955703 0.2067956270344374
Ni 5.778444861073121 0.9139504748194474 11.789079843209402 -0.38148820288674296 0.5994768704235224 2.1658757058006826
Ni 7.22897010019942 0.7194576355200133 2.99481547838902 2.0852240562858864 -1.1001292770779634 1.152196430086848
Ni 7.74855405877543 1.433624067819556 7.694953597231001 0.15285979624793028 0.2902461794506098 0.8739305629265658
Ni 7.502059392505688 8.433564353454942 11.313498994335731 1.0279442702732813 0.8248816279187148 0.5416391334794478
Ni 3.982586831949951 3.3173053512342956 11.303491357088491 0.3014924417883904 -0.8869367453782467 0.9672868044922245
Ni 4.127498897795953 2.490035060782611 6.173093217516041 0.5434736155850253 -0.37977122019563625 0.7620053001094683
Ni 7.549343861382998 4.683528028397001 8.834215444113752 -0.1554866923478161 -0.1276545006268963 0.6537811402930417
Ni 9.046414316404356 5.784063183738239 3.286947927518106 2.5364693732621086 0.5559030995976296 0.45031663451436643
Ni 3.186910365827273 7.8562077743159175 11.019500855492685 0.41812822270727984 0.9692110180981307 0.3561499812322705
Ni 8.216039163427212 6.174555090288445 11.343348181626622 0.9066691908101676 -1.2115158937827715 -0.10498534116415467
Ni 6.2750657738879205 0.6196427737900834 9.812061402321719 0.20826989758711875 -0.8987478790805618 -3.62207243169944
Ni 2.777077753128891 3.4647493585445117 2.9174545019287748 -0.083053831198386 -2.6313158262200487 0.8756395751978725
Ni 4.025722243464371 0.6607387711397151 13.20006521251371 -1.4047558936199613 0.6751151258841277 0.7211957222922741
Ni 9.107236355519161 2.7001584803255416 1.9791696670660384 -1.056200179795181 -0.08552774666017529 -0.06439584977756652
Ni 9.158309495930515 8.609303268660865 7.443070700786867 -0.5796215262604921 1.0964528566676406 -1.0422617153372178
Ni 8.461665207442808 7.198494396006069 9.191455751522252 -1.1836165962693421 -0.4119424056115421 -0.07142138916578022
Ni 9.11105274904004 1.0431598832561833 5.523910818621385 0.08878687702742129 -0.4767491176742822 0.09994135098234401
Ni 9.228963599709276 3.8950962415003945 7.267453762323017 -0.5761777906862657 0.4134647557933395 -1.2967945005466182
Ni 2.3415006553235727 0.17610299729968096 7.897309316062916 -0.45375445655132174 1.2997214443854261 0.9403876661085353
Ni 5.18870579448137 1.5435971895918597 2.1591149317409752 -1.1043145188039047 1.2692762405216913 -1.2346802477143768
Ni 4.385941740391348 7.560987095853472 13.224815402359518 1.525874907121185 -0.49220658987993304 -0.3115302856403667
Ni 6.346459130648934 8.719950958779474 1.263481297689284 -0.7313448949111341 -0.5612576790413237 -1.0728642707144234
Ni 5.954239220252712 7.461659217025601 6.7287665826193805 -0.6028828107812778 -0.5495128798005697 0.11961080438681336
Ni 6.584359980999993 6.33877089963351 1.5995457034211673 -0.2287801017253286 0.006316943356963315 -1.5695348099029809
P 5.819122256421553 2.758125154796398 7.690220530012131 0.9634075240424762 -1.2415165539099198 0.5525812343132483
P 5.256365923682009 2.4902568366772866 13.207436488812995 1.059863230469065 0.5649880926180334 -0.41698125358703025
P 3.447487801408921 8.106472630795146 6.713281080773651 2.007634076415549 -0.35940062695908426 -0.24043079859037947
P 8.777742060667045 8.122597586470524 3.3604546237421333 -0.6237144028146484 0.23899509458511745 -0.30487858465180395
P 1.1337738175557555 2.0867910402885523 7.480696829451052 -0.16786449718687865 -1.1925272684954107 0.2486722126635653
P 7.291233682629618 8.956373303166028 5.761254457037072 -0.095580502910487 0.4011437723341414 1.1917004017187411
P 2.446474578803396 8.333534184293931 13.43751789074428 -0.2360519527963935 0.9334513440000183 -0.17591770650865832
P 6.3526134117261845 6.499928049764505 8.854556913986652 -0.7549144547009579 0.17247217116221908 -1.2104725401199217
