# total energy = -340864.1104760587 ev
CRYSTAL
PRIMVEC
9.27812946572925 0.00000000000000 0.00000000000000
0.00000000000000 9.27812946572925 0.00000000000000
0.00000000000000 0.00000000000000 13.57948032079349
PRIMCOORD
 96 1
Ni 1.0153428359635999 3.7268854932108724 12.964967914402914 0.4647909168711415 -0.48173011582864134 -0.22377956318694364
Ni 8.48808759744196 6.058943371196241 2.311295279539553 -0.8851511142327337 1.2619827921840718 1.176949725772128
Ni 2.5108474356093113 1.6079276961547575 13.509287944352259 0.13663664952084856 0.7029686577612861 0.2632483107055273
Ni 7.708492756790593 7.4246376594399495 7.170698963210356 0.4045003475112001 1.9728735330059122 0.5267563028303444
Ni 6.480374574434161 6.463748166169392 12.416112734699208 -0.21960332032206697 -0.17785323296847436 -0.3058877426426087
Ni 6.969053661100122 8.24926854122814 5.118445351187017 0.7526397997341683 0.9372732888492696 -0.7808741119895133
Ni 2.2056711964102074 3.4537466355621302 6.3042329950014935 -1.7231376549645228 0.13074625217834257 -0.7581640719865071
Ni 4.297258511110814 5.32984939002319 11.300612489573673 0.323387699199585 0.29751391675661665 0.8004494630182796
Ni 8.456439897335303 4.948471872320431 13.775840257789417 -1.4683395319088777 0.6046188196357781 -0.8011279771425429
Ni 4.09267575316541 7.530185661906477 5.082500949257026 -0.4243644334249788 -0.8427379393738454 0.16398007453080793
Ni 9.073927257405167 8.91927011490213 12.552858447986209 -0.5348915303429692 -0.3801959664378807 -0.4704622562243059
Ni 1.9998730034856262 0.928156251999293 7.597067987027803 -4.854373894768995 0.6993837686235052 0.19090363839452928
Ni 3.9344094182432916 1.7857152157806004 9.566296256217834 0.24113733773910084 0.8726925767544067 -0.20618087626857393
Ni 0.27162466689605747 4.6722619537701044 4.003869207770841 1.5992336225189943 -1.6301606511151538 -1.5974680459781392
Ni 5.5584903380526045 -0.24669247700259306 9.701438708707872 -0.32687848596166286 0.31059826074440056 -0.6554125052488776
Ni 8.530497927898578 8.628948161211897 2.837351311347603 -0.5212585129405668 0.8977590328047312 0.8348837334367492
Ni 5.227316779680574 2.7643630491285958 11.422352683839128 1.2303358547027519 0.8180772034023718 1.0037450473192584
Ni 1.4322184775620108 6.222219896108859 6.099020252055432 0.730455293217329 -1.6058842950662924 -0.9664223996094
Ni 0.8495788445019948 1.2597473262038648 9.577960720766086 -0.9286374675511425 0.016114131953043214 0.5305795332311766
Ni 5.22150867054344 0.3409434288535044 5.437984135025553 -1.8121351053408534 0.2817108882860891 0.8700317420927919
Ni 0.867826142009987 6.6466108226930185 8.325470747544756 -0.9267415360800104 0.49330753625359564 0.3493550697976241
Ni 4.28033520269846 7.261481750212289 2.614416413029591 0.8230054939419246 -0.3086917877503071 0.08655798769690254
Ni 1.052288348078729 3.546008356424221 10.487839985242628 -0.8427477095658583 -3.367783387069729 0.31350155043412464
Ni 1.6379888360977557 1.8273925739978683 4.702452059714711 -0.8657014901485542 0.8909777482168397 -1.930953495733358
P 2.988429879259277 0.8538115272310058 5.874619409258718 3.05127030350279 -1.2159384483304994 -2.2146569889694443
P -0.09171059996313576 1.719228138980747 11.795748226636652 0.6452088252429985 0.8364258811128885 -0.5184207863814556
P 3.9279518400333147 0.8642466396056634 11.445967379327683 2.4739185471130813 -1.248768864596959 0.9344715577344165
P 5.587567996256728 4.475129533903166 6.79908296567242 0.06924752144291299 -0.3928735619055492 0.28358547960098257
P 6.007774486385859 9.198968610186581 7.540821181880753 1.4932607206305895 -0.5298683660967649 -0.49428429834456816
P 7.063616358105998 0.26009473522717974 0.6592203870648037 0.9489787502116559 0.8862564314817705 0.30919315286675786
P 2.6884030019948533 3.525448021203948 0.9300888863974801 0.6641871661177142 1.7464251647375535 -2.3370096177674524
P 6.5242879618879295 6.943371798334005 3.282255254691015 -0.23788052136469998 -0.46201901055295913 0.034544313633772764
Ni 2.0411142896111283 6.4175616369606745 3.7183468305289145 1.574924099239352 -0.5504040241562714 0.6805517235186667
Ni 1.9115916002270992 0.687655070886812 11.460769707310725 -1.3975115533527223 -1.5387756743432532 0.9921380592079494
Ni 5.950120188976665 5.932398961417674 1.071692628349342 1.431521848859896 -0.39678909490987146 0.9390972294318859
Ni 1.315527441431428 5.675793730737582 1.1121118721912178 1.0233846759270568 0.5210312274211092 0.21075409746155316
Ni 2.274719036982983 7.486439280785725 12.229517486632659 0.33837723062988173 -0.4693880493235207 -0.020748288290944914
Ni 5.143396097339705 8.25072520757723 0.484149503789365 1.2304960344297002 2.087555275522224 0.09908080275426161
Ni 3.9131439451725045 9.593957144030199 7.932304438356944 4.20149546879588 -2.296793193449567 -0.6118677878887074
Ni 3.901267939269098 2.969131369666241 5.020918291770095 1.8038625809194158 -0.6947372709904294 -1.861411325868162
Ni 6.237333969246866 6.686237714266026 9.989052376364352 0.08034568823860357 -0.46759599042010436 -0.615745782786875
Ni 1.3836938596910597 0.791144256392428 2.2971322146867794 -1.1652154680543352 -0.1400022235589718 0.9717371269540941
Ni 2.9283447118917287 2.8810169727407304 11.418564423518534 0.13436173744374277 1.3557300985405618 1.0462474394578434
Ni 6.225764141620656 9.037621936233267 2.7327756568644177 -1.883777352268188 -0.4718709636463744 0.17260381164407693
Ni 4.115379336326063 2.6907039781386386 7.309427412795448 0.004912606810268959 0.29090643874242805 0.4495815561205547
Ni 8.589098594528199 2.7091117872889185 8.482911328931403 -0.7989492243236692 1.1550909780258236 0.5677510000751512
Ni 1.8376912978672286 5.594981221816744 10.610286245171558 1.0613963792841397 1.353672958901217 0.12256654458102761
Ni 4.480445902170863 4.3938438403721145 9.082676533629316 3.7367379762658355 -3.8288145797881223 1.9935549726146633
Ni 7.652452853933893 5.322046483019467 7.867761129710812 0.06055770697839894 -1.766080734184952 0.323603671865133
Ni 3.681701002000254 0.12417199203676778 3.3429286554759665 0.7160959391718634 -0.06893847484292642 1.5497162325151568
Ni 3.108089916865711 2.194927122319469 2.4989909137780897 2.1626641408419207 -0.29338755329306887 -0.00272871178507272
Ni 3.0176745437964154 5.053611637084028 7.732306004252846 -0.6288144430453751 1.9988326760738349 -2.660305785694496
Ni 5.085491290430986 4.848759813379875 3.751942937854099 -1.1074348096004412 0.2709351378268237 -0.5449098338109196
Ni 0.005329357649153751 1.5847138158654424 0.4992060525237778 -1.2178017267914834 -0.17007410324368774 -0.2440866501754119
Ni 2.376694959548876 8.2938685102732 9.718304492716634 0.7464344422544048 -0.4094875163131464 -0.5650222882900786
Ni 7.801069934059494 7.440744492446444 0.5978798887607469 0.2527787786327711 1.0919074033888034 -0.5942870986924669
P 8.051746439917496 4.009784943211477 2.1138223523158524 0.632057375462705 -2.0166488783196495 0.5873361212959305
P 9.528824674153702 8.802161562939006 8.48178403618354 -0.23105527091275047 -0.9464906936824796 -0.08873236964040203
P 6.531367174781914 2.9402671084431953 9.669893995839912 0.2434104500439937 -0.890594396735492 -0.5909446645827952
P 3.484169622559998 0.2684209287410213 1.2419741411190475 0.3086858742130361 -1.0617041403325458 0.29433654746989957
P 5.494768143877138 4.028406149342834 13.591701858444134 0.18930492644884173 -0.38181678987075535 -1.1877437310638383
P 0.9080357001226307 7.50724084737591 2.5276844574162736 0.38164632573116203 0.9790935673191653 -2.6925785296852722
P 3.3304774055366138 5.349296349690018 5.136859655028025 -0.020567282628390384 -0.5963344681397988 0.7897966112901237
P 7.500690487869813 8.005958870282095 11.24366054657611 -1.1310876731326909 0.4717706906230843 -0.5573675999582982
Ni 9.077415834139291 2.9786136181297422 5.778096243465819 -0.9568733224683843 -2.0020460408048097 0.4701110435324743
Ni 0.8829754720405202 4.35268605741312 7.862804752872061 -1.6149602892256316 -0.1802890961034766 -0.6351547834411061
Ni 6.407782488349588 2.4032025758504645 7.400681528781671 0.18842149540262387 0.7192270286016774 1.2973832831705527
Ni 7.613837278488597 1.56889460487692 2.6696583967396563 0.16220884156299806 1.9479957959276257 -0.1864268335700983
Ni 7.645893216298183 0.7584397773229605 9.67486428987308 0.5521611160566942 0.296510929413399 0.7322262690748228
Ni 2.5221018068287115 4.172569727254656 3.3654160582166592 1.2609654066631508 1.3062070521097697 1.7732685101826426
Ni 5.131176800640652 1.8396304269561445 0.7187989685555347 0.7206704459164234 -0.25612198407339115 0.09095637387491431
Ni 6.46118740239647 2.1859830053734663 5.097085241194186 1.1760228430824842 0.6404805665293937 -1.3057432250994738
Ni 1.032173363079834 3.2854506425294008 2.0479754664592296 -4.347090870171914 -0.9593454381579606 0.03343025463398759
Ni 3.88460441848588 5.180304496936387 1.5866807793431938 -1.0917050575700102 -0.6532473792767588 -0.4598145467024727
Ni 0.6381748056658214 8.515625086130482 6.230509904917213 -2.2045155296600676 -0.11590198807665844 2.618270820110633
Ni 4.632959796733518 7.859262362986186 11.41185633580903 -1.1320091565056958 0.1711940757807439 1.2203931416677434
Ni 6.608449875598713 5.9617920760286065 5.359875273073663 -1.1196902299290266 1.5942513388130544 2.5186452005964948
Ni 0.1669868489444713 7.297453058718154 10.4394703121362 -0.9284500341306848 0.44501347713389816 1.0995579779555258
Ni 6.28054221885012 0.565040876811905 12.069455833630611 0.1265250150081434 -0.47486347061579504 0.35372028874485534
Ni 7.0656668247502585 4.5740622299563105 10.958708774305324 0.3780516664013683 0.46983002195694573 -0.881904839381294
Ni 8.168465310436913 0.8374940806823173 7.193363578226639 -0.26591505890441297 -1.221772024293141 -1.2052634851151567
Ni 7.632143028213145 3.0157539709667245 12.589549739349966 -0.5932509441184687 -1.0103059883662278 0.43106472826328984
Ni 8.930106970288987 6.739772522127478 4.693869789823577 -0.919698770300616 1.9474221828123428 -0.2304883426656869
Ni 1.5555990451428718 8.75051949351841 4.327997882328452 0.9280011195187244 -0.5383337232552987 -1.6529336831456114
Ni 1.5011364243202177 8.673724414719585 0.5895304999228752 -0.08543313006383996 -1.5011581211007954 -0.04047327752369804
Ni 2.5798767199228623 7.786150701643339 7.204932478039887 2.2236278250094865 0.1879152451901667 0.43973114568903626
Ni 7.262697185191465 4.367633124218111 4.2018719161953895 1.1855102137476292 -3.192410754431263 -1.9129434323091827
Ni 5.350558175317255 6.673805020585897 7.58060951290901 -0.1768034515477213 0.2538650697184144 -0.4722172912421997
P 0.46420894762717624 6.309425036332389 12.605044215802067 0.3971577911031999 0.017402768857479708 -0.1561664920236601
P 8.892428485934508 5.001514939312443 5.9786244587707635 -1.042461747163166 0.9381292090916618 1.399021048018713
P 3.949022472382249 6.694541640268799 13.590208079576596 -1.2550125315138256 -1.2427380850218468 -1.4309055554321357
P 3.930902285249942 6.311846628161131 9.15927769951925 -1.0228534860139353 3.751509221037739 2.4586305106057593
P 2.1794419239969804 2.788282067268426 8.63402422592264 0.620138512537932 0.9730692155019562 0.451897348737925
P 9.147781169116977 4.857694652196266 9.600488947277073 -3.118836580588538 3.2128420257024217 0.5225893159368484
P 8.94779108532953 0.7723940842594634 4.937743571050033 -1.0516680962527822 0.22777608594084645 -0.5039598737611192
P 5.19995557545468 2.4900458690191254 3.275234494013587 0.7941751999737936 0.11489462985806664 -0.20010561660877152
