# total energy = -381162.11444105016 ev
CRYSTAL
PRIMVEC
9.36621978801095 0.00000000000000 0.00000000000000

0.00000000000000 9.36621978801095 0.00000000000000

0.00000000000000 0.00000000000000 13.70840941176807

PRIMCOORD
 96 1
Ni 3.6481050791377783 8.97961954395241 7.3407296733980685 -0.16756393522732432 0.3903330548718826 0.16677666343933858
Ni 8.63682527188963 4.462263720058484 4.102625238621743 -0.5439731809292632 0.13566271564335347 0.5133749964274319
Ni 1.3243459901250982 3.2546489251222823 5.67081232709132 -0.5438032310103021 -0.8383467522846851 0.8631015906318619
Ni 2.707165289370334 6.282785194828673 12.5878975839999 0.9389277937335571 -1.7203842605891013 -0.29248946695883177
Ni 3.4962037292562482 4.22423998072322 0.8737999176281067 0.12178210100651929 -0.48599609019384693 0.1701224399831199
Ni 3.307624263322426 6.711861082078813 5.871969689359826 0.1819204610593125 1.259789641187495 -0.6220555270549868
Ni 8.644917685645806 8.321127473202564 13.18643367306294 -0.17908299161051738 -0.32743435846513286 -1.1341531994318919
Ni 4.18695306039529 5.442391772737775 3.296652673653464 0.5263845213132226 0.621002146089808 0.9821133279820956
Ni 1.3444833623192833 3.6619951828419537 8.068701297949625 -1.4337471386459888 1.7537828906542055 -0.46226995022150064
Ni 0.4449029251728074 0.5471174165646021 3.61773136551521 -0.22694381984753817 0.4591177777457641 -0.49161189371872754
Ni 6.036809535031611 0.5173319015344964 1.389909527501514 -0.34418226734743307 0.6821954297696767 -0.9557235251346573
Ni 1.8598033998782861 8.33626328411689 2.65068511178644 -1.5293286699977404 -1.2483634016284242 -1.0710984370632521
Ni 1.5249142171791796 7.750453077658615 0.2559104089535137 -0.2055985214025427 0.48752692501607653 1.1293961443628806
Ni 5.786431752010704 7.667281047386819 7.07262070000469 -0.4388443722087087 -0.9709326287749278 -0.8685379311560848
Ni 2.3138683610884665 6.082460489484847 1.7679601234774778 0.6008634663584039 0.37561965992110796 0.3407583292675486
Ni 5.522407386995878 1.474561420474092 3.4214678530008715 0.06713715996812954 0.6085135267044939 -1.198596614617942
Ni 6.882972548411633 2.6826819912700555 5.1666718092769575 -0.32194736720863265 0.8217464247238428 0.1805032689968117
Ni 9.024427538639376 1.2589697771411867 12.910222919693764 -0.40430905743600043 0.9528842559136493 0.06532864600448104
Ni 3.3768780912311716 2.633368844943366 7.738835218835515 0.583604165057324 -0.8711254893776028 -0.08613221301339359
Ni 5.696263155678882 0.5877031194445286 8.265704741814353 0.07283112502911328 0.4624149604397972 0.5407888696640105
Ni 8.62378749417135 4.100072007151914 6.5268201739193925 -0.48327740571110317 0.1907293176001941 0.5502865247418006
Ni 5.701555069767122 3.459469415886205 1.2424421459905548 1.5364868783090764 1.0092914310587844 1.6071557055795482
Ni 3.6762318366722604 0.39889886423970145 0.9349529021830147 -1.285474961768741 -0.6547597021562271 -0.4922261302639587
Ni 8.1966035832855 0.3424552149123451 1.662034735870178 0.5401751473394115 -0.08208709640974249 0.41954490054914845
P 3.3980082827056277 7.318005351343402 3.5877510331169002 -0.8360972941288762 0.4180588029219252 1.3596662003701745
Ni 5.048270617128889 5.454652154227165 12.833278488850762 -1.1637255137723699 -0.7871936264496379 3.0424295652827085
P 2.753443780538459 7.435373449466812 9.787899945436338 1.2006828077230094 -1.0497976187029467 0.7270591230515865
Ni 3.345164071580237 1.4308024423851473 11.806600324634218 -0.14198634386853612 -3.0468752597588886 -1.7765469238235982
P 7.042563564605454 7.287714997075499 5.111098281752783 1.7535306654340834 1.5485494659005652 0.2915211895082915
P 2.4427943742293756 1.049765895592669 5.394848841920248 -0.2967356438296954 0.5348341947424724 0.8680486502244922
P 6.93681894503692 2.986297366640612 13.052776782389342 -0.12680989323841388 0.18290930733514307 2.133468236004255
Ni 1.6500000802737556 2.470677610053603 3.5931113206084033 -2.6059200118547636 1.0766671894002813 0.6581587005354472
Ni 0.6367512017558252 4.253087937168843 2.208533981939517 1.1537321500050841 -0.3363568577657433 0.8048681609112655
Ni 0.8555048808341991 0.660078708354354 10.904052669110479 0.47235407393038004 0.6331755482275483 -1.7183823996677243
Ni 1.5478427228216745 5.384227548865269 9.944463799447295 -1.1594333141549193 0.6588135605106267 0.746908810787662
Ni 5.194599066333424 8.235164309482458 2.989406951556179 0.3606144447615274 0.16098036847253566 -0.9554954682842511
Ni 1.5226101271513797 8.011498984832627 7.251268226647949 -0.16355789939172474 0.5173990299851605 -2.420915769663805
Ni 0.1976412834212054 6.524452393598142 4.8980692361093325 -1.7281379363925915 0.3386523386681393 0.6346577892000296
Ni 5.863422077329866 6.047627518698719 8.754903329460632 1.3417206716353474 -1.3718599142228889 -0.9081023237122684
Ni 0.8795751286490063 7.982828986559883 9.256288305461258 -2.20604353626882 0.8214594896110433 1.274809768745411
Ni 8.028405011256117 6.931742454000061 9.747405094886776 -0.026234251106180623 -0.12696981585504585 0.25283302890947423
Ni 4.8754638650439075 2.014008839787616 13.433816139047707 -0.38811933505001545 0.5369378713490366 -0.29789958223080953
Ni 3.215713550140316 0.31757478909995784 9.643660163208223 -1.214563936580476 0.5643005796327056 -0.8155007009244472
Ni 9.229379156478052 8.74851744092017 5.357492611567092 -0.7908453642696122 -0.6779955327557162 2.014642389412582
Ni 5.731536338787393 3.6361256842371446 8.292518355357384 -0.6004204652837143 -0.1469002362303857 0.1267733835735236
Ni 6.607418367038182 0.9264746001782815 12.401257862150459 2.513983276344451 -1.933338451025767 1.5562368072424941
Ni 3.1134812629312334 0.6874205766842444 3.219310178476394 1.3876084353063973 -1.038407117477818 1.7675400923392979
Ni 4.824661489796811 7.895460889895998 9.375509978448497 -0.5009236580379567 0.25463434378427113 -0.9639996491005205
Ni 3.3630910159428735 5.034558471597593 8.650198360270494 1.424158209405973 0.16541500720512156 -1.0395620570178676
Ni 3.778126939974836 3.578710757934655 11.691778901626902 -0.08674876355146995 1.6841183362785317 0.2692428377260653
Ni 1.2897565410492264 5.712991223929493 6.71753139143991 -0.17113339774613753 -0.5548882851798701 0.7529187644271679
Ni 8.178264525259355 6.766550438470369 7.270446497952513 0.3084447047365075 0.5503101788908845 -0.9368236029063608
Ni 8.728651689095114 1.7004652716143454 5.702013077906793 1.3045530614461145 -0.8501098063578842 0.7962642212923384
Ni 8.200040985887949 4.314108858027035 10.20654092740204 -0.9804223134329179 0.3909169523998106 -0.26116443159330505
Ni 6.079528862742158 2.7887169636469706 11.196878159472803 -0.5209337826112964 1.141905332573485 -2.442114258118291
Ni 0.9836778499172419 1.4397940132253413 7.7038514519134225 0.16141205669331557 -0.9978024565825782 -0.5029373460338757
P 9.00761517441214 5.15505488707582 8.449383801640272 0.6061589104293883 0.340767071018297 -0.6476158920225943
Ni 4.210602764948925 9.05145844847771 5.100255009292687 0.23790468973441609 -0.7155902031800385 -0.2759719289197828
P 5.148854449683936 8.196472456210747 0.2695701036549087 -0.41981872303582535 -0.712441887359044 -0.010945443267910181
Ni 8.447730663876422 3.420262420535108 0.9149269880023697 -0.73944284142792 -1.3146659815104005 -0.37672574850109314
P 1.6138839373989757 4.081920273518271 11.826285308420506 0.41055041036002193 0.5030360763952691 -0.6256833536155612
P 6.832385596215915 8.163409700933784 11.281609665312194 0.4961102958097133 -0.751827331135202 0.3604056711848309
P 8.927075051855024 2.294171201216666 10.217905898295262 0.1436565324821074 -0.626362896181089 -0.2131814759561232
Ni 4.679850368171558 2.0293038764355713 5.3752453442447 -1.7108310696830278 0.14049201871119676 2.443834326133191
Ni 7.684936371380326 2.2955012044034446 8.362074712160023 0.8807774106450703 -0.23363048783909438 -0.12581873296973814
Ni 1.348445273220744 7.875398447458814 11.680976840533155 0.814510569097036 0.5033212117358558 -2.1238070587654065
Ni 4.597895946451039 7.51561385299592 11.650201316088665 0.07814636659443962 -0.2914548550467303 1.5676949284807646
Ni 7.0230537291261586 6.3314427057815985 3.0935218489099277 0.4729487700915855 -1.1297414435174413 0.8847091415993087
Ni 6.533753049685966 0.17313644301578876 6.0322210240372245 -0.9582272653931175 1.8813332616030696 4.002219032956623
Ni 8.34103068990612 9.317964861693214 7.684879237440612 0.040931705217355306 -0.3422413415709783 -0.1983449251639229
Ni 2.287727242114527 2.3796379552966367 13.418339397739022 -1.0983516163522504 1.5032828807532819 1.7062244241489517
Ni 8.843303583527215 3.750608986715992 12.404766448022059 0.37105749447172226 0.06730556722519376 -0.9540790475526988
Ni 2.042669471840735 2.7984952969356818 10.01940760577835 0.3421963472656558 -0.5193147589506347 0.6030684444295228
Ni 5.386700230846322 6.094814533170489 1.6384843132445694 -0.6182965742331867 0.41978812690820605 -3.189003014301295
Ni 1.7230659595699584 5.303331509962397 3.9622508952329496 1.3472014922442603 -0.7416709594274904 0.5240281052659039
Ni 8.512067226481937 2.466125627315754 2.943990152593573 -0.7640413567028906 -1.1326547605094943 0.9150304182906692
Ni -0.14920856173928457 6.286812669267509 1.3942273547487323 0.52616752020641 0.6723085096732679 -0.0802713833572424
Ni 3.7993039625474188 3.400509063345557 3.656307077663568 0.9288950920879033 -1.5256576489040563 0.11438735120434493
Ni 3.252710117659865 4.37407139606758 5.7457289713854625 1.0036496593919748 -0.22132184567507046 0.47312746176129483
Ni 7.125651298900623 7.729912958020547 1.0046094775356438 -0.6515892748480455 -0.5690594344739296 0.6865225963901209
Ni 6.937212326261179 5.894836377952795 11.861241913305685 1.7816071119553252 1.0369251336156529 -1.3845889317537832
Ni 6.094580377679859 5.429232234164365 5.272377090723066 0.25276386623443564 -1.2360537310231359 -0.5730582712206777
Ni 7.059628816762573 -0.05717608770204718 4.150152246865908 2.3940289725752897 -0.716850557949701 -4.548223385383302
Ni 1.2894661882408451 4.797686777276228 0.09310115969647297 -0.7354964551856624 -0.2854523576063923 -0.10629634666609435
Ni 7.982473070214126 9.566094752004073 10.057023280415123 -0.4230809387268649 0.4842335989767855 0.19905069298169592
Ni 4.880353031688263 5.376153867548345 10.668624309233358 -0.2553493675734247 -0.22391608876480792 -1.3743286874783558
Ni 0.8780990124360744 1.0378520642294118 1.1953253781659747 1.8146714986094616 0.21846637850414632 0.59986819232467
Ni 0.19410834537857916 6.073674975476407 12.030129839099482 -1.472957233186547 -1.1620815504110438 0.28614012770203623
P 4.772969323685319 5.407090490970387 6.872820502959877 -0.19770446336644662 -0.14379100117744267 2.3612031842945207
Ni 5.159784827986547 0.23498721093277442 10.938117609887339 0.32123877117738225 1.2484513333565403 -1.367239127621426
P 1.7233750448175902 0.24602904724892535 12.790164843293995 0.10499485424585144 0.9238251337641638 1.9385729599518293
Ni 8.776119690155639 7.762460571218124 3.0813214112261393 0.5822713051785133 1.1636478664568992 0.07134168496778036
P 2.936937389215796 2.3259601506246024 2.060401598835168 0.7365236108985961 1.4867329468144008 -4.53040435492401
P 4.424339896796041 2.399363213827313 9.683496568518134 -0.37920506327952114 -0.41800712374838334 -0.1277408896931155
P 6.378030282197354 3.8983704675231823 3.5424175935089584 -0.1275917657097609 0.40641787624888714 -1.2752532840407327
Ni 7.424695959094081 5.4173933325581105 0.3922469750618828 -0.8730173070836771 -0.259270814115018 -0.5218064150242369
