# total energy = -381167.40097020235 ev
CRYSTAL
PRIMVEC
9.27536894078807 0.00000000000000 0.00000000000000

0.00000000000000 9.27536894078807 0.00000000000000

0.00000000000000 0.00000000000000 13.57544001350005

PRIMCOORD
 96 1
Ni 4.031594742225393 1.6356278262321655 2.0912422941639996 0.022535719208670865 -0.2715843413750484 -0.19950963489598542
Ni 8.381547971018101 -0.15823779334086083 4.448712719097327 1.352601323103593 0.13386988540898878 -1.034403909855696
Ni 3.2400162100275187 6.327025934770697 10.086158570792744 -0.40548842245608224 0.3145983830427292 1.4238687031900124
Ni 2.1268977397315028 8.555377659470684 12.304737766825442 -0.47448603267171835 0.02910565911670471 -0.40180583139817255
Ni 8.102331541185748 2.006327219471371 5.5299962682735 -0.692611225786362 0.5169298036582258 0.1167810482475021
Ni 6.0339521038099 1.1485503794731604 4.225206009919363 -0.5029023790308823 -1.0329589498790532 1.1304541533137498
Ni 0.7899479223462147 5.610568615249706 3.846098494777257 2.6950475600510555 -0.5354659147892004 -0.04350126571674443
Ni 7.2636526857413966 8.792298407143932 6.545249393826331 -0.07222922977905624 0.6662088245334333 -1.3124190944577525
Ni 5.097640715381616 6.47854836103191 1.5912043744486533 0.09269983892858229 -0.8432405900418768 -1.817607184199018
Ni 1.9906703967773867 1.420522746198877 3.218587325270462 -0.6550682345355815 1.0530634339384122 0.06590662999513812
Ni 8.679315138639534 7.120951135298891 11.477654050036154 -1.0751371259090001 0.6586412965988204 -1.0726107599427206
Ni 2.071690744071198 3.451513171560831 1.9688055696822861 1.9979338184086493 -1.6136942780290144 0.4029936810586866
Ni 4.82143878043999 8.516504588433666 5.999190803803831 0.5815462540870308 -0.8232433209843434 0.7352524574956564
Ni -0.1713893388964298 2.540198902303333 3.3414720500697817 0.1265396702961627 0.3225682886220832 0.6656812341647375
Ni 6.371454951775546 7.974897247943656 3.905138072864786 -0.3725528480703261 0.2708981139413012 0.19911677033294095
Ni 3.8529511373165435 2.4933490140170087 4.227785490008935 -0.5634287185507135 0.6694625555840406 -0.039540738407099645
Ni 1.7595653054010156 1.1873863490346015 0.40354532956855227 1.6516956969734522 0.028206287230886907 0.008863363927900865
Ni 4.577978897696091 2.4918278535183043 8.247066252489937 0.21584205350742183 -0.0821724570346972 -0.2727061136843174
Ni 0.12166223117901932 0.9210571167443236 11.947785397824834 -0.4401875165001645 0.3333378684337614 0.31279218307192586
Ni 3.538850045071824 3.6386066375326074 6.339038465026016 -0.8184245594394616 -0.711555885209665 -0.333720962804793
Ni 8.184789570658213 8.340708521775438 8.809605317964255 3.4304146887477054 -0.7061308575393517 -1.864694367494808
Ni 5.454658939501375 4.738294373669329 7.416683286984862 -0.17533123787756902 -0.7955206582580944 0.21633750508660163
Ni 5.226967183878195 2.6126951855830614 11.565365648450486 1.4372798343895956 1.259905855050385 2.1339580311564794
Ni 3.2845287053524186 6.535721734897859 3.2134422781446603 -0.6356936866637116 -0.41019559812376455 -0.24294945124717512
P 5.855846470296934 1.5332092028986493 6.363419699702206 -0.11644089129926398 -1.3777189441068274 1.2913676731040922
Ni 3.2177646000495157 5.079804180997415 8.078785089710067 -0.12248478350049873 -0.12433494933536005 0.0753790882619476
P 9.116722984968275 8.961351280615828 2.16927411759999 -0.2796383220277765 0.11865486823144725 0.32264439327565725
Ni 3.12431525843702 8.038183089911106 1.0009569994756742 0.2315203834746271 0.10178020396329569 0.23136997393969183
P 2.513671347264947 4.4934524609601425 4.573524865552932 -0.7813312541315899 -0.26792437602495794 -0.516334079055756
P 2.1389928207699835 3.5142053899190304 9.198215448538818 -0.5777448780630695 1.1927602104418233 0.8811831307239212
P 3.0785876897869358 1.0666952489788406 12.19420690585676 1.3832596714193985 2.1584755566818696 -0.3391058812657902
Ni 7.624659318485807 4.2128725519002925 6.929284912462107 0.5748212766583712 2.0808614084418164 -1.1468881305000571
Ni 4.6052299315082506 8.16415187486786 9.105292020342644 -1.5137169316024124 -0.7508785940686875 -0.6530645738419913
Ni 6.417562810550307 5.667435901942134 3.406254009039921 -0.43230914219335226 -0.7993289762605911 0.14273864865352837
Ni 8.031254389346884 5.339013640124244 9.266650047779626 -0.6015988018625318 0.04142587124495446 -0.43350213406018884
Ni 4.816216747752364 0.9369421135131136 10.335457298255754 0.7146751475649369 -1.7499326636701797 0.0403866313471627
Ni 9.235781620098596 8.519723141440071 0.03769880933497039 -0.3609407177526945 -0.39297512048042 0.18619440584431804
Ni 6.611955991842087 6.945442605076396 7.765219186250563 0.04054244019873663 1.1176968536480816 1.67977240060501
Ni 6.431503689998801 6.2298293441248065 5.797975588690118 -0.5942752716179249 -0.5703722397480823 -2.349785686486198
Ni 5.544694945360678 5.996294106098067 9.438908488741475 -0.35671253860395985 -0.8462688353452392 1.9995996361468464
Ni 1.7664569044896592 8.553355629051675 3.308836664614341 -2.317609101753654 -2.4375803748036793 -1.3529674481937601
Ni 1.321433980298501 6.489539673171941 12.407340969999959 1.85043014426631 -1.2103714957656833 1.3857346153224521
Ni 7.390641761276551 2.326958171417847 8.015876755256626 0.11498384713776327 -0.606784202718213 1.1144552067823323
Ni 0.12131347730858459 3.60999212449295 8.208661587582093 0.33121747965664894 0.7727640812878692 0.7955306855604234
Ni 3.502852338392113 1.1364274723279961 6.389769167657817 0.013911724985085718 -0.1458280862121295 -0.8974630988308673
Ni 5.7926812081251144 3.336693380015314 5.340740713812408 1.4846989471035075 0.051859407873452626 0.306704325006633
Ni 7.511815180514827 0.8767987665271341 10.143473857802777 -0.24057452325709533 1.6852403656981167 0.9819040401847671
Ni 7.89376559622311 4.337737567958597 4.6774720696802685 1.2726546700756212 -0.4705190776041703 -0.5139884616417147
Ni 3.8452247550273917 8.85723526477461 3.866393929455401 1.2455850675523386 1.0024075594547575 0.5968846842163139
Ni 8.157863174757363 6.899279094088268 2.48510692121732 0.5854882694539142 0.5143702704611658 -1.792797581354506
Ni 4.550440327448199 5.047850535155723 4.72079175256533 -0.6194731110397912 1.6554397373969167 -0.11207053014571022
Ni 2.690738139461725 5.424773700923165 0.8101645163887552 0.7229476719863743 0.7531185391427997 -0.20928933999056856
Ni 0.7644276723697759 3.5023329177340186 13.498846903234806 1.4431692032908372 -0.394910646940236 0.015535890852070017
Ni 0.332647192349353 7.648654697815983 6.335101070930285 -0.36605078528575025 1.7723881644602186 -0.32402610411453225
Ni 2.7529665893751973 1.6359802902501581 10.005004658186849 1.3200809818783847 -2.6823733070174964 -2.6380328332289085
Ni 6.878548644608969 8.720831689811497 11.948545978074186 0.6821126402478833 -0.28679961566290607 0.7048116245072958
P 6.598775692642945 8.22752119515536 9.928914169460485 -3.2894364744287095 -1.650138379788661 1.5356993494107747
Ni 5.786123522316674 2.4379657863477076 0.7295550679369721 -1.0902698677853804 2.6659455004787764 -0.013946949098395335
P 6.416839331776532 3.590430371494364 9.803857153266065 -0.2493386426029706 -0.18467745497915938 -0.31913380901923744
Ni 5.469397500674799 4.51681711520549 13.371183508381018 0.35848120046860843 1.297484070414475 -0.11475244785324752
P 6.863244285932978 4.492691880710791 1.6728610120486298 0.21977301313071182 1.3872268835972625 -2.453645398686342
P 5.073598959206967 8.394190298821359 2.211913915945082 -0.1530693411555751 1.8151109001397256 -0.7939103763481812
P 1.739530508588808 9.015166970941952 5.310739533123016 0.4566927132440393 1.6518875012692842 1.7615095698745018
Ni 1.4649795893104094 6.51893331719874 8.32261320459908 -0.8680170256556082 1.562869224957347 0.5123270147788919
Ni 1.1473724076235539 6.904380546980264 1.6489815748296355 -0.8749533477641255 0.11088448025740903 -0.13142836584703171
Ni 4.6806386806208655 0.5024133416892383 0.12184681102002066 0.25571369289137896 -0.6460544610727454 -1.2538989867346728
Ni 8.992497969363693 1.7418400754435486 1.1934450199965154 -0.8121862918392336 -0.6033864898905738 0.4399208931023391
Ni 7.973357536707162 6.039535875884414 13.755314563316409 0.12160649466060346 -1.2372549504200885 -0.2864304052489454
Ni 3.2648649232959928 3.591793850721861 13.106679668689186 0.03284198623068538 -1.3420466875161983 -0.4102547334964741
Ni 6.961544645477318 5.20352832668169 11.281421563092588 -0.03949728676367391 -0.4949149899500315 1.7203937736707982
Ni 0.2707489455685265 4.564297728576643 1.988027844179332 -2.788422056449159 0.8497688780786977 -0.990255754583572
Ni 9.313954429141782 0.6866648346317274 7.1436683687953995 -0.1429163118819732 0.5829338784631768 -0.3345136339094174
Ni 5.995431496790874 0.5628822541234162 8.363842219335313 -0.5038621718409902 -0.6939893370808112 -1.0612541972793208
Ni 0.8616660021756913 5.253912130516834 10.309392584125206 0.7335218479577948 -0.8407761876617842 -0.3217707324214523
Ni 1.5424660210554006 2.758624564400867 11.232970746135067 -1.5583176010309228 2.278013855959535 2.588915506876967
Ni 0.9809722896554973 5.216170654484949 6.37790504330481 -0.21925519295402882 -1.7115728329450588 -0.5612191124939043
Ni 6.770165959076264 2.9750189207104962 3.0193273579197166 -0.2945746316226346 -0.3026964893988206 0.6376325555576373
Ni 8.39486740075066 6.596419748943732 4.590453341322358 -1.7603664574089943 1.618820029291354 2.9020126227838214
Ni 5.281682584987089 7.088014300354377 12.157892909097745 -0.05167171734267875 -0.4270214114318517 0.17136736813381453
Ni 2.056933632159984 8.92848864862247 7.753327235790873 0.576130225277782 -0.06327562013019425 0.5008866341524342
Ni 2.469464939113567 6.96312145818939 5.772032381892087 1.932142373835137 -0.06969129384855094 -0.5181518489907851
Ni 4.147982071114088 4.015316469815475 10.048024746656617 -0.1707186788062221 0.3691587347871126 0.7428652368459077
Ni 0.502974501507358 0.5752453933229492 9.69559319245521 1.2867175759265905 0.08274298482618654 -0.6508122874727049
Ni 4.436724304801133 4.3912471711112016 2.2393365440817914 -0.08021584752895863 -1.6371483952868966 0.39697678544064535
Ni 6.495615039797865 0.8219201189256958 1.9720769922913908 0.9405869266035349 -1.6875785269129904 0.5747436293429005
Ni 8.528553292627672 3.0224531572371767 10.504091852590506 -0.29842922948203443 0.5431601981096645 0.2862041481707523
Ni 6.904324894766898 7.992047405029662 0.810764632756232 -0.7865552215346905 1.2017197336279561 -0.7078306138392777
Ni 1.3395858772251166 2.559834858253075 5.380191640331557 -0.15923458942602253 0.2850978024804509 -1.4741278564558806
P 9.203392031918861 4.909081741124502 12.227086233514127 -1.7262180936620592 -0.332351336150776 -1.0037311633621875
Ni 7.739117370644437 3.3865948646679422 13.211943975199548 -0.12974017951133138 2.4676522544883954 -0.008573600601623944
P 1.7361542743111955 7.924921560339872 10.120232565963727 -0.6323841626745044 0.3364887553579173 -0.1951161338139801
Ni 1.7833102497710391 2.28984742047079 7.537478271172241 1.3449052400109158 -1.5261932096925521 1.0120764500030892
P 3.936002790398259 5.460047928829103 12.06644797470336 -0.9642300199437716 -0.7492107194479614 0.14698431130375977
P 4.337496408367339 6.5863466983242605 6.965734329606981 0.8216471801418171 0.6514486355051232 -0.37234073205952006
P 8.672330785861945 6.271392272141243 7.481954057895744 -1.090323346731135 -1.5122511456901633 0.43061118566563905
Ni 7.283307192428928 1.2901574363861101 13.180693402320061 0.20164982116743982 -2.38156066490495 -0.6334460282801154
