# total energy = -340894.39800890925 ev
CRYSTAL
PRIMVEC
9.02451440037709 0.00000000000000 0.00000000000000

0.00000000000000 9.02451440037709 0.00000000000000

0.00000000000000 0.00000000000000 13.20828903685391

PRIMCOORD
 96 1
Ni 6.463420496343618 1.8680835375298275 11.43070462747058 -0.27696463185035525 -0.5787982590282484 0.5021529024593674
Ni 4.717348395605899 0.369192890470796 6.0469526863731575 -1.166672769326152 -0.7118078533194708 -0.4977928257184588
Ni 2.6957668899993714 1.7066620456732857 4.872590802346202 0.7456759668218255 -0.6122562815763779 -0.3347157226178945
Ni 3.6756577049641606 4.425288031042067 4.884399379642241 -1.7912652038703796 0.31361673585575023 -0.09412345874898628
Ni 5.047510260623597 4.905969774333107 2.476540675059657 -0.40506136222099265 -1.2007247167045385 -0.2787304655015264
Ni 7.281059564112747 6.213919742424133 2.639016230216297 0.23767637577369388 -0.2997011542159226 0.07667389581397117
Ni 4.915707225538632 4.604370497883974 11.46247001625494 1.2349820952255117 0.12590409359469285 -0.271063692984888
Ni 5.676221116170627 7.804418236737358 12.32030878411212 -0.2892038542290245 0.44465969333890515 0.3916965108783125
Ni 1.7488606757354084 6.489564515011275 0.40376400083050085 -0.146990739061663 0.1822138239300152 -0.12862252096712043
Ni 2.7815900234234068 1.509223716225227 0.47487988288322663 -0.8083324653107821 0.3613680350981002 -0.30077741799923685
Ni 0.5739392718060031 8.999733238659575 4.7094158473115 1.053033094921109 1.3313498699239843 0.11014220277474579
Ni 8.559300830286642 2.1061141334491067 1.4151232980507689 0.7080028777510838 1.5373605391632814 -0.05245744646876772
Ni 6.8547414965048175 0.8256095190246606 4.879907878747906 -0.01099840799303267 0.14273453488847032 -0.7191213562617486
Ni 0.925536163796233 7.457804681684746 2.6557251189160445 -0.2637460762775522 -0.2590250166527991 -0.3865527618938439
Ni 7.768356276573063 3.8813805387742866 3.594622978963342 -0.6584685184663821 -0.8235413118407365 0.4092072660685662
Ni 7.531480818516905 3.7612010784369705 12.770143834200566 0.8243172707748126 -0.0484822638711036 -1.19853233703891
Ni 8.169459850512565 9.041029417266135 6.75828568003134 -0.5711199165473841 -0.806990863681223 0.3201959317351647
Ni 7.003014270653806 0.6507505249947867 0.36931020916001916 -1.7491811302161357 -0.4597307287394147 0.13045083242511082
Ni 1.9473999959592538 6.30328951006853 9.09768441719492 -0.23869607528745987 1.7883842827781586 0.19116949046140624
Ni 8.955097989667431 4.650864796874577 1.5423319527754644 0.12616557478619564 0.5377228291441771 -0.8577254139216132
Ni 6.120678458035371 2.0677960446459047 6.958655171807066 0.8251197120714499 0.651168385260543 0.5194528271903956
Ni 3.148238000789515 4.343489831109842 0.46779563895705767 1.4560604574312086 0.2501523967535175 -0.7084733896295992
Ni 5.978370888007652 5.547378121859907 4.643598257754384 0.3647076409942945 0.03651634975847905 0.34096556018234825
Ni 4.949946233762689 2.642468107033825 9.660040724568773 0.8313330399710135 0.5433877407394383 -1.3053069088930036
P -0.07668130017918244 5.66337020744341 12.584369689815658 0.08678218789256667 -0.4203175170491149 0.34844875593327085
P 3.9641353372494077 6.17407651066103 12.502491171703888 0.2120476194619961 0.5147135127331974 1.1329141848184683
P 2.5978328580416825 8.485029075493811 1.4261647916095812 -1.9188690537649984 0.49625093515263563 -1.0486606768850264
P 6.443259730826341 7.867219833529982 5.936280552120197 0.15502003712404272 -0.1297167824725637 -0.117678620361107
P 4.612086457829038 1.0383696692852666 12.463473683022626 0.5862074070081259 -0.2578808757460268 0.3299792363741737
P 4.326785454667372 6.077487131372129 7.993432181847736 -2.218629343353631 0.2490085129570615 -0.041293973652780494
P 4.8004010030613555 1.1150419449498934 3.851603250546532 -0.8808218907297605 -0.13915555928796033 -0.3961550608702984
P 0.25958203912957767 5.511785436452504 3.5970262071895065 0.4232580877346775 1.2521187549057984 -0.6910783340816034
Ni 1.3884847359854622 0.9984632659202738 2.504634891322787 0.5105892061521787 0.5037171616226938 0.7170526466581779
Ni 1.9143161255983165 6.613651590151179 4.848723668700928 0.33578787263615073 -0.04194137742879229 -0.8457906101572401
Ni 5.879047080808395 5.3521147004197545 9.087844988974917 1.1994864734220634 -0.03671355337094968 1.2568902081525128
Ni 8.559706933441644 2.1269156394998325 10.189983683013171 0.5727119436248523 1.0801263515934754 0.168828917982677
Ni 2.382598185889923 5.372825961324923 6.91459207703775 0.4474390558562552 -0.21147529189829384 0.5728381847900715
Ni 0.34778674194484327 -0.08729683665096921 9.274834735470467 1.1290798986740425 0.46829121671491614 -0.37094410882230955
Ni 1.589541895770328 0.9737451205524049 11.521749345016504 -0.5643741131831183 0.5102562482927921 -1.4393459728900049
Ni 4.013544554441478 6.868142900619926 1.585443863710617 0.9010657285804611 0.29739436045961687 -1.0774871141984153
Ni 5.661664574192396 7.946148237833517 8.01077459146929 -0.7242224249337399 -1.3959658061321571 -0.4087046154005348
Ni 5.4311604234125115 3.0236004302617183 4.571494191357817 0.7430120468364171 -0.1534418940036454 0.21747264713230932
Ni 0.7456117097462844 7.311905354863888 6.872194005203948 0.1541774866180893 0.42416722981250815 0.48494913698657127
Ni 5.084240034865009 4.355357067750495 6.875376951487718 0.4711425701207821 0.18905167278745505 0.028118869723403186
Ni 8.17490163278961 6.985308173095661 8.955774828259104 -0.8553211753554948 0.11083768617987363 0.5320329778482514
Ni 4.576322306645078 0.2388139237827079 10.417655038674045 0.08683232440421174 0.37601740958015883 -0.2685134157592085
Ni 8.246511155788529 7.2348630741024795 4.789061700522207 -1.0314401992416817 -1.0949814143284369 0.07891924020472216
Ni 7.117020963035072 6.008828624632901 6.901001158116973 0.15327914317353603 -0.13599078840673354 0.1019601811845857
Ni 2.3003126621716943 5.126122806917685 2.4907001383974396 -0.31422145931928464 1.067559056451426 1.1582614053340052
Ni 2.328730858507371 5.245345668712104 11.388080942772888 0.6461665611705775 0.000616807648392486 0.6780487545911549
Ni 1.158287418700469 3.3861873760777943 3.8347761407061056 -0.38451233442504745 -0.40170967213994047 0.2515125103258378
Ni 3.488019998323515 2.948877449741108 2.8137750521346034 0.4736324264221714 -0.9650954532678605 -0.5799105182558206
Ni 0.9885994715109709 3.2294766808192907 8.068732731299908 0.666883996223587 1.3720334636862757 1.0591039837055374
Ni 3.4466967461732883 2.6588927235250703 7.171427053936594 0.40854006479821253 0.5494185203145505 -0.16078753573543922
Ni 4.215513190196463 6.803310788052285 5.945658827646407 0.4117449448887554 0.9482858379096895 -0.11053326756557738
Ni 0.7667778061850574 7.255619457580427 11.342420508927226 0.5315946047592522 0.19929109112727614 -0.4576283376844313
P 0.24621222081541283 5.4515738753373455 7.900115993988163 -0.1314553624302252 0.004163130238754121 1.2899229702377655
P 8.509530632512345 1.6265694789920755 8.030151126671681 -0.49907143532056625 0.08208581085816186 0.8294821028052037
P 1.7273913556075662 3.2096768958842397 10.362378082117903 0.4427663329709342 -0.5030638443094111 -0.36099034004370734
P 3.972979361513924 6.316420178746972 3.7623020692127573 -0.6182420668461676 -1.1325226058070046 0.22475838216044516
P 6.823209842647448 3.7182443891521753 10.411803543436175 0.05463465662574461 1.1444057303978354 -0.523342392052789
P 6.311420597683153 7.693136947751893 10.206097856203703 0.5814963746857017 -0.1252464054060359 -0.30161019831317737
P 2.4179111113461005 8.58562533924541 5.869922394141199 0.06412536972499924 0.10241912309887523 -0.8709221151175452
P 6.72781169927989 3.887652576390449 1.5723276342554653 0.466487587847274 -0.017392484444834565 0.4794444051182582
Ni 5.168041677028583 2.828282861734233 0.38786551353784865 0.0781489376976009 0.39887708778715175 0.2679788834119772
Ni 1.4748493402828349 1.223173678355444 6.944945129294155 -0.2571339702776733 -1.26393477370412 0.2012996369168727
Ni 6.732242735926704 0.5930098759649591 9.06041136717726 1.0490918508851739 1.2535737421847701 0.9486841017893726
Ni 2.659001017699738 1.4674763118908858 9.159328168770058 -0.7634286628195561 -0.3096202131018474 0.8297561824021968
Ni 6.446761242473926 1.8064370786003234 2.4770695116126173 -0.052480329286903174 0.8356987731388769 0.9348873051155963
Ni 4.110142958244935 6.937478245950826 10.324140311494247 0.2691464213575171 -1.112673175181245 -0.47801975685658965
Ni 7.975595228828535 7.445675734121981 0.5450536056163447 0.18477849933339788 -1.391074539478127 -0.715431051894355
Ni 7.607313814327857 3.810790785920154 8.16919452978463 -0.017269585713725097 -0.30445126730639827 0.12417528382904419
Ni 3.112410678003667 8.292590327109572 12.360475995947771 0.13365802650849884 -0.41809942635187347 0.2836798390870018
Ni 0.3859577311607886 4.971099695881084 10.213534056197542 -2.0094346199593973 -1.1568982064378914 -0.5064386743189149
Ni 8.606156109859468 2.4202845586742305 5.972022142017767 0.02887863070756317 0.9475101360859295 -1.1282054664888894
Ni 3.5964585652239576 2.778494614930826 11.550622376885784 -1.2416679918861195 -0.8817387461170749 0.24589490702874428
Ni 1.3249882515720544 3.253644330799266 12.57958759955263 -1.8302811801222607 0.1318014329157343 -0.11490954225640211
Ni 3.1339431697333984 8.169432776968897 7.870383828333186 0.15818866466001144 -0.00045045727385728876 0.6415910259847531
Ni 5.667241724187775 7.804797266348694 3.870081846550639 -0.6942258785716495 0.848221845306552 0.07139207858974156
Ni 3.161819895195737 8.332207946008785 3.490145271501366 0.41974004727909 1.1608199100898007 1.3218941238277235
Ni 3.3495568714964943 4.456133821793208 9.265588217856772 0.615957384577049 -0.9904352175842298 -0.24760546196194774
Ni 7.241478043271756 5.925460159167997 11.164491375045529 -0.05175862062953021 -0.2824739917043587 0.7535150032502701
Ni 0.5441809350588155 -0.02656546349740607 0.26358350888354376 1.171181455829783 0.036029639930047624 0.4794773152387226
Ni 4.631823071162199 0.5762242788914885 1.5080568464931843 0.3117621991455147 -1.3484885864868001 0.6981707221520106
Ni 6.236246391434761 5.726406441614481 0.3564854715250143 -1.0925828321892732 0.038496099192669185 0.03238407275766036
Ni 8.01471649942719 8.74957369517753 11.330136339714103 -0.7905628000321869 0.2034861030452302 0.105679796128018
Ni 0.13364042624849254 5.090169140928058 5.768892051239473 -0.4791584984467232 -1.3652264680667712 -0.5843896370730967
Ni 7.847149313158263 8.717329104670265 2.7666743057658625 1.0221292062534009 0.5753280410914607 0.06422821385145068
P 8.573803225177537 1.6359279005862628 3.6170633368573704 -0.42138118242693884 0.13781909986472393 0.7767112388610753
P 1.6188264455033454 3.1522539097667703 1.5671899781189456 0.8904696982321696 -0.5958547002899028 0.39841017545306223
P 4.574102276064394 0.9963334804851453 8.244970671153883 0.7491518411855679 0.17836308272535734 -0.8124940528876394
P 8.536441734917231 1.6406477216988569 12.467356931635912 0.6121261837564167 -0.02111312782953138 -1.1590962425304745
P 6.170322312605888 7.968077808203696 1.734393476451279 -0.10566719772252771 -0.7706233807957825 -1.8948438944949946
P 1.7739127281418354 3.55699436307219 5.987515428606871 0.86103030992513 -1.7307499200941416 -0.8563300762359833
P 7.0636951065258575 4.035058997142099 5.791055356536643 -0.7874209119690956 -0.5151470007261902 0.8257563172141844
P 2.394609814763465 8.346006428764342 10.034152877923843 -0.7661707443410676 0.4879303311020823 0.7645229243249995
