# total energy = -340897.03157902166 ev
CRYSTAL
PRIMVEC
9.00466086242618 0.00000000000000 0.00000000000000
0.00000000000000 9.00466086242618 0.00000000000000
0.00000000000000 0.00000000000000 13.17923137723614
PRIMCOORD
 96 1
Ni 6.290025768087291 1.9549388921435802 11.247524709537906 1.0204366490423264 0.6151343744551212 1.0623497443363445
Ni 4.4344352994893095 0.27724090212780034 5.90407159509336 0.15290324789135604 -0.6303007977829145 0.44559917443403907
Ni 2.591334295538998 1.4960163501331172 4.708030214424722 -0.06002471729306436 -0.10087260454736176 0.8307020912552338
Ni 3.344781285780173 4.348602871932285 5.000489893914474 0.31629248291570045 -0.5706195798721979 -0.2534696340522086
Ni 4.985655615572318 4.481754792440649 2.604624274539356 0.7582358057647071 0.24787877022799246 0.3809079049032408
Ni 7.129458265120537 5.966776451633026 2.5063600121643264 0.5188853847227 -0.06965786950745421 0.42551628764123495
Ni 5.178643507662345 4.424151976758495 11.706782224933297 0.0158819613375791 -0.0762226672091655 -0.9743403689048963
Ni 5.618233042752441 7.927469322082202 12.445491286703785 0.6193476412055204 -0.27931462013977054 -0.4603408515195878
Ni 1.8201571280150095 6.587908954828155 0.26963646601031116 0.24017368827425087 0.19021226875445948 0.29818703156424126
Ni 2.876106696031118 1.5650460804784954 0.5910488316440102 -0.8625945690884562 0.7153276935472713 -0.7540495355975013
Ni 0.2929405283810181 0.1357290544536861 4.750994152905925 0.5549114251083218 -0.5084415636815567 0.36341437610416766
Ni 8.604358685478033 2.2951800036880785 1.2450681573237974 0.89322977747581 0.10287960767506152 0.30714398364721296
Ni 6.677874521731452 0.8629850880443826 4.8014571729722615 0.3976149332452765 -0.8433352066382122 0.20670075332778598
Ni 0.6091707116753269 7.294162517370382 2.4014800254369946 0.2450271597118103 0.4231974097000712 0.02234545757473571
Ni 7.416220695668271 3.8052346201411074 3.721814541235209 1.3085261871612497 0.07099561448227128 0.025451350193569068
Ni 7.823204353693324 3.9041778339468753 12.446361136945288 -0.9825522152917271 -0.5928794197116628 -0.5465743659975362
Ni 7.893170568770756 8.874237376866153 6.824258791410508 -0.0927898275392273 0.025938060022000494 0.44087580081644073
Ni 6.85493316871569 0.7511120816736616 0.4416516024327908 -0.6974451568398956 -0.08607976250890337 -0.48963831493212445
Ni 1.9605668051967842 6.459826658398118 9.17867595673139 -0.30509969952367455 -0.03419644337605079 -0.4140949331781707
Ni 0.050912352644504236 4.838933671110069 1.1688346982703177 0.08927795773122688 0.18612344339706655 0.5364781581037986
Ni 6.285514432983843 1.8916811494255676 7.0152656581058075 0.26705097228106917 0.7010411017212701 -0.6045861666256297
Ni 3.5287825263068444 4.578581910938412 0.49013269663831094 -0.31720522453795696 -0.6987793022702868 0.3805548924391962
Ni 5.949550535359779 5.5774329242819345 4.855017796383081 -0.17283341115637973 0.38714360140030746 -0.3034742481051096
Ni 5.353802171199821 2.9369962129363425 9.186517215430158 -0.44810702845755734 -0.5638598925508612 -0.30721674586667735
P 0.25950442158236703 5.603024170517463 12.211638442584878 0.5467756833750648 0.48517050896875796 0.699549347667092
P 3.969146462233062 6.250585353410438 12.429570145792793 0.9573343212652029 -0.3243436353549511 0.585971636848236
P 2.4573089229247778 8.487568233797946 1.373789784676678 0.4065508022823256 -0.36319480389419384 0.5175065020973023
P 6.4364775727229855 7.659004362453046 5.789688989733955 -1.111676872706247 -0.184534758753708 -0.366904134424981
P 4.736505653541757 1.2167457974418092 12.590607700130215 0.2995674568515357 -0.7385187869517539 1.095499491615436
P 4.032314158342223 6.0077926819647764 8.10534559227481 -0.18825257392492742 -0.16015890101250482 0.9727789379550473
P 4.6207507378634585 0.9182953170651825 3.8109858970484374 1.0645493230908245 1.7254683599802283 -0.3227400383132571
P 0.06958891978634474 5.427190157413602 3.5611074579522706 0.5657499104847225 -0.22146325634894115 -0.6540480208011833
Ni 1.347295370954371 1.085133673944803 2.5998797187189826 0.293715626056449 -0.09023903609291556 -0.3904425838665534
Ni 1.8228945449240879 6.376020279540247 4.690646716585985 0.5627766867890114 1.4657797416015013 0.16739295686709882
Ni 5.9634897504099555 5.728954352995955 9.149404505592111 -0.10168301626379908 -1.9200990695173576 0.8994816719227927
Ni 8.530646531472389 2.313963726294452 10.258713893081302 0.5758975404416857 0.3144356322126198 -0.34523307720945057
Ni 2.3600405760436436 5.141409234902348 7.035732351831611 -0.1708102100787639 0.1037391274618794 0.814244717030159
Ni 0.5819000961847218 8.868501407882327 9.039581860504933 0.1971799583215443 0.7871712578521346 -0.10287189436557766
Ni 1.5096133880696578 0.979635067014663 11.338435765834143 -0.020722320149015927 0.48399834303752776 -0.055948490341161713
Ni 4.210624453189494 6.756638290493652 1.6950076496352584 -0.3552806912534398 0.6747135195703348 -0.5020973666310837
Ni 5.574263283650369 7.66080529463007 7.923854851202912 -0.08316387441368904 1.2731845744371622 -0.7440723697801315
Ni 5.252778880729589 2.954672362253845 4.712339845124344 -0.06336278052736184 -0.4722753981736447 0.3755211866700307
Ni 0.7274154160883631 7.415581364745426 6.827513976320481 0.20218898150036146 -0.3652519435335387 -0.06947660673458357
Ni 5.142282687008205 4.309810792839161 7.00884713582689 0.2524856728723845 0.7759856735489603 0.1687507564465739
Ni 7.999146422727807 7.188591873153162 9.218872762922594 0.6040971428043532 0.13332892530385423 -0.7273272891113086
Ni 4.537943876363837 0.5769763476127348 10.580879948831084 -0.455148508685371 -1.3549394843184663 -1.6544616897543636
Ni 8.219553507213044 7.0632019703277775 4.597363832612608 -0.743505698643384 0.23681325644245022 0.526029451966649
Ni 7.383650837246767 5.9896843089247875 7.089793634387644 -0.6438178584327428 -0.10966757713117242 -1.2381286112742935
Ni 2.158930479835232 5.404408365374232 2.4834944767787253 0.2338230634658747 -0.9752947623983654 -0.030483513300837824
Ni 2.3801659931219006 5.103688710454554 11.491960731595103 -0.9831325132752294 0.4825649530251109 -0.09974054782544758
Ni 1.079280644369471 3.3141564341098584 3.7799351249182567 -0.3888400152661239 0.47546588008648444 -0.21670851527277515
Ni 3.433162032367688 2.7519414270861113 2.920464556017339 0.16279633863535187 -0.1906005053318137 -0.8341944206792086
Ni 1.127545626713748 3.230980381513947 8.178780402725192 -0.7596470842899369 0.19790423808207852 -0.11242199994785801
Ni 3.6215485427454155 2.562663455280756 7.113529920480837 -0.2692052996199105 0.5385468677073691 -0.8558639352328421
Ni 4.061246133766134 6.710300305578792 6.1042641163575775 0.1338266908758792 0.5114438408429901 -1.6313860388818227
Ni 0.9360705176524219 7.521863377172572 11.22521296079674 -0.750315779586682 -0.3308832362456818 0.42292075899991677
P 0.2249886559435893 5.759146980943783 8.095672785552008 0.6765410596973768 -1.3631770417369105 -1.1055782160076768
P 8.413045660312639 1.5646768893822054 8.062078196721778 0.4789150149773494 0.4041139107060589 0.03586148978329953
P 1.748272920169046 3.2951385903204717 10.350085087548766 0.04683830050977739 -1.0932559469968977 -0.5246266580818514
P 3.880063352096507 6.011844779363083 3.800218123562004 0.6426503204872028 1.0642469613590575 -0.3098996920154792
P 6.864577160523662 3.9600247407564293 10.346052800404404 0.34259512536597125 0.6710944347605088 0.11743230867825583
P 6.1672832355621345 7.694041497957072 10.177990710110496 -1.2050657672820535 0.26091194926286676 0.2717252378282869
P 2.214894447236292 8.441167216256888 5.615130036611427 1.1883983339287016 -0.7096432415679843 -0.29082853431664113
P 6.998440449241949 3.7461190214302533 1.4102433533379348 -0.8174511397825988 1.527338893261221 0.2596361678742367
Ni 5.126839693590213 2.8548286823595648 0.7773084411206711 -0.1621929007233981 -0.15811821643339222 -0.765409697805327
Ni 1.593221664388056 0.9455254115818045 6.963339380645638 -1.0884338430179061 1.1284528066130048 0.19913759626854735
Ni 6.647879996323097 0.6079280684731795 9.062830093978151 -0.014608236831478067 0.09313435536283961 0.3927997712448203
Ni 2.707521434939783 1.6394605980331796 9.141194055797051 0.1432909216125726 -0.8063434599052112 0.7578465407460885
Ni 6.408446063387587 1.9377489945138742 2.636479162886579 -0.46573656861386237 -0.13094499845270996 -0.26066460913875106
Ni 3.936819729655458 6.929680858723124 10.31853455673946 1.7482179949719183 -0.09187631458602241 -0.048982086325657585
Ni 8.183489840368114 7.44046124277103 0.18569501723916357 -0.5390927129085102 -1.2096140487743683 -0.0892537893615108
Ni 7.6212748333443665 3.722202642119358 8.233843003571652 0.09416022552419268 0.09620039588267303 -0.37931459227419195
Ni 3.3138142569962232 8.290915444727672 12.367852200086137 -1.4846423828339592 1.0687461347809915 0.5146811168333653
Ni 0.24282598869093602 4.8712243850441315 10.017981488046155 -0.8390872299951355 -0.4147176543638342 1.1076410120739764
Ni 8.677134354751624 2.331928024760279 5.837569473058437 -0.348964776337741 0.5371350749615071 0.36870262108630053
Ni 3.5103229714923354 2.713149347992987 11.469608461879954 0.30316468728449075 -0.0268932248464182 0.3762043287799844
Ni 1.1344612062735249 3.1331807596405894 12.486544436145165 0.09228383443708622 0.09230568881395716 0.5160965091236531
Ni 3.1073103689176214 8.245549963188404 7.8928572065719536 0.1565092200750595 0.04762351541523411 0.0860244837909357
Ni 5.629281761658492 7.793759112598961 3.597007239969092 0.0442168037265303 -0.041504289891373676 0.3743297374650908
Ni 3.165858673992713 8.369913334672884 3.4592980605867667 -0.9092498070531502 -1.2478864619920056 0.711961862398832
Ni 3.534050252924643 4.340273560613544 9.565564813525196 0.22511345150701875 0.5582232630903741 -1.2242017167805561
Ni 7.365776585389792 6.1638524597649 11.333229270910362 -0.6061051743733175 -0.7540549349141401 0.14334208656548217
Ni 0.7162028123542038 9.068413884193017 0.3508233890166986 -0.13521122992823165 0.43279276669799016 -0.13947617585217267
Ni 4.602219145761868 0.3651714156710589 1.6610573767000665 0.7359721092705002 -0.8490273719269831 -0.3369384413008262
Ni 5.99267385633865 5.5649884829386895 0.4053114924986865 0.2793084494921835 0.2386307692671632 0.043236956311764246
Ni 7.768456015511757 8.797049423758851 11.104952112811525 0.8961855176700243 0.2783525133368174 0.8647303844845365
Ni 0.37784637633296264 4.889431809353858 5.763238698849985 -1.7582406693152428 -0.7797484830255023 0.3408246637291098
Ni 7.809526273808818 8.888779904195633 2.6059560638842663 0.25560673499986947 -0.8512071531871211 -0.21310125753749104
P 8.478239405120954 1.6918136964193038 3.5814300771039123 -0.7002332611079941 0.9823742949529662 0.028895342878111525
P 1.8769855428610416 3.4090655598390898 1.4941424802029224 -0.3757099056420691 -0.5208749043489029 -0.12228912254992487
P 4.6205976586284105 0.9755469509728157 8.142708631685464 0.5295297518104235 -0.6628118830367424 0.219267534249203
P 8.492385727371488 1.4623839417271702 12.34598798299096 -0.0022484297145445144 0.5536101897983949 -0.4427989859810826
P 6.356390118810672 7.653367444738956 1.34934213037356 -0.2936750026265007 0.3421485247468559 0.5171704589141222
P 1.8081088917507104 3.1715406150112275 6.0155943201556505 -0.3457722375423722 -0.6470003699257825 -0.04554246451648931
P 6.978026883015368 3.9070593254301156 5.885067258295302 0.11518773561845323 0.0059112232781124005 0.9715697481382943
P 2.506591431949074 8.523271714207471 10.061578454187583 -0.3328586148044977 0.4997895444335135 0.1702507380308681
