# total energy = -340863.4880430002 ev
CRYSTAL
PRIMVEC
9.36213265054881 0.00000000000000 0.00000000000000
0.00000000000000 9.36213265054881 0.00000000000000
0.00000000000000 0.00000000000000 13.70242747295260
PRIMCOORD
 96 1
Ni 3.7469127850625736 1.3643529735644242 3.5362133055657323 -0.13955947959459833 -2.318415142594717 0.040892110228671515
Ni 6.840067837425832 8.160933704182462 5.917735792750791 -0.9972406705418373 1.2456693997360289 -0.7230494876715611
Ni 0.6889106688977874 9.127302412860049 8.415414261456691 0.6359713658051305 -1.1032385121309065 1.7783875765767632
Ni 4.651510141594233 3.7582128793396468 10.201676430251833 -0.6261065571959088 0.9389283079541895 -0.0013292603343848075
Ni 8.155597288492377 6.369761096739164 6.436058103875594 1.1763676280164128 0.30980224720566646 0.24030584297674099
Ni 6.422207764626627 0.8912038893628267 2.612038793157693 0.7350521685593921 -1.3291376927640142 0.858019033902632
Ni 3.2006791474520693 6.894855038510701 12.00212129400997 -1.3744243325159555 1.7285151172263522 -0.6176059759240654
Ni 3.873404561183158 2.9042459369342635 5.2016880457490045 -0.0008944867898113626 2.3999782481801892 -1.3923318089239956
Ni 1.4498292459336743 9.22268382172072 11.134030638078164 -4.287662905922583 0.5490847911242156 -0.6605608822190365
Ni 2.480590703938282 9.31185813654187 13.103878613598122 0.08565707314918797 2.7046030649499744 -1.5090776330581883
Ni 8.073622453786445 0.11325652899589593 0.6714437377521892 -0.8273979665826653 -0.7905910821669611 1.6547537670734858
Ni 4.286377600666181 4.849060505588049 6.643252400856001 -2.016262184404192 2.079120771601626 0.8301876135126606
Ni 0.32725241544796296 4.734187136259386 3.388021041852082 -0.38982089112215446 0.432780682513132 -0.7818629582653438
Ni 4.05620956603332 8.676010163869103 5.62248970067071 -0.12490650556811392 -1.033364155737272 -0.22682503488148675
Ni 6.639100294963804 2.0651460613988 8.215372633927556 3.572483565027718 0.4267509313792844 0.4063764814879905
Ni 7.313529616862604 7.446705955794978 10.080190586533858 -0.1289228258163586 -0.6167120033548862 0.6572603570908938
Ni 5.019451322359172 1.666309842428107 11.406024000948662 0.17137276745045324 -2.350187292799991 -0.7062704684410095
Ni 4.747340932828805 5.350131214621417 12.433445986187213 1.9835209854174292 0.2866934291023449 0.19687142594218998
Ni 1.3892936953159776 5.039533097192913 11.358614160502015 2.9477504911405683 0.2313118670082468 0.4999574374699455
Ni 9.205532394450131 8.727567429141553 6.25196580576686 0.03591111207431235 -0.20103789861505378 0.3825318136599089
Ni 1.4181384264408035 6.326058660877208 1.8461554771034696 -0.02712359568966942 -0.42661389158078783 1.2655717950869108
Ni 5.210176691549355 8.550988242596489 9.080475833286195 -1.1941475777076531 -0.9425731037956283 -0.31665398002017725
Ni 8.66245379558973 3.4027607837160634 5.232436098469961 -0.8310394199899945 -1.3542126334547708 0.35350200208646215
Ni 3.026674547424152 8.355572444878707 7.84907918853359 0.3604966882367404 1.103123583819597 0.2040437753209131
P 4.720087764278215 2.9931206635061467 2.8133414999735904 0.1633234147834155 0.3783378301832194 -1.6243517577428606
P 2.41771462012318 0.46238450392008995 2.0854543998460486 1.3459275106278432 0.4125692405622637 -0.38536285535080084
P 2.399954654221267 1.1843004357544111 8.592038386239146 -0.13520094551558653 -1.7957000997132815 -1.4221900299360088
P 2.7896066209253405 1.721508977355719 11.538882963579468 -1.2250607223467418 -1.1714231395269439 0.03624149883053758
P 3.111561005427656 6.354641252283924 5.2069776507751415 -1.0646159146627021 0.4392997145785725 1.0003815301636643
P 8.076449817888912 6.194810921299496 11.930237902237975 0.321498195486356 -0.30102912899872675 0.27254850506053063
P 4.682405179799987 7.190829504521815 0.4425002700882115 1.619371788029766 -1.572236010884228 -1.0864152699259806
P 1.9838172138553525 4.287566591530463 1.8957860154478146 0.2602100380998357 -0.28290182327039665 -1.8090232991847488
Ni 4.689155277541304 6.09287601948609 2.2830712349826716 0.6010809816858487 1.7650862314821665 1.1121988066479878
Ni 8.959664063129074 0.8555369720742032 4.239161556368279 0.5032062834245463 -0.9029894279657351 1.265279974878105
Ni 3.1879560089909726 4.756197510447787 3.695257217395833 0.08925533202340757 -0.29186263200811025 -0.23713927232330131
Ni 4.694313812708386 6.0611758378604295 9.446234700897875 -1.026082277363878 -0.261912108392607 -0.3244737331749121
Ni 0.9483372409247747 1.2652079873223259 0.7393257539699026 -1.149247631871169 0.7317963806262558 0.4608519868280514
Ni 6.800091530414146 4.9512949956507235 10.599115819010315 -0.7961210108462546 1.1011158093609488 1.1806014635921023
Ni 9.340216036761635 4.537029981842734 7.473633322124489 -0.5791265889019446 0.09993286634191177 0.3941894525034953
Ni 4.868337137001882 8.746600645102854 1.922902496859676 -0.14276461679545735 0.44493762959064015 0.4017942614339467
Ni 6.185879446618196 6.718303938364007 7.77986868567303 0.22212428697170777 -0.1676104721945436 -0.5255990492974496
Ni 3.2730390717830593 1.3441494910044196 6.529220687265124 -1.6839938948855258 -1.535458437044562 1.3614253491531263
Ni 2.840686417425519 7.9697776768839566 0.9574887257266305 -0.5603091990851253 -2.0355457152241527 2.13121183586991
Ni 1.384322402804688 2.6039555277071336 3.3040249226768714 0.672768480028822 -1.1487352110111249 -1.7776632968162287
Ni 7.091834312404351 9.366345749377471 11.959013353580158 0.5845307906366514 0.2959997941049354 -0.6596576536784768
Ni 8.938093709181786 3.7503112392652063 11.773564482430206 -1.3352209228436165 -1.0084370534782892 0.860784255352595
Ni 3.319362904826109 2.1386668901957027 0.6367710789658236 -0.14755252510240394 -0.8387933529038006 1.660534892531637
Ni 3.00269812534993 8.086270695185226 3.5216608063575436 -0.43547699839837256 -0.2934873120957268 0.3706833989617551
Ni 7.482057369208591 8.958203570413893 8.204465749227646 0.8396811548253925 0.3216550327791944 -0.7866570372198775
Ni 1.888314097268417 2.8834151914773543 9.664253495809643 -0.7334665692398271 0.2891190078247021 1.3934070442660453
Ni 1.7152550726522517 6.346514921022533 7.2595737731694525 0.6062360435242269 0.6873062686336808 0.7655508513688816
Ni 4.44569301434718 1.7821007007701537 9.055070749748278 -0.9399690905138779 -1.1523751217565572 -0.43882508893499905
Ni 5.803202268842391 1.4802468153671566 0.09194456991360009 0.1778529758581582 0.12503454650554593 0.0008338087552050156
Ni 6.342844964969 4.299568845766758 8.343641342851612 0.05090629993156394 1.162737695937804 0.6777219673793554
Ni 0.8184882039858316 1.5736996248731647 6.976700675784135 -0.7187750286659234 1.3186419354390129 -0.5774281181535991
Ni 2.442889395194474 5.49152750614308 13.607387222009907 -0.19766821081187247 -1.1988565531475481 0.18000241810099324
P 2.6973334401508247 4.856400417695114 9.44234286229723 0.3678770398612116 1.6052263497673194 -0.2951988954701948
P 7.928921329390045 5.352958578723883 4.551110629558326 -0.297670496939139 0.2446155260956884 -0.8135644031336828
P 8.659027254988729 3.1149688217630787 8.81056554496139 -0.3627093796173431 0.11354222959523026 0.956096849313676
P 6.418500360041937 0.6836379157106722 9.829340664355444 0.6610925863527906 -0.3380208757317275 1.4981774412059166
P 5.646695494998277 8.555248013015767 4.082501243546416 -0.5235635069246596 0.3975424281361283 -0.8811345368741728
P 1.1733092918593948 7.502991098126186 13.182174130117733 0.8845206797375864 -0.7064802704589704 -0.4619259366185206
P 5.3300026291237295 7.116540980836163 11.16414861926238 0.27516254564461 0.9267199388134556 -0.1983176714704133
P 9.164310923777425 7.090748305000755 8.271757951079614 -0.06961544630529301 -0.0077932707921736745 0.9875532680507444
Ni 4.898923224825578 8.806106361113693 12.572278925751075 0.3577160401678098 -0.820173423809768 1.4039938186429561
Ni 1.423821241044104 3.240337141948909 13.156097781658797 0.2311419170892858 0.06659954229710466 -0.26513652886717565
Ni 3.4539716500752964 8.91220741201848 10.802226353667887 3.119660104931098 0.4748236185167951 -1.9361712924888717
Ni 7.005964830457938 4.838462571270198 13.651166427360737 -0.061587433794493926 -1.2924156547526322 -0.9867387425692491
Ni 2.2524448899879803 3.848744703415293 7.257709772531038 0.1008468935157489 -0.8947559843123494 1.0712269922213167
Ni 7.6118539782039125 5.462205306245983 2.251966485002431 -0.9142593444525996 1.128720972672727 0.9819953143469927
Ni 7.132297450321097 2.6958448610372745 10.445812767006808 -0.17919946258372363 -0.5362467588192829 0.02726526347385627
Ni 5.450277949072005 0.7912069490368726 6.973576532072239 -0.09951454785757054 -2.082622356996981 -1.640510112670278
Ni 6.67313164765408 2.9502514574624668 1.8704090183082647 1.114728515048377 1.7602805825634071 -0.5299030759894422
Ni 6.929775793815991 7.184706669677403 13.661566820676729 -2.824924265140251 1.916710612661099 -0.6750691031375405
Ni 6.2280839412338125 2.081033600742789 4.799590059714407 0.29961656492191624 -0.5043648225090217 0.6791054779904433
Ni 9.028354031406533 1.3099496199239298 9.98776761163471 0.10390444939515009 -0.25640326275923586 0.3734661039132149
Ni 5.944074280927834 4.265022575773052 3.8873101370155836 0.29839709069251835 1.349757940117527 -0.4955472242173918
Ni 9.080014280139668 3.996366813242055 1.1093387747211858 0.46448238449178714 -0.9895980663949151 0.01149617356505762
Ni 5.201853755499381 6.39562866963689 4.6997681912716205 -0.0334420817085295 1.118097688630926 0.2139641197584186
Ni 9.086914172005619 5.4727938784310455 10.040495143505861 -0.8960759886753534 0.8626045963907853 -1.9421449935738035
Ni 6.3603989639495415 4.804899325219402 6.092811420769841 2.9243886764861764 0.16145242301294774 -0.6451165226395082
Ni 2.0098158566121334 7.190295862952807 9.727421678167781 -0.3070048869661874 -1.3638691827079286 -0.19787158507193017
Ni 0.7770925976432382 8.464950242259862 2.3285627744207242 -1.2467646896827367 1.0034768812595363 -0.0868490365747601
Ni 4.401260332127634 4.437660304413685 0.9345000086617132 -0.013693438326692547 -2.315476628791683 0.13026931254192403
Ni 1.1709125858652516 5.056366211948653 5.464705931914092 0.5248176910467348 1.0290159060709052 -0.5208592206196191
Ni 0.13244141150838962 7.315561199677951 4.414552688262339 -0.20425100623571277 -0.931159462642048 -1.0868932380036636
Ni 8.877623693493616 6.522888140646224 0.5127424799821886 1.9107615941665157 -0.4009349987574449 -0.28487745893952876
Ni 3.75070444884237 3.313829884347443 12.447654895122021 -0.3271343107262108 1.1826470332672214 0.37374558282684667
P 5.35848223706976 3.025588540020556 6.785085903978939 -0.5263148444175516 -0.9285927303561361 -0.2858642483328303
P 8.034816413373463 7.814516066700864 2.3638608236774368 0.01951107344973414 -0.5988626338782913 -0.39073568962694
P 6.089468203150667 3.2171939496929625 12.285294915857834 0.11395077788755859 1.9902305362271204 1.5690614698109882
P 8.70457403101024 2.049211711390863 2.6161225554805263 -1.489136671159887 1.177912346795713 -2.8529724295267185
P 1.6926455219653143 9.16297213878851 5.17959996585845 0.5015371232522395 -0.2097392830437936 -0.09860823399321728
P 7.755899753305039 1.048203111391674 6.154897340577499 -0.35580648184992275 -0.19812740983647814 0.6615664406654156
P 8.689809947601006 1.2505749737721463 12.77602046815867 1.373797240454918 1.4523099892498406 -1.7204845336123917
P 1.4505875786896336 2.9520864354892327 5.309649352439091 1.1583611641366631 -0.17114522482067943 2.048961474409426
