# total energy = -340853.0683675114 ev
CRYSTAL
PRIMVEC
9.40572008783606 0.00000000000000 0.00000000000000
0.00000000000000 9.40572008783606 0.00000000000000
0.00000000000000 0.00000000000000 13.76622209329993
PRIMCOORD
 96 1
Ni 2.713390339468879 9.184384653516837 6.59084011788196 0.20334134993724978 0.5871263192779695 -1.1258649912811705
Ni 6.136028405625259 7.259598100864128 4.7426283539367935 0.9950115241010024 1.6656228485775053 -1.5282369795954585
Ni 6.219551199739588 2.780735295083585 3.0270823902645745 0.7737233598773449 2.499088875731122 0.8034162589560873
Ni 3.901765445906815 0.5810750388862219 3.8624852778009306 -1.3484510483806453 -1.0151640877894776 0.2626584996403283
Ni 6.782718688207535 0.5507180773992858 5.3647932214680445 2.0049627002309727 -1.5175741005649734 0.9364978441358259
Ni 8.462185250309581 8.039661493867708 4.980509360493649 1.0791290206772124 -0.6332105152305417 -0.6386959638251452
Ni 6.149450368147912 5.019334291748731 1.7997544347787697 -1.5470962783938065 -2.0190608301952517 0.9188364223003208
Ni 6.562352072970533 4.199870337422526 10.702508315461342 -0.8732772456132832 0.4585662761176683 0.6451733440193728
Ni 7.793391525591193 8.791150309335327 3.0141147240207204 0.990593597538965 1.0239336064519913 -0.3072715103640128
Ni 3.849986956987967 6.6520356137227985 8.568619437912997 -0.7077740495697294 -1.1949484763423937 -1.733479146099847
Ni 7.898585098718968 4.5456716353519475 8.6599170002272 0.558770908063728 0.5165243406896911 -0.10389570764440172
Ni 5.886259509487199 8.413999746452857 13.179491524706442 0.5390258642263169 0.9901449400373203 1.1985472494372458
Ni 3.463026228085088 2.015241362449724 12.748980430791384 1.1649097638884582 0.07742465793706665 -0.6340073001002242
Ni 5.470263322765523 2.122541816870473 10.852188122747062 -1.9516781298752193 -1.1806125193356956 -1.0359931087196868
Ni 2.9069506525408113 2.8187249983975233 3.3204402148670527 1.1188888170736537 -0.13759258567621466 -0.8684687684810461
Ni 1.719092860706061 3.5551176331721805 0.8311411557781127 0.7527279885726005 -1.8270914695403695 0.44890689865103334
Ni 1.2577140747049207 6.100945069809219 10.897782350727828 -0.579521510347518 -2.1248972065057923 0.8656721795725155
Ni 7.953279360855771 8.563738809774941 9.579308265020751 -0.9248484328223554 -0.45626076791294323 0.15807913566534063
Ni 3.086693962847659 8.74854239747295 12.927349565397769 1.401546128433412 2.315122330776058 -0.9885616547106006
Ni 4.167129025900906 0.26077264803382083 8.979128327552884 -0.7421013620966896 -2.1526311820859507 3.379748272741089
Ni 8.278895983540899 5.738975339100233 3.1540614921905035 -0.3639676775044764 0.21813007821065017 0.5905469149237441
Ni 4.441324577029385 6.181890696627677 6.224838154984144 -0.5572668127143757 0.03642533270656952 -0.9171387228829238
Ni 7.282642115006032 6.5313884425398605 0.9201230298140571 2.589245636522876 2.7000907789019175 -0.4515355945231321
Ni 1.8253492802003808 6.946030205573198 12.975145672444095 -0.9122968214095901 -1.480026995549135 -0.25931375153781144
P 6.122126751379654 2.4650699242197387 0.9212291424928686 2.5577071995949625 -0.5072349449679652 -2.1644176331979175
P 8.068659328806275 2.213946604393338 4.3195788177436825 0.17723539687881734 -1.0369143349823755 -0.8528817126760666
P 5.345684560598374 1.7866917707623304 4.675545817911704 -1.0792712026820317 0.41148680613136235 -0.31064839725604565
P 4.146351790292962 1.7833433344217111 7.791502857003563 1.619174327306979 3.245588366895507 -3.0547860299655327
P 2.9636859559301834 5.202990381599673 0.2169946645962389 0.4407806699994732 -0.13812531825123306 -1.1013747194492902
P 4.984815299136166 5.831668710271034 11.041432150884413 -0.8910638801727427 -0.8784528762769518 -0.4642491854350585
P 0.055163607567693874 7.280206033511031 0.541492947166478 0.23985898524730948 0.9618010987873049 -0.8765525739304452
P 8.88509464127383 4.838575163675628 6.804175957375668 1.0115671144668386 0.42554328422442844 -0.538866198720001
Ni 2.791627118910656 4.3226055784583215 11.514219134743806 -0.007880431189341267 0.1780100702613128 1.2590465923738832
Ni 1.5634375994675462 8.914045447612105 1.4208393588134356 -3.7643295127308587 5.325494096292274 -1.0213362780384603
Ni 7.888031880813982 1.1765521163251307 0.03324451754471756 -0.9374756346680629 -2.872601002390924 1.3034279467027359
Ni 8.85895614523287 3.031303677426569 0.44895947323666296 -0.38284754512811486 0.1381633705780201 0.8013115539082587
Ni 1.8099427107455082 6.74476660777383 6.605308937047059 1.0362967560030345 0.0037036741038323313 -0.32600405377650954
Ni 7.607647365887392 4.707468831788284 12.988953269489121 2.0824819747643746 -2.403088511674397 0.3667069308125104
Ni 0.7609989390181815 3.1045930481178803 5.5610858962168015 -0.4163104527722507 -2.8821174265217913 0.6225651197015537
Ni 7.707197506980417 3.0245597761450407 6.268875736295326 -0.1460754263362452 0.4222160196234083 0.3825796361787088
Ni 8.138713131797662 2.551931748954628 10.081127884982923 0.3059365936026731 -0.6666166014948132 -0.3114994324024313
Ni 5.325462262473847 3.31968305440239 6.080333374874294 -0.41659250278904386 1.2670239541524049 0.15350051515572274
Ni 5.597362817908193 0.7585543923751281 2.1520597881282426 1.9558952532803604 -0.6850259572399364 -0.0012665254172494317
Ni 0.11763075676036247 2.842239298542323 8.089114888788238 -0.38948356238739373 1.8468005179335227 0.16723072025762165
Ni 1.0055749371122644 3.0800535244867673 10.501810001437455 -0.3687944094691584 0.547386063265554 -0.006801082082233448
Ni 0.6786264644669372 9.11324919271879 12.752684403350193 -0.6182718916428385 -0.39329136616925814 0.3712012191384381
Ni 9.102996957855657 1.2325443678299273 2.308016972980617 -0.06902743501230693 0.7868133602920836 0.6397076929191111
Ni 8.984541319446215 7.639259991002062 7.02429708331916 2.1971647457219516 -0.47163056550079424 1.1157433294661365
Ni 5.89724539051485 3.418668852291938 8.362319077022612 -0.4512340041223132 -1.2317119091146722 0.321382238733782
Ni 4.85660592902666 4.207300856268282 12.755327410686467 0.3011828809677716 -0.0618532858613709 -0.3542892738744479
Ni 3.988495590560894 6.756514352126172 2.8759287066457797 4.37884425132411 -0.12733876915869036 -0.42081553973145586
Ni 5.071959295472793 8.52209968707853 7.288980629753064 0.6255853945851161 -0.30891547372533895 -1.6039490257167925
Ni 3.115616552025762 2.2328426959896985 5.6086619094137715 0.244244773019831 -0.12666668279233023 1.5732829640915031
Ni 4.122404827025498 7.04291852788983 0.2911230255167165 2.489542112582951 -1.6847729391433952 -0.7089719265325726
Ni 2.321124784453334 0.43239976250268936 10.706913014164467 0.2035408675425656 0.8708920332105583 0.32070860970552506
Ni 0.7282444594884816 4.548352265568454 12.848826852066232 -0.07935581352150849 0.7024662642035708 -2.520869461941323
P 0.3719294476783171 4.034781138965918 2.7555298464723714 -1.6264631476589086 -1.2018030373703819 1.4400028897477135
P 8.734640743227345 4.825614081435815 11.019227126971677 0.4330336790642026 -0.6274597287896936 0.33860400192870715
P 2.0480014854114583 8.466220304214428 8.432292931393507 -0.2875454926899951 -1.5707797380536754 1.5972132496548557
P 9.500059430100741 0.9992260760731685 11.098755311777406 -0.7166294430778304 -0.5193633528003829 -0.6446092439857866
P 2.1020561585843236 4.648128143942867 9.339308149734846 0.05061859348781605 -0.45908126808087385 0.32168125803143954
P 0.9331302000821545 1.4080080755104212 6.89994688014942 1.9831345486122882 -1.0299939537134584 -1.2581657324308266
P 6.532517128946811 5.5211858911591 5.654764986849671 0.9811687046806392 -2.294693630608061 0.5824546248339131
P 6.221789761113373 7.9381643687226955 2.101441024492536 -2.7530956132337234 -0.49861403606817356 -0.4030882976550219
Ni 0.8429086521425762 6.276220663088555 8.660922471701392 -0.8020587164869284 -0.03311349472451716 -0.6170704151355695
Ni 2.3585595502838546 7.115182675094827 1.5260272885091757 -1.6550903244772979 -4.492236328494721 0.7474279165159257
Ni 3.140569927339423 7.518020259455475 10.48787918945967 0.2188574432949779 1.091143271529269 1.6969548259215679
Ni 6.242341259439928 6.226069363739726 12.720690846573177 -2.86239629394378 1.5275911184813435 -1.576628997745601
Ni 4.177362449323923 3.959403698421748 9.7688278807558 0.5928030579477727 0.42643494280076233 0.016183294628081806
Ni 7.2983966961030475 1.534355113048458 8.142197010507115 -0.40131783601816046 0.31801177959965227 0.16330798816444778
Ni 4.344934757875823 3.439700042341447 1.1961837352300209 -2.186198733628751 -0.020792254155002902 0.4152092492882721
Ni 0.6781354858799138 8.134631049292523 10.391570259498605 -0.05946884478959436 0.8359031758401991 -0.09826602016245012
Ni 5.5767266681011165 7.5247641607370035 9.75148279239699 0.16399138738471758 1.6837031031179843 0.7771172160502423
Ni 6.8932358988880935 7.0107039366914545 7.6145379964018245 1.4936636124959632 0.8699150140092696 -0.31322875638871217
Ni 2.192003059498211 6.69448362834419 4.126920513225306 -1.141593457760021 1.493294144971686 1.0923632599792994
Ni 3.818252057512545 9.103655358259712 1.4893816625915144 -0.18860558638897196 -0.2024502055815481 -0.4251229088575582
Ni 0.28423803843431916 0.5095661710018751 8.815310782448105 0.5089956364128136 0.2881540728082715 -0.22330493754337027
Ni 6.9842268347284095 0.2845587734882942 11.323186138651437 0.16531756239530884 -1.6777677114701555 -0.058660747066002196
Ni 2.248484408446019 4.878906891283988 2.560834262989449 0.7952491497642626 2.3955412954547577 -0.36052214215803713
Ni 7.49208868925579 6.327368968763522 10.133178199211446 0.7469399211359136 0.5213983809525408 0.3886638946995758
Ni 1.4661448311884235 1.347764438539445 3.93579063821634 -1.6822684275539865 -2.2343927768354743 0.4593892862395959
Ni 1.1459835261368914 2.092763307167099 12.643310928228678 -0.30713241368298716 0.08565553048729119 1.1594561969730546
Ni -0.08549987647050263 5.170653516040544 1.0748800447870408 -0.6535289150729197 1.8531683691330791 0.052973981093870054
Ni 3.2332538927901653 4.40178292990589 7.496740758396437 0.31093224704505157 -0.5400321940036441 -0.24781809219338613
Ni 2.3670905383763885 2.1314208166051496 8.811428101208195 -0.12757608198047704 0.4786869581269433 -0.2503346879676528
Ni 8.327316630399068 7.302732733049749 12.33650386451538 0.6027995070388522 0.21410964419734738 0.24279415661623346
Ni 0.6705873955334332 5.118762158481001 4.964829084585092 -0.25422271016814924 2.870276982243437 -0.9835199785216353
Ni 7.2393099626991955 2.266336465115951 12.096626964162233 0.3956508675403702 3.289909557410386 1.8077058659249061
P 4.907594337460643 8.993269827659965 11.431002967103366 -1.4783868888425507 0.8073981264219707 -1.0821554662083621
P 4.294971572928152 4.51699359489535 3.17790499253733 1.491122334131348 0.5313704045635882 0.21064251158435338
P 7.5532540867924425 9.022747354321485 7.574478094103139 -0.8973229737085772 0.7377315151637682 -1.643299759600273
P 5.782655503049212 5.479970025865296 7.911681623327616 -3.392798678167144 -2.82238735765101 1.258544455926484
P 2.4951023883646766 1.5665697042468334 0.8289759590207795 0.40623481370380365 -1.697641567575947 0.20988300771050947
P 4.18013713674101 7.945275093086482 4.685071931186365 -2.0963219659712604 0.7955877640506039 1.2306513290606418
P 0.7525149795259378 8.414742798337434 3.3119882348230063 -0.7616396892399335 0.5253167421703404 1.7034190934896727
P 2.902172546751388 4.4900932355297 5.318084415660414 -0.5214737142751664 0.27613905062526634 -0.10128346683253524
