# total energy = -340871.10553548543 ev
CRYSTAL
PRIMVEC
9.23963522612211 0.00000000000000 0.00000000000000
0.00000000000000 9.23963522612211 0.00000000000000
0.00000000000000 0.00000000000000 13.52314011007078
PRIMCOORD
 96 1
Ni 2.3497131345034883 2.9818889711375256 3.8192188946448624 -0.1617247028377279 -0.06612080288847323 0.4773682393155198
Ni 1.9376531259333607 2.1680896264544494 12.764207618837782 -0.8008402706987949 -1.0556790171843884 -0.36965495769724077
Ni 5.6182710256557415 8.035248704016228 11.499212866963603 -0.2939477966719131 -1.0592230257819049 -1.2782825577853598
Ni 1.950265227906548 5.3014162176216715 10.978139023132927 0.5892719048660626 -0.4247917507703846 -0.9027060923973614
Ni 1.1439684669613674 8.36770001617538 1.3884612244288366 -0.14717225894484978 -0.11884178743127276 0.6741959565039679
Ni 5.367710599788425 5.10042643430831 12.488240968211732 -1.2698143724133486 -0.2971804446765979 -0.4322278953334556
Ni 7.275288713324185 4.84224330944621 6.032266737788786 -0.30827526903817876 0.03602604038562183 0.6047383759327778
Ni 0.3711275009134128 7.639570568558525 4.777279434740365 2.8964605826173404 2.3185290424647618 1.2810596063098647
Ni 7.551267375475925 3.5234886644432453 11.794598458774304 0.3716434488821793 -0.07947434137724378 0.9407602189566054
Ni 4.166327040034834 2.126779217720296 -0.05754444768425581 0.5107506714307075 -0.5555210336678625 -1.8136494851028508
Ni 3.8771356996254696 4.559066971516366 6.971908989185865 -0.7791941531839289 1.144365106967887 -0.6183765355415027
Ni 3.5697330383449315 3.401460803080695 11.166746771388217 0.020819507848512532 -0.7665756930889701 0.23970214795447106
Ni 5.391752130436214 3.1675409601098683 5.760803485332503 0.3696644707789376 -0.041443868967083464 0.12806819112554718
Ni 0.18357307106467477 6.358679948380558 0.6243082873079061 -0.19360766758925366 -1.1824254041747184 -0.4068688477433767
Ni 5.08551366318397 2.6564320627832823 8.247952496766663 -0.1544320258310566 -1.78960684233135 -0.0982955878488049
Ni 4.095459038471211 7.387541040703122 2.9414313807272734 0.5865406219778285 0.16055665067155575 -0.5576015703459752
Ni 8.913965725229422 8.585921719034527 13.314126679628233 -0.777684658517938 -0.5776422910469342 -1.468046683258807
Ni 0.5370038987845013 7.5240566499733355 9.20393042310044 -0.07253981904093958 0.8257246926453005 -3.04778234495419
Ni 1.615688799664 8.815027712094707 7.41320967109998 -0.5827703563021189 -0.3221587118884903 -0.857059241092524
Ni 1.5719206479812255 1.5426772027466928 2.137561871934735 -0.5338980560814482 0.6839957162032091 -1.965103659252506
Ni 0.900479133870666 3.9062590296031146 1.63696213562229 -0.4318373447632563 0.7383118131472705 -0.017213792775125192
Ni 2.7651363702664664 1.2065854743403337 8.91000469364268 -1.6913847880329582 1.9048377724829129 0.7315397845307595
Ni 7.436621982594383 4.790482873362844 0.23912730133865623 0.8020484320742832 -1.8985748222923364 2.2377015294937332
Ni 7.649327623271848 2.5013447868712344 6.50168270548621 0.2737697790621414 -0.1120677019322328 1.0816250476261886
P 1.922315331592342 8.949732352876461 12.782260941947975 -1.6224979923635734 1.4121380450166454 -0.9577395271234215
P 8.718325690665127 5.523823475201589 2.554481004627719 -0.453089055053181 -1.3049916916454298 -0.808692162643046
P 0.3341458612447818 0.8214626980724985 3.6736826295824 -1.0267224820510383 -0.47264795102171503 0.601471532256048
P 8.232570352176948 0.41369819588137047 9.618414911932666 0.260030575099178 0.2648179691854923 -1.1642785580623625
P 5.688612368016088 5.792613701210369 7.091345132890188 -0.06132055328635245 -0.2894535083459854 1.0508504854474934
P 7.22689150443367 3.2073637875856464 4.375317423420418 -0.21362190592765143 0.007471882897012938 -0.17465452352551855
P 6.299102780964359 7.976161237262725 3.0367964269513434 0.16932436956185676 -0.3500814064406874 -0.6750469916503536
P 9.071640098982124 7.314390849258638 7.108709179218548 0.7659213473344227 -0.3377743069385602 -1.2087586427526087
Ni 5.0212335214788695 6.985127211224576 9.065426444346983 0.6159967224554166 0.26167171024702673 -0.03042514925907663
Ni 2.835717943140588 4.402270363102457 13.344323655209749 -0.009463459405744992 1.7332130369226537 -1.3302023865831027
Ni 8.241763789146415 0.576255716808306 1.7804970957123043 0.941906673856223 -0.4722733412911157 0.08099951977251857
Ni 2.5502501756947358 6.992592836421891 13.272285915836747 -0.7309713136217991 -1.4365884647495257 -1.2992666162361945
Ni 7.311618958715081 2.634617284205484 1.9740535925513591 0.442092189722045 2.6454466091944764 1.2891832638582637
Ni 5.852523495491794 7.926941700844288 6.766911976110033 -0.0450711813070256 1.671793753274908 2.272311663368435
Ni 8.334529726004142 1.0912471088229019 11.772096251341704 -0.7121084152790252 0.7070024615110276 0.7711316878907687
Ni 7.09792467707708 6.763228133577644 12.951678891970214 -0.6475500717816653 2.5450422025327843 0.6911544387351773
Ni 8.486789673561761 7.590600502289008 2.7633318695226103 -1.1467359211929087 0.6406543731030967 -0.10743483114591174
Ni 3.922123483147409 5.046928946817649 3.8005705390313214 0.2840631905683495 -0.02911877174282727 -0.8866338694258471
Ni 8.148886976666944 0.0649259922017497 7.066544104233464 0.056239282108703145 0.6155426656371334 0.7490929629231744
Ni 3.420161824614563 7.0682562086258685 6.971070030314681 -0.18353691361681293 -0.9350179171561896 -0.19439391093597488
Ni 4.041739799737066 0.19730686474448816 12.188852766456131 -2.0578335800880754 0.04684138583357094 0.1246463099281918
Ni 4.60954309831455 7.599849377069345 13.834577772050123 2.0390015349832367 0.5318663703634001 -0.2555447714136825
Ni 6.515116211023803 1.8875096260004036 13.477607240106172 1.420810633089979 -0.029956180042458088 -0.8420743376479175
Ni 4.464000365507485 4.662088903385256 9.291749459301432 -0.3681153811242628 0.9849238008476973 0.5803285796298457
Ni 3.779140129275563 1.4790530751369007 5.247925197875611 -0.9087944646832865 -0.11975375772258084 0.4460516885904254
Ni 3.517686173572065 3.3490628321723106 1.5725517150616422 -1.4661448382504039 1.562731413827902 3.2048883180729835
Ni 1.2651555215257058 1.2789502967974773 5.62711335648969 0.12433289245283101 -0.5123442411700725 0.03718946456610369
Ni 3.1583475231404026 9.310225957701274 0.9217848085519643 1.5045877156076344 1.0566102707494063 1.5811502826547221
Ni 7.534460479146821 0.7493085392966651 4.802648700958518 1.0844578890892935 0.2157114414668285 -1.3668853438264332
Ni 8.992253153814636 5.439160698366194 4.760889245956309 0.4986405184307347 1.7938280795015495 -1.9108567249834834
Ni 1.90658023294008 3.83866185888089 8.550127372482052 0.17582154725042623 0.782395433730046 1.2129796228124916
Ni 8.811969392861648 5.385155030942547 9.52253521803101 0.5001101609977258 -0.39287304768491693 0.6274777265118225
P 3.8194526574140357 1.579543346976009 2.7446696544563514 -2.1336798377944284 -2.038990479239643 0.4413614822036076
P 6.797350106168839 9.070522103129557 12.971327900069978 -0.13744166192064716 -0.4682734761031032 0.0039034488194642446
P 1.4375116755241175 2.727549534495825 10.402120764947853 0.5296120271115846 -0.16432537368536862 1.41920137962133
P 8.628608833405313 5.92546117532794 11.784537420064703 1.578124865564837 -1.225129627911464 0.4660939519532811
P 3.046603375694451 2.6258765893581324 7.257544917991358 0.47700031445313984 -2.2713269308576627 -1.892488506888941
P 9.142517340180893 4.017319444048323 7.8654500810260055 -2.15391236279122 -0.8930611131084297 -1.578826519617552
P 6.067631441307009 3.791013060437135 10.440513296903156 -1.5697834355786773 -1.2072303790335404 -0.19134535391763818
P 3.802516406192899 6.513915058454929 11.242827775100757 0.660161847008405 -0.2087221546331889 0.4597615819773501
Ni 0.9728042258966856 7.481221701440225 11.220825431929512 1.8277494148393423 -1.1460990589398583 4.102375328163251
Ni 5.333921254062457 9.06636426731422 4.577799407809728 -0.7423672141635667 -0.23539709282121396 0.22974580807270753
Ni 7.549225416108838 7.43289840963087 5.443888619669989 -0.7328489902604862 -0.9372792023865406 -1.0403878953532726
Ni 8.463034571603473 2.6253868886954375 9.855556615678621 0.23694438270367582 0.4886651523855778 -0.4266267470965943
Ni 6.934299978290874 4.143144795455547 8.503310141201364 0.12669316515489149 0.8519509733316811 -0.9000560563690241
Ni 5.674087661567846 0.8921690060210804 2.0195726550941475 0.011504915315805992 -2.037392281514588 0.012212740016107998
Ni 8.02308010453001 7.93093322322701 10.882246393742067 -0.9636718334474565 0.8412693252481189 0.24714266339291632
Ni 1.602605476298408 6.474119949884587 2.9860043046311944 -1.378136234149904 -0.18858784577715906 1.1442206109702229
Ni 0.5732445197144879 4.108939666148046 12.596250455131996 -0.8934753178277128 0.4526059447691753 0.017881251155795013
Ni 2.15970927737776 8.861456878699297 3.366950765813402 1.2885739124090387 0.32410323720937084 1.8758758380329241
Ni 1.1648315631192108 0.5296297459751236 10.823839888098764 0.5228186583388351 0.7952954296211657 -0.6647260693403196
Ni 0.15143115228509532 3.33651540764514 4.995921540998616 0.40991946164424237 -1.9329211609826906 -0.10052036341426558
Ni 5.160225352967993 3.030572608717542 3.327720198950432 1.5367789556281983 0.7451746017053748 0.4651354446947537
Ni 4.077219998694602 -0.02169373935739631 7.55920514602916 0.659808063213412 1.2732604219804202 -1.0540738774807976
Ni 5.446044226549362 5.798850454933374 1.4430545326477182 -0.26659203036677953 -0.9119273538853133 0.5749714290829905
Ni 2.883819483706458 7.955113348401977 9.39516130377345 -0.008431675707120962 0.17647332190181222 0.8740138666689915
Ni 7.474097942743282 7.431743455237721 8.546380700430676 -0.7275034096778566 -0.8846973145247667 0.528412864597161
Ni 5.067875199691799 6.660806777993191 5.164108771619517 -0.31656090608573867 -1.2482397315663665 -1.4701578160645392
Ni 0.42452520034450636 1.787536773729426 7.99527249859704 0.6651875823577705 -0.11008306740203623 -0.15087336194552078
Ni 5.727594388693653 1.4669768720021348 11.247222145575812 1.123094370514569 1.3211942695472214 -0.8076051002264544
Ni 6.085279144434327 0.19339203133347033 8.911979203673207 1.6366316035514783 0.11538288234839483 -0.7431424017666944
Ni 1.2916917536626973 5.545970880644614 6.5908405648197395 0.011459921010483489 -0.024878251298918443 0.9472679381681363
Ni 6.564437383428839 5.170139481478784 3.550716945252612 0.9928098884639934 0.3709975877680643 0.04259135230796536
Ni 6.7642167745381805 5.916406332885653 10.633393452449582 -0.6910893898251969 -0.5681222673716408 -0.7139881488002413
P 4.3516741210473855 0.3823407221256178 9.98861013365993 -0.6934794873239283 -0.4474200296928617 0.7083767161507349
P 2.0061742601701047 4.9554935174208286 4.566872615287023 -1.1716062020720273 -0.3296197961522259 1.454246029930289
P 2.837630547615643 8.469788744894608 5.4378569858472074 -0.017168284249170433 0.6432020792256149 -0.0426412317092943
P 2.9520357099834102 5.969913060011459 1.610362150002797 2.4128453339508447 -1.2638275587022945 -1.7896803758817628
P 5.968942898321214 0.931928080014356 6.443627305978423 -0.15952075320787365 0.5131734219395871 0.6826446014919534
P 2.6480609533417385 5.8975297582840245 8.703506239855754 -0.3744688341461163 0.34709404167758934 -0.1529479850863624
P 5.48780737740563 3.611570106282361 0.8165435163211983 1.3339826795611411 1.4134212826044432 0.18183304355182878
P 9.015259845326163 2.4087544030812653 0.3616642665977072 -0.3615690953653128 -0.19155952681097332 0.16890939351162523
