# total energy = -340862.61324000295 ev
CRYSTAL
PRIMVEC
9.32358689867256 0.00000000000000 0.00000000000000

0.00000000000000 9.32358689867256 0.00000000000000

0.00000000000000 0.00000000000000 13.64601186881533

PRIMCOORD
 96 1
Ni 2.8113505094621916 3.854165743822233 2.322401095679469 -0.05933900407994942 -0.10642875847890058 -0.04961689169617907
Ni 8.841632133767579 1.8048413228512892 11.884038843721399 0.7109966702720851 1.859286309105359 -0.6812670044181364
Ni 0.7583926866402358 4.05388630079047 9.704361353007075 -3.2369574306933866 0.7306501828369545 -1.4045969994445937
Ni 7.640539686621356 7.849798273083011 8.13315979660306 0.6635253641639992 -0.34937898105702414 -0.8344150213304469
Ni 0.2646640021651124 8.328918761458148 5.883505056074564 -0.9929420431664835 -1.228192325997188 -0.6621963609399305
Ni 3.1069641586492014 7.620288855673453 13.183276029345103 0.11325735136495978 -2.631079798949843 0.45055574710836604
Ni 5.671826998788331 0.42271744886347196 0.8816607626279472 -0.7569492257427995 0.11658667284850889 0.9352300331669958
Ni 7.915165941488049 8.366875084104974 1.1665112629907128 -2.9732434932053504 -1.9160922623508094 -0.21836841947370134
Ni 2.8011784760532774 4.996072060739505 6.565000526634726 -0.8129835909295483 -1.4724833788739222 -0.4802041661024182
Ni 1.536536459965571 8.028419552687021 2.956080550348142 -0.8465007488503873 0.10366507969083438 -0.16425106880400747
Ni 1.6368862267668007 0.1695988444712819 13.143510930821714 -1.089347098860795 0.15085099334801763 1.317492652325918
Ni 3.549592127535346 7.42072679968409 10.000602479598685 0.06272437561241456 0.4456552244829551 1.0974954389995422
Ni 4.387745303821078 5.2700736352776945 8.792698219795678 -1.5707733102957722 -0.6778746909071357 0.20113997141055678
Ni 1.1050222067745918 6.962080908344678 9.452537794848155 -0.41773561525455155 -0.4503310326920696 1.5526604027451454
Ni 7.727071897499569 6.7993376973890465 4.978597793997995 -0.16208002929461762 -0.7114070183366263 3.4981208338454266
Ni 9.158382354666786 1.074030603611228 7.4277017751132455 1.0476625746378152 -1.512778478948543 -0.29369094346610064
Ni 6.168699596797356 4.344185505391705 10.422237460012319 0.25034368682871727 -1.310654546358162 0.26787501084426124
Ni 7.84651637046162 5.481551235443586 9.25089098480725 0.7946873637235217 -1.2942465373137841 -2.5518522834760824
Ni 6.430021093025625 4.232796611591251 5.624558277453307 0.33349444861628375 -0.03635437025931803 -0.17265420526603814
Ni 4.074025248694461 0.9856896168564522 13.01077661696043 1.1227056197165826 -0.05127756722805362 0.29405012657773233
Ni 7.678598568725103 7.143415351763531 10.735085759755128 0.254966016092077 1.430864417781555 1.841672452678338
Ni 5.872936770218465 7.05836559121714 1.3280983491592633 -0.8396762697293861 0.4244209976945271 2.694618700043753
Ni 9.470526723591655 2.1932619569625245 5.104072763026854 -1.380564126865106 -0.6785187522490378 -0.36814469170030145
Ni 0.32875433915216545 2.579183869759746 2.576953667751119 -0.29937359567317473 1.261517422511879 0.3060355810743826
P 0.5411064917779618 7.890141433999942 0.6055035747770711 1.0535951380721662 -0.8943559206604533 -0.30186396619519623
P 0.9124789470732491 4.150487985620679 5.581205462655169 -0.36296031928588457 2.083914079225211 0.25139526802168316
P 7.393045069903095 1.5746419600042803 6.378732973338095 -1.3332776830743167 0.7099031800975903 0.11043659408671302
P 9.140639568619891 0.2990521880698764 3.741559189560547 1.3999222196767438 0.1618126345658439 -0.27111382949653307
P 3.4104469152579555 6.389929668957495 1.46952504317374 -0.8389167658555422 -1.0299443314224455 1.2546865156329747
P 6.030235006370424 6.986601942135186 3.7417633761156845 -1.181958748950945 0.4345493443777807 -0.3878750802496933
P 6.551507431539053 8.830080209483762 12.933540022313824 0.2681560324197898 -1.5607143833978734 -1.2680269414956227
P 0.4223137375466929 3.4013284471792042 0.16648569877445663 -0.3840266530378806 0.04972616358053371 0.8907823443765819
Ni 3.630381008826125 8.427534341078754 1.649598005272496 0.5421183871087115 1.8307856305625048 1.0724670352760046
Ni 6.137101960479473 4.980902584702563 3.16718520703433 1.177488114774101 0.1413870197216404 -1.0730090238224037
Ni 7.334735356851446 -0.17246491511280357 4.947580084791053 1.3952955195380101 0.5848668338198314 0.9640880950492687
Ni 1.8232274364006738 0.5740579129271679 5.777803550339589 0.9499123177695189 0.7279865199618624 0.6669143352408902
Ni 2.5051452654516013 2.8394611242448455 4.91605796952781 1.2287847081655483 0.5086603645605821 -0.75074361115272
Ni 5.780372198556046 8.624317968144327 6.687077980563485 -0.624159203661551 -0.16638431309692633 0.445872996920716
Ni 5.955972635974458 6.413844669593484 12.923837897689339 -0.4883373367325138 0.4588712089525968 -3.0443329529530083
Ni 6.125932303262352 3.718964408842708 8.148879364272565 0.010918960905348937 0.26652698145679904 -0.9252616091003741
Ni 0.893291005042502 5.208454048843678 2.7342919953271467 0.2840855591658527 -0.8383382676442529 -1.3788471441739996
Ni 2.9394006532184016 7.292378301144118 7.623958619513735 -0.09856786767358508 -0.18572569373801562 0.06911356696821
Ni 2.489835935609771 1.623012729321829 11.376311725735603 -1.5787853819669713 0.4493768963089164 -0.8091477621232258
Ni 3.777609771026089 4.801414211508242 0.1141589314959524 0.002129901858809235 0.22337204333587984 -0.3556609574109939
Ni 4.748073970323644 6.076405409157722 6.564809393101379 1.7106325805189766 0.7525793788098781 -0.7621397688048035
Ni 0.7733001698826856 6.182162856414653 4.602021844802145 0.5750657885690096 0.8734456528703474 2.2922873351594135
Ni 3.7534803278892706 1.6676820346033203 7.494416701838712 -0.3238525546511455 -0.17767197019560368 0.3476182896121755
Ni 5.874493809246227 9.026919778071289 3.305105299980894 -1.1659150652245212 0.5141375856250694 -1.2389868455095308
Ni 4.7811447333863555 3.373133920113617 3.7971259033189755 -1.045690795623425 -0.8591395206603204 0.6001942082055212
Ni 4.260049456370587 1.7903151743168364 9.877761423895237 2.1291768077177524 -1.3630798540374136 -0.03799062031116038
Ni 0.9102496774233212 9.078022358377668 10.794008964830889 1.74397876007959 0.24591804695719585 -1.7627830372702864
Ni 3.4455875146330217 5.822953020351198 4.292558007137645 -0.09718384284186488 0.6336108359927539 -0.5265989513168737
Ni 8.540237860645163 9.017102040968094 12.125382690100649 -1.3708016481617036 -2.263619792021392 2.5460130510864865
Ni 5.515414503400668 9.020570415329336 10.7669491183023 0.013073545354506517 0.1308940906101165 0.9139595538239937
Ni 2.605513679426816 0.04055294162426352 8.809865740525131 -1.46252163967552 0.823650326614775 0.2833491952204604
Ni 7.496359737367968 4.6144856158938365 12.522508757386863 0.36443124740445626 -1.315962845944953 -0.9861525310484757
P 0.43051383230667445 8.301815094070692 8.016568341260742 0.5663698034569085 0.8147833631424484 0.1187008909780343
P 6.886970091532386 6.090940881279168 6.9542257863034225 0.4997507207757781 -0.6204321325189509 0.8680257674063567
P 2.0431428827948577 5.234597386770896 8.578620271217554 1.9583066909353306 0.3143788108327553 -0.23607714960737405
P 8.34485277162848 3.9956511764347633 3.9146180171647784 -0.40071774054031634 0.7379364320857227 -0.7100335350278675
P 4.772781475854004 8.915568178618805 8.658285660275725 -0.16556233141626325 -0.3547862681155245 -0.35364238431906836
P 8.986240968022626 5.487648861336739 11.110432860185355 0.7259265521090401 -0.49772237749183956 0.3016400231098482
P 6.079715282540091 4.721688219134619 0.6441097514372821 0.6836761280802612 0.054093696520610066 0.8080987520334212
P 4.739897184531144 5.656443080250561 11.154387046344516 -0.9604160455143201 1.0629434120562855 0.2005383332708159
Ni 4.952745351984946 2.9789140148929913 1.2711778505695108 0.5418854451622991 -1.1170504783133344 -0.26684631246943075
Ni 8.103483751564351 6.694167636112649 2.871121228595578 0.8561881513414803 -0.20161973926045276 -1.9340465328363854
Ni 8.192607919626504 2.3789784862678944 8.973849920909476 0.556349443106429 1.580088417049111 1.8117820928768087
Ni 5.942686524510019 2.5170794568021146 12.496253536415734 -0.9617257654646792 -0.24860536398137184 0.5954314967095552
Ni 7.70240168631718 2.6105297692288287 0.2034117650586032 0.11014991608422964 -0.285371882077444 1.4117346389306396
Ni 1.2844173440989863 3.667507532230612 11.804987879046038 -0.20505730418709203 -0.09737667557896133 2.315832469469205
Ni 7.0522586417369935 2.1449657763409165 4.020851899717031 0.05429321412592585 0.5099865395711733 1.5026200503583025
Ni 5.085998057283021 1.7039414644174968 5.584794111288616 2.6854542599356654 -0.08253189725664495 0.25825857080041975
Ni 1.5637613339839296 2.7913700625370743 7.134189662434365 0.18796898124623757 -0.20514266481204668 1.7825270526664334
Ni 2.943493707908148 3.5177986958906193 9.838692797320192 -0.5544889928589224 0.7650651699817146 -1.6234117624270945
Ni 1.0105090054307226 6.849013768885558 12.100492442265233 -2.093634906057401 2.2478185633230767 0.024074781561016605
Ni 4.023304935454781 3.5058458573661206 11.790604381392571 -0.06682554226498169 0.3256057898968263 0.36201852419790553
Ni 8.179871899794627 6.17620508432639 0.4086341707111671 0.825475809859288 1.7594290331963893 -1.0276807321992496
Ni 7.783125302499011 0.10963978888064475 9.86961447358111 0.5938243001234355 0.5727600232539685 0.3629412931224911
Ni 6.208791020865487 1.3071389255999244 8.481323979156397 -0.46659068908404155 -0.6823229564864766 -1.097143454976762
Ni 2.550364662365655 5.557752911934012 11.28055755496302 1.5438716008089217 -0.8247070500140635 -0.41338273760249455
Ni 5.877551945779795 6.873674656480954 9.36486251220465 -0.6791710411210562 0.6866655497258884 -0.26657840352002476
Ni 1.408784670993124 5.561836643036766 0.3499263404949353 0.11544253194173668 -0.09174570254542909 0.624523528979505
Ni 1.888669693501652 1.0707766717508145 1.8570860425642588 0.8001661274499059 -0.6814019873341038 -0.19870153717239328
Ni 8.221958571479172 4.418746230571435 1.6526412240668766 -0.2796792025680409 -0.7524824482206975 0.9864991157546172
Ni 0.555050848484077 6.040985102172879 7.160622031558353 -0.6762160722577902 0.03027962482014785 -0.09241264670546664
Ni 3.655051220008514 0.6107574160473946 4.383753876229552 -0.8954825780657288 -2.3180775567496403 -0.49545029362821125
Ni 8.47942010269251 3.799464258936717 7.100839191761876 0.0235998988071271 0.054857314159511984 -0.5349743198647625
Ni 8.877639826732956 0.8356497931782223 1.20544935934786 2.670808742108348 2.2617819674817046 -0.5356548908715549
P 6.935135741936098 2.205233442661008 10.77850756909701 0.7192496543094967 -0.7129442809167592 -1.9303156050390433
P 7.039112384077444 1.397997280842699 2.1086504050047843 -0.1707449040584672 0.4143111629540348 -0.679746711118868
P 3.754916160286129 1.7001281173375282 2.659335017700232 0.3745194848783937 0.7336375476000527 -0.34215880915950103
P 2.731820312415412 2.5079423415493776 13.575148255360997 -0.3776120077607884 1.1840482844901221 0.18226807420671837
P 2.570969789619276 7.774239924095075 5.569865183796083 -0.15445028066350175 -0.4529633281085941 -1.6436448016445175
P 4.4640681869424075 3.4737820416986094 6.581007260783602 -0.285197818393425 1.5440862879228892 -0.2794948544713767
P 1.3133857288849589 1.9762088517750653 9.348718721326984 -0.12716701946751646 -1.0910594535662113 -0.11516845234474359
P 3.2097846760034665 8.950755395928834 11.675240842457177 0.019755842470688557 -0.3836499864247522 -3.1452814050436286
