# total energy = -340864.7261533469 ev
CRYSTAL
PRIMVEC
9.33596959378508 0.00000000000000 0.00000000000000
0.00000000000000 9.33596959378508 0.00000000000000
0.00000000000000 0.00000000000000 13.66413519477144
PRIMCOORD
 96 1
Ni 5.226163828403078 3.061908659416653 0.554767595428385 0.7938656391531748 1.7093907376920754 1.3924094562394664
Ni 5.020464407137877 1.531155053057721 11.38606467027864 -0.2101789416843735 0.18112059086583646 0.28528523590090865
Ni 7.356352043810931 1.538950587790006 12.177737165825718 0.23062178291975766 -0.45611061548832416 -0.47180591473639394
Ni 7.148953476053182 3.5031265892942667 6.1984341233774 0.791223059324005 1.226366842752675 -0.5434332492653932
Ni 0.29684742742660997 4.861668897842737 12.723564636631783 -0.05060702352359026 -1.522198229600546 -2.1016726887602126
Ni 7.7816334733436205 3.3040276986347243 0.20961492697384956 -0.6506441373259569 0.41014880404622917 0.4552760354021708
Ni 5.924821123840896 1.1110550867303224 9.33401198640961 0.5302470895924223 -0.0034270234036779686 -1.2510373489161615
Ni 8.525383502622082 0.0019166745874708857 9.076224389178133 0.039023432451048924 -0.19048069192449776 -0.49882795185119255
Ni 6.650991522100322 3.5253461972737146 3.7989302553040267 -0.10831646241991667 -1.0047981711741212 -0.23332324101132076
Ni 5.652332175060999 6.992641334708686 1.9256725951055882 0.1562960756229889 1.3779089486304463 -0.9912651696846928
Ni 5.534428213223834 0.8981184217232426 3.4154328919363866 -1.1163765921747613 0.8514629779516691 -1.0804441399442102
Ni 1.440325403464422 7.910563215442855 3.8648459360511263 0.609877496931556 -2.831407301761433 1.3404438618054528
Ni -0.049922230986766035 4.273698859633633 6.795283602405517 1.0860537728215038 0.6887532854928525 -0.6241023822816865
Ni 4.973420455621725 5.8234605003817075 11.87463930665867 0.10910707664201211 0.6681541211852622 0.5253812768596887
Ni 6.0423329749490104 3.582472996108271 12.109198077581885 1.5905206681260284 0.4640388691964653 0.8324602115969212
Ni 1.6032380754145774 2.9691184561781085 3.711917150140139 0.22896856358705084 -0.42513550726304844 0.2641122013677193
Ni 8.880411759866812 7.2803572501333225 2.137179923145587 0.023268740719953475 -0.4517721360139703 -0.3592167930830523
Ni 1.3982388518798203 0.6354546474969476 7.879683561933267 -1.2571789430375253 1.1764087656669935 -0.04374089253137628
Ni 0.8642176484060274 7.24652369579823 13.07281953018975 -0.42150793781279017 -0.25656755625124206 1.0146776350713622
Ni 0.39512998166276314 7.130524271787876 7.116281316353655 -0.876412191697839 -0.8378669844347894 0.798384867179767
Ni 8.658374391557897 3.65071893490229 10.9238473436665 -0.056732676805353904 0.2870911787613959 0.7724408936204955
Ni 2.3583686518052014 0.5055763708722034 3.819768139762064 0.5311698585170078 2.000470211677258 -0.41565430724549063
Ni 4.689989750307412 8.192378797992276 10.98808254986053 -0.5008100152782279 -1.1661621482383207 1.083834653682998
Ni 3.9347471422799165 0.22840356607411824 7.631665123436955 0.8409119419087002 -0.3575975123120745 0.4531553895147421
P 5.104170711820117 4.132809740298401 10.431160212616325 -2.1546569542667275 -0.06695641141589115 -2.6611007707919656
P 5.15233497970498 4.029404539466314 5.704079588131791 -2.618357209176852 -1.639768092297931 -0.539330282840613
P 8.775699523271227 8.96464087885445 6.881750553339657 -1.0857948627331624 1.234944300009041 -1.0428224729366944
P 1.7990133608469423 6.5818960100600306 5.592347635889254 1.048527750851588 0.1352881059127541 -0.3852358428546333
P 2.7436454510051456 1.090347905848635 9.404737558766378 0.8787668079729447 0.5425079092376464 1.2718373163806482
P 6.758299158283422 2.0395919650580345 2.0284541531590925 0.826181577677061 0.5187642857638033 -0.8752695934529636
P 7.863033793500263 2.2108416579853527 9.698448100360595 -0.11299278484966348 -2.111987183312343 -0.9579930378951244
P 0.8945390109252088 9.105791405342382 2.1522649830502893 -0.5040706883073706 1.1604725540527112 -0.859964587664777
Ni 6.632524973956059 8.064849451353933 5.43180816744682 -0.8934105260280484 -0.06676023624468502 0.4388294598103733
Ni 6.8655227707388695 7.648707936195981 8.158773041318822 -0.08113013181311189 0.909585336015698 -0.6640444698922628
Ni 7.326280885280762 7.205352069248076 0.16196880540951608 -0.06100327915624978 -0.4126314612587668 -0.3465780212731192
Ni 4.019732474816436 7.409118944777251 13.505522122068182 0.14860410629536988 0.7538757290237984 -1.2947111356550283
Ni 7.968334196189421 1.6855346486661893 7.239026912097602 0.9839771206637117 -0.5585096839825414 1.4993768608306564
Ni 6.991007540004315 8.88548119143523 2.5463530704901505 0.4815668507778996 -0.5314783908963621 0.2160156029708086
Ni 6.355312024488095 5.633641563642993 5.2573030218714205 0.7245543543518618 1.2232177556007322 -0.24098050044626237
Ni 3.0998407044672827 0.24015848557282543 11.495472899653073 -2.626155879285664 0.8255233752677718 -0.08557556917897519
Ni 4.015064489946805 2.209282551038896 4.407257375529595 -0.4388199467286765 1.1598511184186284 1.4935507410671827
Ni 6.765357151406307 8.550291869886438 10.488426117399996 1.832340890864767 -0.5140779360317276 -0.1297124115971895
Ni 5.604924120725016 1.9329378467566836 6.627529296548579 -1.1997021889772952 -0.9556952429998831 -0.4441197616750351
Ni 2.374295816180386 7.184570200608475 1.893029376912252 -1.3056743195347513 0.9081465466866424 -0.8159984664964721
Ni 0.6836814663790632 5.213690972831422 4.118589191191554 0.697997944019572 2.1012703111154716 0.3013651721819068
Ni 0.4522493117215278 1.1961711228431915 5.231013864682627 0.32839029462049896 0.2898420020336557 1.3478463249171109
Ni 1.2516267830944192 2.165254117748527 1.3429204303837594 -0.3745436532481098 -1.248542607518766 -0.5750948420347322
Ni 3.439959418038407 6.355657455368448 9.856351090948662 -1.0786073438457875 -0.5669483016681978 1.4952602675591216
Ni 6.438112740105626 5.755606672316737 9.71686703505919 -2.300182935857406 0.1669890365604608 -1.827522386430201
Ni 1.524302451269101 8.126093412843504 9.470052003062268 -0.7022832016584872 0.05495861562406664 1.2582017278750848
Ni 2.673280247080313 3.8976553345058216 9.94078186688267 0.8968061819731588 -0.49320803456125384 -0.467587248669356
Ni 1.624832173421495 2.8536045025941963 11.866618775055668 -0.5562514840759839 -0.9454640521901782 0.21637247208959512
Ni 3.504125538056368 3.9719416457211447 12.404193248612225 1.8908440293069821 -0.7952882305323142 -1.4387954997031738
Ni 7.338072215061453 0.9747686004765473 5.014505257653305 -0.538226251143157 0.4830436924337423 0.22638151958616495
Ni 4.192083812172988 3.795631857195145 2.6328601660941704 0.3528250306240956 -1.305633438994487 0.783438787392896
Ni 3.3948853561372405 1.6070191431589795 1.9618420090694444 1.2792575201041194 -1.415380206103027 1.8316862879999036
P 6.95175912322045 5.6048120890881465 7.541577683437928 0.0018586504752935733 -0.9272092197450483 -0.9206616484345176
P 3.1173456477284027 2.5475340706621674 0.1780640172400071 -0.5170876693923288 -0.26884277407416923 -1.1179187398509003
P 1.519419739095466 2.6710396143428903 6.578488381105199 0.1889611699561778 -0.1283571831208757 0.00450045897351483
P 8.697268041491672 3.7391679122120767 4.7091527617942255 -0.29428126875193183 -1.7906692221575935 -0.941190878736121
P 4.930148235880238 0.24011647370899875 5.345314142200435 -0.7027421435727769 -0.3875974011082744 1.1889583201972298
P 5.827222896186631 5.278697330125917 0.3185190139823633 -0.5916450330839295 0.411146392072808 -1.8315510479736197
P 2.488101287302013 6.981158091929393 11.70618760386221 0.8971879907926097 0.8594061440581457 0.2640733777099839
P 6.307241116300625 8.895190599964067 12.617927205435038 -0.018690891541283942 -0.0053684634007649485 0.25441580001556185
Ni 8.66431206831207 5.233819323589276 8.927995330433891 -0.11276241400641225 0.4163171376404701 -0.06394796360687051
Ni 3.9731833296964667 5.714145630704666 1.5231410566335366 0.11970619231409706 -1.5848601274061416 -0.8113997913821961
Ni 0.5228311101443109 3.008786991600241 8.726723026019048 0.3526774493026378 -0.8311908579661942 0.4991061452132437
Ni 0.18920929791474037 0.8731045580008328 10.990747035624118 0.6629846611691808 1.815107814815932 -1.0301461630206066
Ni 2.2449272835034058 8.947210623351245 6.0940271729922895 0.19494464123312236 -1.648723758829322 -2.0729375256090496
Ni 4.228540774004814 2.6260869200483343 8.329042457423517 -1.582235802409417 -0.9727169743688603 0.9997081582457236
Ni 4.379811491690107 7.9989375049947276 3.6779482242438273 -0.4137077250420811 1.0258611624920075 0.4851383701792419
Ni 6.433286043750427 3.4702266319331008 8.458304560045471 0.6535582256489584 0.5848092411090187 0.9854657893940963
Ni 8.647563338599829 8.461796212727956 4.240213536969815 -0.18937460334451256 0.1697102921463658 0.655849078565664
Ni 4.712806860350174 6.762957807183315 6.796732544909051 2.2692798185206464 0.20340974128134004 -1.0049526944741143
Ni 2.7044437140699764 7.083872431000774 7.629957574571644 -0.7185760252812399 -0.41744533770764236 0.4280529380201596
Ni 3.081747595112589 4.542836195277134 6.3153998202557675 -0.7534175584404573 -0.2725359066550403 -0.061591290449235864
Ni 7.4704189220852575 5.88734654130749 11.546030910179086 1.1941943717851884 -0.4588609245399517 3.1405878562227008
Ni 9.06940913126847 3.6453974321509097 2.2037789968776 -0.39130518897716476 1.668854982361558 0.6848544646590786
Ni 8.576703328278816 8.497095514312113 12.112258408462417 -1.3266408944840895 -0.49588815249657814 -0.4167020317837146
Ni 8.135634773917031 0.27586390184064036 0.7464359877724476 0.8270986901746917 0.9158380017936292 -0.797353083481143
Ni 2.467039339570234 5.5538096864025475 13.452887791872161 -0.7137842603195514 0.6725674197616095 0.368263733776669
Ni 3.754814997495083 5.681787159588377 4.128850355531979 -0.12923418640919032 0.3023787010480857 0.9758112970234678
Ni 8.727432559719233 1.4591653903982564 3.1095202378929514 -0.019827319138572306 -0.3364776996143237 -0.6916768868975507
Ni 1.0416048078399378 0.2743906858157845 13.053881515573655 1.3780331329131363 0.0029832509980400232 1.405637010673334
Ni 4.903699433608903 0.9257146146755328 0.13554894464437306 -0.0605304532848893 -1.960057097967534 -0.9298589986630695
Ni 7.1079125530793785 5.0828380209659 1.9434230743708507 0.9800448754888411 0.46305336535474445 0.7179299070568088
Ni 1.0921497480083129 5.5681123920430995 10.505411047146639 0.35468033866527954 0.3886654373614726 0.3737489252609563
Ni 4.329920069403481 4.951499598673934 8.305621310138626 0.7477251360413704 -0.42861318139900373 -0.001161624408268967
P 2.2885449341252464 4.8843833122183655 2.7229205317809537 0.1504642994325602 -0.4797164278327222 -0.715223049648607
P 9.340917803225743 5.568691222166934 0.8474157036662741 -0.8942438205626212 0.4708317237485827 2.7699525368900617
P 1.631516727754808 5.191340661275625 8.291561339711295 0.015529720204482933 -0.3671203642008452 0.4108167766475312
P 6.953140846741861 6.915040754235925 3.5190752263998513 1.1845553060335277 -0.27814091154664355 0.9758046121552486
P 8.805014468252516 7.022488429965113 10.445302339577362 0.20560212094696848 1.7034188363793568 -0.9520419625180119
P 0.03280753126074739 2.1305243103184655 13.13843552630822 -0.6979449792944497 0.21442948943061135 -0.6195335319640815
P 4.644430217979804 7.731097869144985 8.88987283160058 1.5216922364984051 1.1210500863910307 -2.018654853006085
P 4.05140008417202 8.712653719621978 1.4790192636457753 0.17608662798635483 0.2528109174222872 2.0787662164756844
