# total energy = -340858.03048513026 ev
CRYSTAL
PRIMVEC
9.36458337617089 0.00000000000000 0.00000000000000

0.00000000000000 9.36458337617089 0.00000000000000

0.00000000000000 0.00000000000000 13.70601435761656

PRIMCOORD
 96 1
Ni 8.180094712168591 8.40352430773046 6.760038982944528 -0.6138575646252267 0.7596514551653111 -0.033633371783729174
Ni 7.079765526162302 2.9605474927581183 4.531057428410601 -2.0892524607189893 1.5464987540191235 1.12410378561569
Ni 1.9755431514370394 2.3471953732008974 10.894020282093434 1.3505619240760611 0.990561715859765 0.023292394869037305
Ni 1.037221258411191 2.4527248636400065 8.7023734486956 -1.995394082705931 0.2612585339690081 -1.0969891887870848
Ni 7.084981599121268 6.982945098293818 1.867937532856094 0.01979543745937236 1.7295350738504343 1.0479361400141758
Ni 5.307012428453092 3.3439054437835694 2.949822235379477 -0.17144218723580798 -2.8185972944809587 1.1316571724829154
Ni 5.404479012576817 9.121909594806098 0.5928605381410474 1.9669021459138252 -1.5557575536132302 0.44899765859262675
Ni 8.09343485729917 6.814869555264169 8.66581973381584 -0.9133211489090464 2.380353017750094 0.8843905819176253
Ni 0.0739596068497644 5.110159520606743 8.183134455943241 2.025098294638583 -0.7931907245733372 -0.9539348086653507
Ni 4.44329817144893 4.391380921027915 10.998473781898817 1.3538400806067008 -0.49919459116199194 -0.6370538002360319
Ni 2.6037568648647778 7.007349202658387 11.201870660631567 2.285498594372354 -1.368821384506881 -0.2736720771420125
Ni 3.9077376462725493 3.1846419737420457 6.946742555291906 0.10671003716474524 -2.1852363697154815 -0.35639037937785073
Ni 8.67815944537424 1.2894375833731686 0.5490848565360551 0.5452335356989255 2.252977224705881 -0.34662764356413206
Ni 8.767066800261887 8.695886601767995 12.637219691021317 0.23484841940659554 0.3478036661501042 -1.1166552997574446
Ni 0.8774979873242724 7.070887901090312 1.8057950938104925 -0.8138824485947339 -2.3060874742672994 1.0978736482745672
Ni 2.3181089771316925 6.2306225609429715 8.45103271228239 -1.8098643070288056 2.4288887605669522 4.058825725707075
Ni 2.590590260591339 6.90102372262949 3.3168830018977684 0.4739957232988611 1.2494172968142354 -1.7161452828070896
Ni 6.67012118950702 6.150592831127315 6.544854903074525 -2.013288960708481 1.6184397631338 1.6006988942106108
Ni 5.316423834779413 7.98778362727574 3.537083689100119 -0.5654642609235035 0.259574718508682 0.30575455949885405
Ni 6.486275688016152 6.045709496943446 11.190700585540984 -0.8080157054013116 -0.40941012610799166 0.6234166690685715
Ni 2.6515911569193498 4.883508508352084 12.114828579493395 -1.4052739709069604 0.4013504890283088 2.090133834882678
Ni 7.522850790172103 3.5918515187109175 0.10748481545496541 -0.41722576549766854 -1.6251626836799302 -0.9394972930837819
Ni 6.485938563013418 1.2402547913076614 12.869289987694922 0.8614046625454134 0.9581676157997757 -0.38844509382055037
Ni 3.1924894946390174 5.491035857028737 6.819331779258688 2.497775042015705 -0.7936090430576784 -3.3677682175610775
P 3.70920847799594 7.200999422978764 5.054627540989748 0.9714959574775657 -1.0273729711508435 1.089427574389743
P 7.023362640288245 7.7936558132014895 4.924296887849518 1.0225102437419036 0.7262571959755815 0.2919677901274068
P 5.759733848791036 4.593815120586192 12.758737334715077 0.08346906435893366 -0.04462252380538122 -0.40401877988909135
P 5.276605626123179 4.603470006081153 7.648545038066402 -1.9496950380069196 1.4772221791104883 0.56586098214129
P 4.809743684837232 6.6061423556548595 1.8967617205898397 -0.28263751386541647 0.35305617279829515 0.5444964004225848
P 8.54206395468726 2.131706944370093 11.824918869850748 -2.3663317637703374 -1.822576098168519 0.7492755112476257
P 8.242462837674356 3.6003451958631287 8.993502427098132 -0.2567711876216159 -1.9413515511382307 0.2606813213092994
P 4.908746060640078 7.556666300862992 11.338108492986366 -2.601813702995874 -0.3528728531428955 -1.843814181611689
Ni 6.748221815140365 0.8375233901251045 2.1785027041245764 -0.25270550219267446 1.4471616122796818 1.10281787965372
Ni 4.084625262290326 0.6242749696457981 2.536106177857841 1.2202111075639241 0.7762106450755729 0.01209755459448239
Ni 9.125992553172543 3.407266215130717 5.423908650234378 2.1121105962640847 1.069303035725726 0.7503623165539013
Ni 1.3758071361569026 8.210089472828496 9.868727630028975 -1.7110082186908404 0.703022650927673 -1.779507034893187
Ni 5.096505957996022 6.784331648766526 13.474355387393276 -1.4780562449760093 -0.5342487545526476 -0.26705791425960457
Ni 6.5704445636987066 8.059338409106003 12.35257287725468 2.056065432444059 2.15479759360965 0.2378139297928227
Ni 0.9051281906733354 8.803298373472368 0.6410956343655361 -0.5420955042905761 2.4175694788993916 -0.33821010892439823
Ni 8.441095016368468 3.046214701786157 2.6810605644499943 1.2212727160592192 0.5916697156742777 -1.1816381323867327
Ni 6.652422126863492 4.9502030713929335 9.221379263321067 -0.14374189310706212 -0.4266977095438458 0.1952896832773669
Ni 7.068743411489587 3.840434385310097 7.0376267737372515 2.05230442273973 -1.6491863002880371 -0.47776418920235775
Ni 2.6052083752932154 3.9130941879826535 8.928084256775968 3.276128958686525 0.0908545581897274 -0.6446920335075801
Ni 6.468286323286937 0.7028934567416764 5.06863508485334 -0.6400445074332396 -1.0110202408244329 -0.48593824037271793
Ni 3.2278876199260735 2.919015565337988 13.080512848782801 1.068384637676515 -0.9801101815091379 0.9070584558287862
Ni 3.63554666489859 8.517341454486777 8.964473154987726 -0.45420825625928873 -0.21888392565753917 -1.1332229743081388
Ni 2.398859779869862 7.268302683941216 0.07033083077867072 1.7368431774760733 -2.370842764266814 -0.5861994365883259
Ni 2.205705882470176 1.9454922032766788 1.880903735044575 -0.5577602074110266 0.8324931217173855 -1.3165580563267907
Ni 6.783348367508552 4.716875111167462 2.1010632180799256 0.3865177948908505 0.13001451621864063 -0.7036057771246528
Ni 3.389482871236506 0.2889180002596041 0.3685207050717971 -2.462477395155675 0.6101196948493492 -1.5592334279769726
Ni 0.5023705686572325 9.112142334310226 4.899667097024786 -0.793831957701762 2.0701080265800544 -0.39020218572097315
Ni 9.113453375987525 7.323806569807983 3.8096689194356084 -1.1798638140951292 -1.412125446611155 -0.2316803060912591
Ni 5.279798949065742 4.734040392556661 5.397715910438639 -1.651357339797427 -1.372059431828205 -0.38825946017230556
Ni 5.10606719765689 2.873175929549592 9.206809844452918 -0.004796907168011093 -0.6625719991117944 -0.026881911992508542
Ni 8.69996956013444 6.231924238036861 5.935553902300156 2.4125995364886257 -0.984683402702117 -0.18069301641011462
Ni 5.637694597801377 0.3339354256246662 9.329615118365457 -0.5560380825135972 -1.0047220665205472 1.929535018119277
P 8.909118165997164 4.999432686375487 4.02588123056395 -0.43408885980159434 0.9252675226376452 -0.5604531808621573
P 4.572932099583511 1.8818130360936154 4.747502917665833 -0.5559601780878103 0.26509461988564664 0.1946224820070132
P 5.286251147034733 1.6090695442985095 11.062521913668206 0.8947996930660912 1.5301804764750744 0.4909236094024512
P 1.7221375243820842 9.195917897489592 2.5331863007508297 0.9601424801379592 0.28306200299734474 1.592737473271689
P 0.6242384477705019 5.940816798176168 12.834393804078603 -0.24458955795375945 0.3107864654958067 0.5831344245097569
P 6.109622778711742 7.921491741321489 8.063906452893047 -0.612604666054732 -0.09933405641564827 -0.19525240228152824
P 7.808255198736547 8.833162029964543 0.959038224443844 -0.1708616321419896 -1.8376345351635386 -0.8481362275712814
P 2.142504309040986 8.715093362340417 12.256905229603879 -2.0780036272780467 1.6979750396559659 1.2346144274734479
Ni 7.754633594135044 1.1133178631949519 9.221941138325624 0.39520323847999034 1.3830061606476955 -0.43442336032287765
Ni 1.608058169290308 5.847583005753435 5.050899500334515 -0.9325195762143682 -0.16422407222081395 0.8102749337491336
Ni 8.918295457738255 5.225475000708543 1.0988645651610784 3.226940926997649 -0.16267086880108114 1.5483720597824364
Ni 4.6484106418622595 6.333679801362031 9.295775259757704 0.3783560850156645 0.16922949585520533 -0.005726103850499816
Ni 8.180562941339055 1.5829236274198164 6.397720441464693 0.059059010945685386 -0.6433357765900017 0.8753379847970538
Ni 5.787537296933171 1.2660448540168021 7.42569885605093 0.7977523758020906 1.2280365171456142 -2.058024870163275
Ni 2.769200959956422 3.730681467753405 4.910234092943811 0.7376142728596136 -1.2197259403973897 -0.23196107055647147
Ni 8.636224840867511 5.4146395855758795 10.646708189462892 1.8248918907858893 -0.919290479118604 0.09991949660547307
Ni 2.1804308718485457 1.22401660367598 6.355656605706916 0.14467546066492504 1.241266642682643 0.33450232105550776
Ni 0.3469166111466018 0.4724151392476468 8.082423043668204 0.41962666162967727 -2.3088295557888108 -0.9010747274415255
Ni 0.2689836115562825 0.7693098916552705 10.669542789648066 0.1980957852675943 -0.792854424279841 -0.036066663815570145
Ni 7.316502194748749 5.94194054818528 13.631536174084577 -0.9608389919843517 0.7267922425434451 -3.0117933284540905
Ni 1.466240918140262 4.48807024472867 3.018379414060431 -1.2842999676240332 -0.5494257194034022 0.6675504261629923
Ni 1.42331366779215 1.2865345625162936 12.993164697032798 -0.6087480113128032 0.811825566065705 -0.8366526524117139
Ni 2.17985963226058 8.27903153588757 6.07372458467063 -0.5084310221585953 -2.2160291867266224 3.3431722733892677
Ni 2.3057758207816783 4.821927007852698 1.0003379101954244 -0.8545490730761607 0.038375257344088747 -1.4550602983014682
Ni 4.79184796594211 8.883880613709172 6.22572394736158 -0.44223668571970937 -1.160392078523763 0.11105365884542165
Ni 3.074364639514435 9.221361470612589 4.316270406877151 -0.2925617149576639 1.153312288858846 0.051113016625731325
Ni 3.941300313211387 4.9701777278049155 3.2288765199340927 -0.8713975120920671 1.605913605642331 0.2754574511772095
Ni 0.3382543714930234 3.6497433733470497 12.33749589796575 1.5952409564198333 2.1190502608067114 1.1500184485989227
Ni 6.6874831271478135 5.894181172797983 4.058885768331596 1.0238803846165527 -0.1894684486098995 -0.24377811779605763
Ni 4.5776331204549665 4.699241600607799 0.9135563157416821 0.8050599652070974 -1.3207682377533965 -0.6164458941776932
Ni 1.3206029169592324 1.9574414117069123 4.0452481255126695 -0.9755642140096681 -0.40446512339789054 0.16658614469508728
Ni 3.7083375717388773 0.20728224438925777 11.144826300793973 0.028330471513577014 -0.16642930740224884 -0.05613309554814203
P 0.5232217500763221 3.2842717766333123 0.9890666976040222 0.8313471810384003 -0.717554525995261 -0.04242165949932048
P 0.7895598668194846 7.429036393577996 7.576575405191108 -1.3191469000998897 0.7438664244169124 0.23535801205316242
P 2.7767300850174785 1.183964280434515 9.130453840708721 -0.3270651480511722 0.0895065288022652 -0.1450935220389501
P 1.5871002316203526 4.944462581763049 10.313994841973136 -1.6514936082649752 1.1342077068189111 0.5781845367036493
P 4.834166518368619 2.173866298878645 1.2242076411775293 -0.49296249420935095 -0.5475986934969924 -1.5364326280323732
P 8.172050535020025 1.3026603751470633 3.874251768917667 1.950773358672763 -1.5188215998188295 0.5762101865860979
P 7.951046366561158 8.597043423883107 10.410417275046727 0.0654991101440743 -0.6074352060386505 -0.016761021508422746
P 1.6612583676383936 3.7754629056165534 6.760080187111529 -0.5594252538182752 -0.3737890344702724 0.40477108467408357
