# total energy = -340871.21357610816 ev
CRYSTAL
PRIMVEC
9.21262974991339 0.00000000000000 0.00000000000000
0.00000000000000 9.21262974991339 0.00000000000000
0.00000000000000 0.00000000000000 13.48361486588413
PRIMCOORD
 96 1
Ni 5.849061710912943 1.0848976922212927 2.6349272362599354 0.6886836085971816 0.13439824710863305 -0.4205872257707337
Ni 4.565668700366553 4.427295003102888 3.9589101717579878 0.013013638650848555 -0.7194558567830319 -0.4044062451354971
Ni 2.8597752816837474 6.001337266310488 13.229367492755982 -0.8433660598761475 2.4572660261580648 2.2124610097593895
Ni 1.7508049882008063 1.003485684050919 4.6068657376118045 0.1617414150082763 2.343039883121932 0.07767842581908557
Ni 3.2012137615762897 4.74518600162353 11.476510851933297 1.2195878721576288 -0.30106049645729444 -4.70115645807133
Ni 6.394596787954569 6.872022894032796 7.675035308173897 -0.9591862868722771 1.5365177315470118 0.08188166526715575
Ni 7.314100140164238 8.271909606436644 2.58480868846674 -0.8434452498535152 -0.4519441428154603 1.5214071011578185
Ni 4.110666134843571 4.0572513081634956 13.331977761738854 4.051256655110565 -0.9034766520147989 -0.36959093722852476
Ni 8.097652716706802 6.03328666591837 2.322242294751523 -0.38730172424472653 0.7226067437071878 -2.665666535785777
Ni 3.7543400454451645 6.554822842735507 4.827768013758783 0.1198224061769872 0.04019662682354368 2.165464329294877
Ni 4.048407183704566 8.696814510910333 5.616410568180053 1.1851885687421524 0.19738410391255037 -0.6290263019458651
Ni 2.6945744068946627 8.470294373206004 3.3868141621876737 1.853199222371015 0.38712200413375264 -0.20732038918965584
Ni 5.070898522712538 1.0826590232176263 9.915957721051493 -1.0453526955577157 -2.306469025976434 0.23415602132526123
Ni 1.932266154312819 3.7330312330769315 13.240572814192852 -2.231351418905989 0.10599784158906907 1.6986653808547714
Ni 1.0118783896572572 5.014259275656812 11.48675898115008 -1.457450910020832 0.4362149050056617 -0.7347492926069927
Ni 4.7982323231178166 7.290396044088379 11.39117334227131 -0.7141169610686218 1.1546554331503018 0.8807272741334251
Ni 4.496684529586904 1.519872000896658 0.43726180461614855 0.02025283671176512 0.28041068141742675 0.12829521953468873
Ni 8.269532747988308 6.818709406278812 4.593557172827044 1.3655990209148416 -0.17274393676636704 -1.1629631816850485
Ni 6.746473177234577 4.322123623078785 -0.012093418934621448 0.692757007335607 1.9143660236883222 1.4932411802465637
Ni 3.138521816843983 6.154948653006517 2.8331231441215783 -0.06030059666227035 -1.9798941872981195 -3.094367134692264
Ni 1.7165432185520997 8.271808267510552 6.0056690447694345 0.06174838485239043 -1.6895585334574965 0.21458478406155299
Ni 0.6644848659623691 4.990978960544608 3.4331573743524637 0.5657684224274837 0.9914510604432537 -0.779398298774935
Ni 7.680035002282086 8.49362075146643 12.074819556631727 -0.263495650829643 -0.6501054912136676 0.14198223010347805
Ni 5.466654666990339 0.4907963954816054 7.443912540699067 0.07525927485463169 -2.27510465273254 0.5992130752391744
P 4.153854942618009 4.904002524068826 6.182749605485383 0.1668620240642933 0.3669812675198196 0.11516639546221456
P 9.00114451859395 8.772109332996614 10.258630693316427 -0.42903432809682235 3.2835404206592482 0.4709733915327695
P 0.7977179158842823 0.88745169241273 6.951962723985942 0.6885069738100014 0.8730291341582191 1.1782046812251514
P 7.2890049370120265 7.858824505797129 6.025558190909416 -1.0247794993920543 2.0041245206003935 0.5672630046951391
P 0.9183867814967288 3.286439798419577 4.5240626223650775 1.7519949455158472 -1.8637600286059968 1.331688741320642
P 5.326917500539255 5.25696600364691 11.760624665124546 -0.09535527427355836 -0.3720332281214302 -0.05889985966000179
P 3.4643264642294387 7.639692897067865 1.200434201858667 0.5127975266574072 0.20797422072357086 -0.33048651502789533
P 1.1424305643525574 6.30374183439836 8.14096128866662 2.21230160136339 0.0656780589240998 -0.10635753892133297
Ni 4.970886215289479 2.5404471129385287 6.536478654586944 0.4581083626446433 1.288150451718375 0.4529463588277296
Ni 6.390045748910078 5.424681926329003 5.485605967432488 -1.041016530076207 1.036493188284557 1.7460772944798315
Ni 8.897677475054122 3.73455131696831 9.985628232739675 -0.8706138398485072 1.1631112772271388 -0.9564583464181527
Ni 5.966909669328176 8.573107320041059 0.6220035881446451 -0.7498231562209795 0.07220403296807565 -0.44096064722076317
Ni 1.1253042858430264 8.4921927938715 8.571897701768707 0.4391706451998759 0.1422568239211034 -1.0568491262330895
Ni 4.869049807196765 5.817259713379375 9.61880619438704 1.0607739152087925 -0.3150853499814767 0.35817035409640896
Ni 4.9943784208835105 3.4158311817796427 9.669436964388481 -0.694552665783449 0.3399864840985306 0.14542982233244633
Ni 0.7543116900502286 0.010934470125315912 12.338964073805085 1.0670546060111818 -1.432805857778642 -0.35996961208867684
Ni 1.2618815203259723 7.2140509822225996 1.7130120176092793 0.04271682214223611 -1.0545497886759514 -1.0182800077106398
Ni 6.115684425460729 3.254038979959103 11.706096952783389 -0.7466961805562238 -1.656157589399548 -1.6682392031544302
Ni 3.835144020058987 2.3394459593500696 11.58407014556131 -0.34179191273838555 -0.5335566135816295 -0.8778581801157461
Ni 7.533968759265081 5.650538754698911 11.493702540113304 -0.23758870115589406 -0.6322067565563757 -0.1378808063405948
Ni 4.195247287611728 1.8072784079229283 4.34117073486924 0.4584369496286556 -0.9373429657449405 -0.3574008229202361
Ni 0.1802773432026661 6.873229748516254 12.690050019461575 0.0008744321851533327 -0.32471721664428593 1.2178968576084508
Ni 0.4657260664294341 1.9241682528551116 11.121298569458936 1.5132878144847939 0.043503836819905724 -0.5338440629150613
Ni 3.10512603438188 0.9954614836303695 6.724858505562139 -1.109758058416979 0.9602448100437785 -0.5228410269363383
Ni 3.4456985270878184 8.798798321077362 12.64524439518449 -0.283992228121098 0.18904910168429376 0.7977999412105744
Ni 0.4177107619841278 8.827182433012739 3.0947995978131155 -1.116166533046484 1.0504612204288748 1.349188440767302
Ni 2.781836434889432 6.643374638880537 9.452041015084282 -1.0146061584034785 0.7897716715894593 0.5599281615966228
Ni 8.811705215209612 8.709739830301872 0.9145165557829829 -0.4925189789140292 -0.8060470117107151 -2.1313663591699035
Ni 2.784756838486808 1.9070051238270016 8.63953130104244 -0.7241848868275851 0.5550991156390955 2.1492676649303566
Ni 6.682823119019219 7.561450033495274 10.005071487604852 -0.08673230849123773 0.7949969245441405 -0.6997375524184981
Ni 0.21267631913721072 1.9913651734836852 13.559662375830273 -0.10260424252648781 0.5349622356799045 0.8232214666074725
Ni 6.581585531853412 0.6116541200017687 5.017819035751531 -1.1354490354251798 -0.16873070184191585 0.30951556920318307
P 6.807930629594492 2.837664970536424 5.435190772964733 0.3890055943097107 0.7549540496896417 -0.4184876629292276
P 2.273511168982822 1.6923324278457808 12.81984307347415 -0.2835821371668729 -1.7966421519115767 0.06934805157651927
P 0.6709475256581389 5.193905553728815 1.2454157873619676 0.05350594233794011 -1.0192392863001156 -1.3352638602664102
P 8.202520079952627 3.177233286611089 12.128538400090077 0.5797670506994208 0.4296318524715052 -0.10348561669017663
P 3.7657084304267463 3.96675564716343 1.7768435646286376 -0.9206655050892595 0.3620475776636281 3.296241413165684
P 4.541660587512418 8.109960789912146 8.984213547832887 0.568780212670614 -0.011477661622296362 0.18183921419941587
P 6.019311106747332 6.122897914472543 3.405435650488543 -0.41251370473397986 2.170737147658042 0.7785153819493495
P 7.177992749793173 6.845315480692758 13.460894694672215 0.7453882603780776 -0.8870437032697561 0.9656659810593498
Ni 1.7179159003691629 5.2755755155292405 6.22663857311282 0.3447563946833482 1.5374533559874035 -0.0185358540206584
Ni 8.65250176231924 6.298195831352239 7.10098345733001 -1.3488955921172319 -0.1750687282448017 -0.25443276929642633
Ni 1.812326928968234 0.4318816289036332 1.1543885576314015 1.5781775731796432 -0.21002107595027056 -0.04070416258758151
Ni 8.85354897905592 0.18353124399318055 5.381809111751378 -0.9102965031501097 -0.9707665355107088 -0.28366441246803403
Ni 1.2203601985172277 2.493582465935848 2.313801683471032 0.3060494650314535 0.5567338230290412 0.9639885933569269
Ni 8.32011008473781 2.21916586670863 4.0138027042330755 0.07963400688355962 -0.5925444049697473 -0.7419095578008577
Ni 8.263903831275385 3.4679470276798128 1.6841571402990576 0.6869902800551588 -0.07579175031933398 0.11467942852346702
Ni 8.84973495038301 1.5927254761270886 8.760897562718991 0.1650195715389158 -0.3562039743986575 -0.7186791265180074
Ni 2.3151246170880135 0.06389050784908448 10.426393600409709 0.9640492713915333 0.003316723078058804 0.5254589241751596
Ni 7.097732320328388 4.430114067774172 3.6279418454566676 1.8326841331367985 -2.7117342766781167 0.63437882450703
Ni 7.995116148761089 8.546151165700612 8.003064805618552 0.1137386618767525 1.2524787093483785 0.0531272188422827
Ni 5.873097461656012 3.5250100556991972 2.021813835722443 -1.249890894016544 -1.1325323759990171 -1.0505226697944294
Ni 0.7661001709436098 3.18862009685196 6.962291003080637 0.7909518079404895 -1.2586894661447807 0.40737381240425324
Ni 8.979872556744297 6.755437065878888 9.916538116719112 0.8618751744239286 -2.1261156522939255 -0.8096527267841024
Ni 5.2414335100659155 8.153729993354201 3.781142348870543 0.10145264542054785 -0.35874756675611763 -1.0807344174911195
Ni 3.885666081030621 6.96536525759308 7.21764390778404 -0.5036811661784358 -0.5652444316032136 0.6076311240995406
Ni 2.9604048352930037 3.27228919928529 5.553995002337088 -1.8322961536697606 -0.20088748908011858 0.14977035868932917
Ni 5.721982697593702 4.81444655129252 7.757096806734224 -2.1469397881281282 -2.1001477674752542 -0.635064537720145
Ni 7.359896122128132 1.1804971500445325 10.646446472103445 -0.2815872182240312 0.5148040155644746 -0.09375630521755465
Ni 5.417707965687951 6.1413968747991365 1.4128940241992267 -0.5677062628801449 0.014568384732478136 -1.1247177650506048
Ni 3.342940856030633 4.2287628342592125 8.186023945310795 -1.0716267987628962 0.7271216008584058 -0.5651235897546331
Ni 7.615454468472612 3.642222342668945 7.502727810876876 1.0355686195877585 -1.5321720529838063 -0.36593662830538914
Ni 7.135734417612851 1.5448198019745545 13.292646281996657 -1.028527653580577 -0.24656853605700113 0.7958088789224745
Ni 8.69768971072658 4.624694018500262 5.544570482210542 -0.40464792883265793 -1.498090023698433 -0.6972854913335798
P 7.420450736782864 5.231198278530634 9.011517939573903 0.5515221969211147 1.3205707770306094 0.9140114901078518
P 2.050335215839526 7.172640211969592 11.522773914220178 0.30594070736773116 0.4909776025688383 0.05050289384555818
P 5.671875204956079 0.19018184133370256 12.029919042269299 -0.6009709384705456 0.9249620755820844 -0.29680892026979205
P 8.019022922689134 1.0966898581665319 1.989642411740123 -0.06584055264389306 1.697357460676625 0.32062170641867366
P 2.011605320813131 3.611931216397112 9.857371845351837 -0.2777966408333474 -0.35679481390512097 0.49097863101010286
P 3.6697404674177183 0.8996621117438394 2.4790025582601167 0.20931093725712338 1.2350571714378213 -0.5250876568786698
P 6.227792915607303 2.1930664869251437 8.472375506242745 1.7151140133290979 -0.029937925210012952 0.016857952097603227
P 1.4956888480792727 6.930753408017874 4.122628734437238 -1.4159504767842002 -0.6967512160966646 1.2272207061125382
