# total energy = -340858.62899992656 ev
CRYSTAL
PRIMVEC
9.36211693205487 0.00000000000000 0.00000000000000
0.00000000000000 9.36211693205487 0.00000000000000
0.00000000000000 0.00000000000000 13.70240446734290
PRIMCOORD
 96 1
Ni 6.150021411592111 9.3397414548807 0.17915721411892327 -0.02307590798285703 1.1060374150322823 0.06602335807866049
Ni 4.950734234869527 8.351822791732399 9.976158502269694 -1.3283846166480735 0.23603626906710962 -1.3080487333041988
Ni 8.312071243314257 6.242154004145796 1.1197915695798306 -1.5948172386188533 -2.008245998967935 -0.010888107667413506
Ni 0.20733531360760116 3.0962673922499873 7.704752591506617 0.399035467741887 0.30101858747576543 -0.2997978276947869
Ni 4.75951299689483 1.1005823780950577 12.218242262857167 -1.2903544013482293 -2.1157181111096857 -2.5057907132313297
Ni 7.173422497845632 6.1029767740977245 10.10476964716828 1.504866680300634 0.16248112138777823 -0.8971201136691518
Ni 2.717354434377285 6.008194702457292 10.998701082402174 -1.404830969832271 0.8311831446567105 -0.08727146882415938
Ni 4.542499126821219 7.565685834438134 5.771630859843228 0.7445511091887629 1.164677336162678 0.049842891664056095
Ni 2.7484928352342664 0.2698564665730273 9.219237903229905 -0.8470949307909604 0.4097914207068104 2.2733984686747104
Ni 0.6019653933560402 0.06633808803138869 10.556195009177358 0.829420653439649 -0.45224341922343403 1.3438382321989824
Ni 3.565786917619342 8.969928474648704 0.25249161212037274 -0.4634896815612147 -0.8320632332688187 -0.49686671435976365
Ni 0.8787114417663052 5.939561023358515 9.202945947375628 -1.2629027328951796 -0.25823440243070367 0.2439344408682637
Ni 9.312291728087954 8.079413275876842 1.3856831796396492 0.9266011538474043 1.9537332126320353 0.17844407247493785
Ni 6.953759148685273 0.2391299988602754 10.22992710713718 1.2277578095629307 0.24012278043165744 0.24378737376743823
Ni 5.486809049382682 7.146553222301574 0.03249684402124718 -2.606477169909814 -0.9109971287615601 -0.32788558706993853
Ni 4.81150083211997 6.546872185472624 2.720215497306297 1.745706027183342 0.6506901600725439 1.406464905891268
Ni 3.5987322070407846 3.9291587614142967 10.9361630776263 1.1536113081565034 -1.3543023649550998 0.06783675713831544
Ni 0.3236624249029261 4.190764394350746 4.791908730053402 -0.6771905203559176 -0.7359839363450422 -0.5182906885614945
Ni 6.917125185199594 3.0795092029733797 4.204144731844672 1.0239261502528239 0.42322672027610986 -1.2203998265359628
Ni 4.8782059151344 0.5551819589235623 5.8989397342790335 0.6530424623548045 1.3547065423720541 0.5816079605629015
Ni 6.150938899049714 2.8476844639413375 7.965810540603579 0.2427658744814593 0.19274686225085513 2.644736984721961
Ni 3.045740047263479 0.15326815221579318 4.31206466215095 -2.5054528702759367 2.055321869409815 4.439286001549935
Ni 7.814353021799014 6.187198377858821 7.495118878196553 0.6289270573638394 -0.532158190572206 3.1799409040990265
Ni 3.236249764352689 2.366902311924073 2.5086222929260695 -1.8895816176547908 1.3596021799014586 -0.9013763178423444
P 3.16252309365253 6.948975106942062 12.775559720648884 1.7078557891047876 1.029465334903498 1.5220707028837464
P 6.592437608494551 7.586975288301265 1.700536788737905 0.8551813073435207 -0.516540024418975 0.7313238118652114
P 7.711996997574906 4.140293222065723 9.102877088313688 0.21618246756597606 -0.5111522777445003 -1.3515517987931565
P 2.508607313539007 1.710842607037173 11.230737405276479 0.19245041405635888 0.32497998338736933 0.12536159082766152
P 3.3499620363938485 4.20009842491431 1.283557463491635 -1.667711355675418 -0.6902460679882951 2.377424788359706
P 1.9833551061787889 7.8207192613007415 3.4081166980304425 -0.5062617824214184 -0.815384487061557 -2.514967494634591
P 9.347746064842433 5.040226710453377 13.21620179639606 1.0727493424031136 0.20000585780611363 -0.39359244234944474
P 6.443299086049659 4.8730473887146175 0.1313242863803516 -0.7333426420674531 -1.6154763096301017 0.6397799409179433
Ni 7.4229041893780545 1.0912764338822376 5.306352373436054 -0.02803016666433882 -0.45008394967827 -0.037101275727671586
Ni 9.305045449596284 8.98677092297754 3.9455939576573607 -0.2967510704486631 0.4605133725417101 -0.9403105330136968
Ni 3.6014378588290192 2.7210524705584356 8.610357650320957 -0.9301672739321077 1.0697208399894351 -1.306371602712092
Ni 5.333719713599953 3.0787040609187497 6.032730002254613 -2.28814143131184 -0.117606629472591 -2.71639491537858
Ni 5.989320674758051 3.8768432520971556 11.092781931485725 0.9835120081018353 0.16457451358169722 -0.2479867565607665
Ni 9.024181942167106 7.915950714553061 9.205686238996446 -3.504608755562616 -0.2179647562773795 2.1447240114237323
Ni 2.9228248142955566 5.200852550352124 8.841600065680929 1.3455359316163795 -1.927931163967267 -0.5327636853666888
Ni 6.244831569583287 2.5396052826422735 1.7710494447013827 1.5158123806788604 -0.4221262881230795 1.1361753720682433
Ni 1.3550447158258918 0.6778256905009695 1.687643281323523 0.9775246801701486 0.14024339303550043 0.2689846989686722
Ni 2.3242578693794096 5.3078896330333825 3.5761086515173646 1.0671278824512784 0.02309853369067635 0.42472001699218465
Ni 1.0897691330590344 7.249817371866368 12.724436008814934 -1.2384361152123833 0.8290254748837594 0.9624734422639811
Ni 7.427706955355093 3.6987851505039715 6.398447056336602 3.405272899374755 0.1372205470487766 0.11333088491537256
Ni 4.17770424125529 5.137864227752673 13.408775860264877 0.896326928343895 -0.6843309880554408 -1.9409455739490638
Ni 5.665775276316554 2.6291352066937805 13.351581751823689 1.27117705708883 2.5140789213820507 -0.6125977240761965
Ni 2.8552490544080964 9.047006783204184 7.035184288124065 0.3460103216951073 -0.4018631669986692 -2.233236551743844
Ni 7.8866940991958545 1.3585086990841853 7.738720224095101 -0.010250988304046861 -1.3238545899882037 -1.2485675472194304
Ni 8.56729191251515 3.5003363582714297 0.7301589878402479 -1.3958555058065378 1.1749913164941763 -0.0005795266525538406
Ni 1.5861204855047897 3.364501403961766 9.771937964959484 -0.5004996831266606 -0.4944920434799999 0.4441362167352673
Ni 7.374277354125151 6.444600420300747 12.748168975192698 1.6617865055505507 -0.22127942247290922 -2.624681865843299
Ni 5.221215154640738 1.9062299870387367 9.813703304725895 0.5983090753676663 -1.4249632218057715 1.9535511785282162
Ni 1.325479150610514 1.813863341562195 3.9586110450150116 -0.00013626846754815242 -0.08647956905048332 1.1386374604554907
Ni 0.7781969459392429 3.472371715048398 2.4448101040381607 0.25391469200942723 0.2249018497168449 0.0072669659750584535
Ni 7.291684758707144 0.13862205651505305 2.3135550973229746 -0.6162286359605645 -0.03750056804861929 1.5458865743564214
Ni 2.8241574641356864 8.757979509825732 11.515761437462373 0.07041531649876905 0.16816865869085876 0.38329440285754635
P 4.4493179771731315 0.6972745521787485 8.045133884795112 1.5920355621086582 1.073671854217383 0.47893481247169134
P 1.9078683574987405 3.4946629154213604 6.291377206246142 -1.233893490147023 0.37523733688102473 0.09459654173066288
P 0.7067059487582202 0.1087494138648858 13.29901908262001 1.8732759385162316 0.4423217892343479 0.6704444598813357
P 4.585658485796169 1.1279665700694026 1.3133758058636993 0.34475973711745783 0.7775242216806739 -0.1426972538926317
P 8.679066226355049 1.700619175366751 2.9638439933438963 0.25903915772018615 1.0010230204024049 0.6681582349503202
P 0.8130184035903122 0.567229130968891 8.17819765249814 -0.8895155618490165 1.70317355313777 1.4284624932082817
P 4.2104529262215316 5.643587059229649 5.110750600957152 -0.981320399767155 -1.7432547374293719 -1.8493721353154406
P 3.440390723669129 2.260089920048757 5.119875856313526 -0.341368966268354 -0.2308282425036089 -0.556953395239015
Ni 0.07926061800820512 6.41345265732685 3.3333976429373675 2.771542764195317 0.6391572197322799 1.0965623856623115
Ni 5.2581018952831045 4.396225412152103 2.8066634124696144 -0.7819637455092663 -1.0278095444676298 0.1919354220931533
Ni 1.399215183427587 7.7951045094232 5.358434766042029 0.19949729360081125 -0.6410521227621476 0.2373223348683848
Ni 0.11699369401962358 2.0934067905064544 12.057389859729094 -1.548872910678255 -2.014372423580647 0.7506819046768491
Ni 2.9923385323842777 6.606471421749095 1.5061960934073604 2.045939399753651 2.1753540776047635 -1.0237148055729661
Ni 0.9840895573303495 5.526935082477397 6.564725742428205 -2.6905792398670565 -0.8729489157395869 0.6116993806316433
Ni 8.171714386534983 9.004175098321236 12.641056995576124 -0.7168305033450428 -0.6119312941367913 -1.366319444020634
Ni 1.2121975359474126 5.6311167194997935 1.4098271429499527 -2.574253276879102 -2.2799501537502995 -1.2631930104420892
Ni 2.8796467310867775 6.308596947886625 6.776579213658651 1.9756883767468876 0.5869620257859633 -0.8295294111033713
Ni 7.1084681306941775 8.044867064463052 6.058284836583903 -0.2762814897404016 0.23172684305847832 0.2858827602755915
Ni 4.982022429597138 1.7261871166597202 3.6498961759774664 1.9958476253035824 -1.4859127649059507 1.0965004220761243
Ni 8.917538068396249 1.807216238553038 9.73361226694739 -0.5589452288580632 1.8744355060419717 -0.199200845406315
Ni 7.752151117020365 5.036098016894169 3.023216666391041 -1.169835997545482 -2.279756035461622 0.2673649039770621
Ni 0.5833432066017944 0.7430244089038871 6.087526472554046 -0.36435154320645635 0.3494113769568563 -0.2785224632557784
Ni 8.578095795434258 1.256405452016765 0.7622972627836772 -0.3959316320055826 -0.18955458056580257 -0.45301449306150365
Ni 8.896463943222146 4.235674469188672 10.880161702879997 -0.04021642431788557 -0.03289803627960141 0.7456721101670836
Ni 3.9982792705926173 8.726700677215037 2.750716338001414 2.2140787478684705 -0.7854954128116085 -3.9965348380876526
Ni 2.954234716543053 2.0817509549481437 13.583755697816636 0.19110212755858053 0.14827397664946076 0.514448689107585
Ni 7.4504849858076 7.257194719994841 3.7343574499315686 -2.0983955606708373 1.0164018168513205 0.5345601151454794
Ni 0.917262766796034 7.962639591604704 7.524373621130377 0.572523224652814 -1.957922053902402 -0.5229122464939059
Ni 1.5826096916619252 3.664098507336468 12.324792515458883 0.7300248905481299 1.8725375176883106 0.3753106133211214
Ni 5.200740204949152 6.1915236758732295 11.170569888503309 -1.8202081121569749 -0.39201429922904746 0.8586535821628374
Ni 5.379350671440279 6.7027888805634745 7.978197557492898 -1.7247625921624552 -1.311814370994218 0.027568653646888003
Ni 6.200941965489022 5.5147081577873145 5.816588681477415 -0.6950640582022287 0.49700041172415044 -0.8258725310770744
P 3.000642730087267 7.313489129000562 8.640105776816164 0.3313678891915841 1.3581363939892093 1.1781067221947064
P 5.69442335407433 8.684842652491175 4.268764871422286 0.9906434769402939 0.5913169603205493 -0.21426159639417935
P 6.121242264197536 8.084534353828968 11.749798444721268 0.6993542009371504 1.0143773302221242 0.8716260831631053
P 6.850888208030879 8.007100284830743 8.52991085209971 1.6352671191037838 1.368742965860462 0.21804394625474705
P 9.228706748277032 6.45413105531951 11.199605557901338 -0.3740032073636075 0.36129141622389394 -2.051423048576041
P 7.141666197272306 2.0445084538630347 11.636424145100714 -3.1624568883816506e-05 -0.41152023047245906 -0.285935725000714
P 4.944723755810543 4.581623413406103 8.502040766257512 -0.07802346786333014 -0.7015548081328951 0.5092224077116391
P 8.368777585464208 6.005020944823342 5.581852324085025 1.0253788235389503 -0.23062923911892538 -3.2151997273013206
