# total energy = -340896.8143197954 ev
CRYSTAL
PRIMVEC
9.02133145506178 0.00000000000000 0.00000000000000
0.00000000000000 9.02133145506178 0.00000000000000
0.00000000000000 0.00000000000000 13.20363047464874
PRIMCOORD
 96 1
Ni 6.3949693418582445 1.9230140981990105 11.218306351707021 0.6080414721640819 -0.029202846816201316 0.4962522207042163
Ni 4.47194622232768 0.3383684954218566 6.012339487429461 0.09743889627546445 0.03224754717979608 0.2930322268361792
Ni 2.686922411589683 1.7215407005874246 4.880972492885578 0.2342120713741773 -0.08983177335216787 -0.058511880192963744
Ni 3.2328573119551836 4.2944064173307686 4.80631917000395 0.8888725289483789 0.6189658323860695 -0.2518562668185017
Ni 5.191812395068204 4.760069509522361 2.8088475118180494 -0.8242650773806386 -0.10083455222057473 -0.10694169355957711
Ni 7.217552395680824 6.176256179645587 2.6288430790403887 0.24890566883061 -0.20254585061914793 -0.6584345799046531
Ni 5.255602230491636 4.44767884044548 11.53598532534128 -0.3498088695055911 0.10940866704283092 -0.3935039964006965
Ni 5.538673572015674 7.696088928001004 12.371986707718351 -0.10187533478026325 0.7979884030722967 -0.1861617528341697
Ni 1.9011103051841478 6.597191509988873 0.2496725678421498 0.7024891470217063 0.7970404373367306 1.2822816516424238
Ni 2.6108274799256104 1.5096025583723622 0.15582365567838638 0.4386122015932446 -0.3449803377686962 0.9184636123419343
Ni 0.6351333161128059 9.289265101896302 4.92053103175303 -0.7874875035409727 -0.5735002438541026 -0.80581689797778
Ni 8.39320330256052 2.3175259484185187 1.378683190583939 0.21484497970147515 0.26085949875837655 -0.31395406459051095
Ni 6.775723661456803 0.5704819435258973 4.763724953068335 0.35361538773587486 0.9106680275569156 -0.19223624116302376
Ni 0.8019106725649345 7.509437578133824 2.71745240183717 0.22296375215386763 0.3444452912008326 -0.49780002480731045
Ni 7.63554677193727 3.621649637968998 3.551512393663664 0.25133304732518 0.7508991628939778 0.7089104771670178
Ni 7.448453376823909 3.7471544025582784 12.65232639004762 1.415404117362427 0.4238918646639345 0.13630112055830074
Ni 7.9424885567551 8.826245259850241 6.8623094995858605 -0.4028916082631836 0.4641885074004522 0.23489238527065354
Ni 6.790040514634145 0.668864074795908 0.3776554922095114 -0.6508665377494081 0.034441469507321326 -0.9038124380876628
Ni 1.93581536767516 6.422818192367669 9.169446482585963 -0.07361428305204096 0.2109207049464045 -0.1387855775430513
Ni 0.13429605218935545 4.715783792920236 1.505016113409942 -0.4938446397039882 0.03821867716156643 -0.03330169947592329
Ni 6.36243842027192 1.9710346460647912 6.82939336714215 -0.019509016567205113 -0.11389627050053933 0.8386485997958202
Ni 3.4158550225427007 4.296057321005283 0.43374562115098975 0.5067772886052562 0.14337962467163695 -0.20024291351758416
Ni 6.059375808022621 5.741635489333789 4.822823696083312 -0.32690805364801767 -0.5539364627895621 0.4124643395532832
Ni 5.34083577102064 3.0373830998274873 9.12089638255792 0.9189955735860045 -1.5220827870686044 -0.2824467380108491
P 0.31962397271745707 5.5563373391998185 12.604027083036797 -1.713176944207385 -1.2066788774054444 -0.512257337883221
P 3.998001547768853 6.06086432772915 12.395264449528998 0.9430377021368728 0.9936889486348369 1.4879565348088568
P 2.428813094477558 8.418832905507482 1.4674115949572426 -0.46442299200876147 0.3645479754879786 -0.31843215496652255
P 6.246514309793755 7.740924945827967 5.849366426493957 -0.11300975413052795 -0.0719150409727471 -0.12553822561484185
P 4.631614769514687 0.9558642062120273 12.629695477709447 1.0870948124915085 -0.8008940067548659 -0.23260950277374778
P 4.01360845135852 6.118808340305123 8.221623891321814 0.7232328073269608 0.5212883377372377 -0.5180346066866304
P 4.620987640943227 1.1000882337773532 3.8641087490999935 0.323617555822204 0.09913839546507443 0.16918912953557314
P 0.04777787404695834 5.691982080456604 3.639514580846813 0.9198890319345513 -1.0406573469645755 -0.9797797947529127
Ni 1.4337241386656032 1.173034720728828 2.5964276304979648 1.1201836246256773 0.1326352416709393 0.12752003193156103
Ni 1.811086437599586 6.493365005125588 4.776214986605845 0.5056136073144583 0.3896671391531096 -0.012594034614926697
Ni 6.166179352298963 5.392131062240786 9.027494026306115 -0.6274378744128226 1.1633619597853644 1.2154591947012356
Ni 8.798901603907883 2.130026593385195 10.063820390787855 -0.13182714394734715 1.4733876358557465 0.5737293291457731
Ni 2.4348934719454394 5.276784316982121 6.99290680583778 -1.0483032935456074 -0.5412514111227259 -0.03756870228239336
Ni 0.34805289484584967 0.04771923539185265 9.027414638588434 0.8427394820357421 -0.40133120575459913 0.41736049130331987
Ni 1.1704636412357325 0.6197934439371582 11.509142353300208 -0.34038603352979446 1.6589243535114073 -0.1251780140619457
Ni 3.9871579072400776 6.718771995351849 1.6442477360928855 0.6889705437099812 1.3588082232452534 -0.4260960714041049
Ni 5.718423603243492 7.810551582767304 7.991985896596389 -1.0633028522782333 -0.2744300383539596 0.2257670259306176
Ni 5.346519209900115 3.076283081491445 4.766286109096719 -0.3970518616529549 -0.4439994340470869 -0.0829414739902378
Ni 0.6690905102179315 7.309588020202087 6.956214344005263 0.4484276450217697 0.0817669940661624 -0.1676251274825629
Ni 5.0343360314489916 4.556909122910042 7.032649379868948 0.5813127979199859 -0.08224341948194869 -0.9110084416154697
Ni 8.16682200852635 7.138633787240122 9.123417844727463 -0.23833509240361536 -0.6933200789279286 0.0648643047735528
Ni 4.783010755666018 0.2532423087383529 10.340740086324729 -0.5271298841196793 -0.04192183704476651 -0.00552478647297113
Ni 8.1446565968964 7.29413447924885 4.775872176006766 0.008765147787139743 0.39507262643939706 -0.05278809033530908
Ni 7.252176266187843 6.0938282732301 6.96317249703342 0.49122854223737983 -0.2675248265936941 -0.2676641803850358
Ni 2.304228505706859 5.315449744025655 2.4691050676004087 -0.40194081431413997 -0.7646615067853928 0.8054242905250517
Ni 2.365753986910057 5.364967832929519 11.392237624082043 -0.9197013414037774 -1.4027643171112292 -0.3112703471107607
Ni 1.0860510418782072 3.4072757362341615 3.7917125633733564 -0.29099385624991175 0.32278220440510214 -0.7248382041408679
Ni 3.7925858282678537 2.8838400367661343 2.7776607686333783 -0.6679803146115593 -0.7356743755244233 -0.6150618693459731
Ni 1.296807389659601 3.384893812646898 8.371999564874304 -0.5462216106438077 0.40361717357529847 -0.384425431138196
Ni 3.449251991958279 2.8047229590312304 7.228221924510592 0.38481855281155664 -0.40553110276855964 -0.47557849440494865
Ni 4.001925826995156 6.899595565034678 6.000733544384311 0.5061458256688444 0.12994278244044072 0.007278535939284239
Ni 0.6839405240901579 7.17770517420362 11.234890265504065 0.04730341307165402 0.4570832638142385 -0.2012394731028986
P 0.2459666048394704 5.5451238240773 8.05429352724538 -0.23300545266058578 -1.2178413217801671 0.12377084930177396
P 8.48377747136992 1.692645375617653 7.889341186166772 -0.44919486220509736 0.2641209431184677 0.004315596656218374
P 2.0684650268557787 3.191945573354524 10.541673106176189 -1.4501641465514314 0.441260437849369 0.13238713021587523
P 3.889980123732623 6.22875130796251 3.808230621450051 -0.3293634571670457 -0.048173217271117036 0.6088426279091386
P 7.068159145134642 3.870521111569089 10.384404233182735 0.3445393935765356 0.20273379826023796 -0.7837270080572761
P 6.376683102796825 7.638785429965415 10.234292884644798 -0.5982337420450408 -0.4571084606252192 0.09678403630028493
P 2.265734483962865 8.426843847928074 5.960052751871452 1.2612248309721248 -0.06678080506997532 -0.3667907487755683
P 6.734333792283743 3.9443426676813718 1.6421223103785931 0.9613321295706863 0.0270937708929985 -1.120165112682916
Ni 5.397444626526516 2.872788905611601 0.3135237483201547 -0.9078426422929785 -0.5327197195026309 0.1304390053505689
Ni 1.4959442623985144 1.0468353136098347 7.177202686036022 0.01705027061406741 0.9730959549748337 -0.6397683709537175
Ni 6.914210122153326 0.5191108731206935 9.16252712128349 -0.2554522116998762 1.1895301335402997 -0.6606683543311783
Ni 2.7900542739232543 1.556865314387546 9.263046405998816 -0.16057747660716218 -0.6218323553005872 0.3199303367786039
Ni 6.22030734162729 1.7988354693482749 2.5682251437915955 0.2893966869661209 0.4067503198876414 0.16534275920628944
Ni 4.1355588113152395 6.894985664610216 10.319363139072662 0.5117405461478026 -0.19241621838431378 -0.3713184614425928
Ni 8.068155705312364 7.308424268431529 0.18643122937724405 -0.32095209317489887 -0.7136248519235516 0.15051212195136013
Ni 7.724235482451732 3.8372594621268323 7.927209127500868 0.5787005571081194 -0.4795531627819805 0.40783712519391696
Ni 3.0256012408170214 8.408070456962701 12.072805974437047 0.9441679590865739 -0.8200708367936329 0.6855427489753548
Ni 0.26176115212547607 4.833530212372455 10.259986539045798 -0.7346438773773799 -0.8962361684023016 -0.016115674614939984
Ni 8.62252555068153 2.375533110315375 5.710636389845456 0.38439432078994445 0.05117883686666024 -0.053232634071895414
Ni 3.9364038959132173 2.4723590618921962 11.326153664044245 -0.5809338173140124 0.5416427330238737 -0.05313647481366333
Ni 1.1170302944371195 3.3384339551400846 12.726055026444888 -0.5581237613980324 0.3759549317733396 -1.1560703112199575
Ni 3.1695456071041512 8.367582720945112 8.091211522366766 0.5973626522939971 -0.2752635899988485 -0.5732287353602709
Ni 5.529462792498304 7.848621601928227 3.6468299786045364 -0.29505337103126605 0.04139296112449 -0.5015276101705427
Ni 3.1339564541207765 8.442739434127494 3.7542541904918436 -0.5722537730415111 -0.04790299432886589 0.02981605492016801
Ni 3.595596032438964 4.400298807120085 9.463213514801279 -0.6558084551357157 0.12070326612004374 -0.08937617387198801
Ni 7.2836967986400385 5.934782197920368 11.386731905434198 0.2983428404158152 0.13362743038087954 0.005255591971984497
Ni 0.402963935753126 0.14477974158909682 0.6790401367896335 0.5082885830434601 -0.10458373485036182 -0.8135363781092247
Ni 4.479560226159864 0.3243006309954245 1.6420690845224202 -0.3310228471473396 -0.1701260395275457 -0.2712300433594232
Ni 5.838461440910611 5.653497080044165 0.47861411577155055 0.606820198162471 -0.24690072258543927 -0.23190219229407802
Ni 7.962894808731878 8.762527595079247 11.257441790124556 -0.6195181053451136 0.1410951995128344 0.5192440536136993
Ni 0.1320722939611167 5.000397782140131 5.693881070748874 -0.5529159919448478 -0.8185983660131643 0.8201433419027812
Ni 7.7524000795655725 8.700072916725913 2.424318667096996 0.4508845912026944 0.6043822781449397 1.1701609849850687
P 8.532041595187678 1.5851201248169324 3.441776916632037 -0.9549871611892649 -0.6003968111346305 1.03561567077561
P 1.9598842802631558 3.145233118564178 1.58139882555061 -0.8048658469184203 0.3323171404787309 0.5501158034918914
P 4.76692572150395 1.0454099432241888 8.199137320288516 0.27995739593009206 0.43952211500202365 -0.2865473904427839
P 8.41376291717373 1.6963170575604245 12.326935982200384 -0.07217806482614667 -0.5420240276226923 0.7122593390345927
P 6.15581384234259 7.787150248714357 1.373877527264739 -0.29500606273309843 -1.0253579976033438 -0.0003584117806832537
P 1.6580124837790788 3.3768738488947516 5.958098731456699 0.6761592508779259 -0.690035751749702 0.8968642889046037
P 7.053048414780484 3.9085460240722383 5.754485474000334 -0.8497264548765365 1.2156409716947387 0.8749808585679512
P 2.185570931767613 8.461431633108875 10.01607589566765 0.6688658025403061 -0.11216257563888424 0.6446056444413608
