# total energy = -340873.9033019453 ev
CRYSTAL
PRIMVEC
9.19697589106601 0.00000000000000 0.00000000000000

0.00000000000000 9.19697589106601 0.00000000000000

0.00000000000000 0.00000000000000 13.46070386114322

PRIMCOORD
 96 1
Ni 2.995087221653737 9.424693180807846 2.1447743627240206 -1.0993510041510424 -1.5405890734029082 -0.5070531679744622
Ni 8.69622829852102 0.17616899600656974 0.004626998652625423 -1.3028327363208982 0.7265104496369682 -0.8946881071888915
Ni 6.126602386088323 3.445040078105826 10.63231407761013 0.7048836153958119 -0.9545379894669883 0.36716561561648375
Ni 4.589438202422039 7.554800797470159 9.62798405919683 -1.2617889310057107 0.14523673248503371 -0.6955170865792474
Ni 6.021545328626704 -0.028982430638080887 13.194545621295639 -0.23846750421642157 0.43078087847428387 -1.0227503847771677
Ni 2.044092306771156 4.257445760834933 10.932473945680107 -1.0212144077486154 0.1153844250102916 -2.556359684428133
Ni 9.328952660088644 1.541293625914404 7.367151216255734 0.1447957882928732 0.7338031266436396 -0.19066863956558774
Ni 1.4550351875065846 1.959581293813543 2.999476018626571 2.480192038826619 0.6111723044835797 0.9017231596588018
Ni 6.4282632006502665 1.7969143783514363 3.908356140763967 1.9131457781279764 0.9873750906016673 1.2191556697162163
Ni 4.454647321378751 5.108230424636205 11.002860242814421 1.2552120491191414 0.44628154521304425 0.5753061867145898
Ni 0.27091256452154894 6.579571850686032 11.083583941033114 0.7931729839615242 -0.5751112970949643 -0.32651673174686996
Ni 8.737945781900684 5.670395585919707 7.027820507475368 -1.7309913466809868 -2.456628649684382 -0.8311425212267621
Ni 8.71327029514856 1.1277883855631983 2.4644667685368833 -1.912663696285235 -0.20950376999421982 -1.4351265354920186
Ni 1.3069546760656747 6.656182661213502 5.493179054340617 -0.06194173181011913 -0.6465622539470993 0.19599622242608827
Ni 3.8783464079006866 9.360498287952895 11.22529830564964 -0.415797003470942 -1.6211409641150467 2.8851731826289795
Ni 1.252674123396632 5.054851175620428 12.873238226487745 -1.3437821821500664 -0.36954542870257 1.4249994743603458
Ni 7.9176123058132735 8.265782228278868 11.48792991293242 -0.4476933379589064 -0.019414142860553662 0.23866342227731158
Ni 4.679007552209196 5.154160123048473 2.5991003812896527 -0.09627624342593097 0.4254728359978091 -0.18172634277063543
Ni 7.34477865230746 7.286387051342406 1.1321753431408217 0.48510597427940977 0.13299082523814515 -0.7425893574767017
Ni 7.28083207780596 1.8366729058316582 8.371723115139249 -0.5095695066384127 -1.002318856395693 2.0802497429997464
Ni 1.3769068759302523 8.825712524381315 3.777086781851648 -0.7221999951870723 0.31359205326540185 1.073997612987918
Ni 3.8796983633805833 2.5400024525636726 10.663637138653883 -0.7344369035728964 0.02283165318253487 1.0360062213458092
Ni 2.4958845584339886 4.163986090177054 3.8845166591351257 0.32142157661214965 -0.43253257105806797 -0.34380200118987886
Ni 5.0994841004091205 8.056238325870961 1.6604855158729812 -1.2796349580481963 -0.8766569607187934 -0.37236592887050063
P 7.300430833776433 0.9095533407845287 6.007539253794498 1.0248190943807383 0.7225393808043621 -0.13930185505783751
P 2.2619318815795153 4.971526572573744 1.8585736649083764 -0.24509272284242306 -0.14964488885505842 -1.0454326568660317
P -0.09976511744030915 3.774328608733138 8.093328810598 0.4016099133372825 -0.8591081532017527 0.4347722590218641
P 1.8455571846995495 1.5317011798903764 5.787738883691485 1.0101735765534214 -1.4485618350613183 0.0020743660305254596
P 4.797105921714986 3.1266683580542773 3.325346033254716 -1.1484289926246156 -1.893044893613043 -1.8318158715992323
P 6.908069441372724 9.441247737704538 10.069064592849896 -0.15631407334511788 0.46674392683245425 -1.1249154828837078
P 5.454018330303887 1.893096353921217 12.324674473090088 -0.8439455865287014 0.654255508826299 -1.1829355110419175
P 3.9152814637324167 8.046002091523173 13.282955232402424 0.6097363433680015 0.8374874896081834 -1.465695152307495
Ni 5.597546338598207 7.461745793758642 11.623156730640657 0.016329076177326717 -1.0911041907612178 0.7395359153623586
Ni 0.44187515238410896 3.472980491357021 1.4000473873790116 1.2525766683788233 0.6503116936872027 0.2461515031242406
Ni 4.10035221286138 1.1931420974009168 4.584850750766444 -2.324406584291461 1.4259235288365117 -1.135123276654645
Ni 4.95179905893852 1.1924155362926732 2.2867986654335577 0.9957376036337496 1.1143271658449 -1.5927012207171152
Ni 2.0343251182021076 0.2622306191268393 7.922781926053068 0.7969784737505435 -0.3189314632004443 0.29383466813281656
Ni 9.214266368698784 2.281549031502095 9.704090875436556 0.725762258617034 -0.36428289475205006 1.0132149344829067
Ni 7.002623552180997 4.824099046432648 4.143500745715002 0.3922906928188857 0.6506161123014989 -0.8050141995708265
Ni 4.482836052983396 5.4453915667655 0.1081877081103039 -0.40823744595612915 1.2486338816809914 0.20956753335261968
Ni 5.481305758255268 3.2452725612430218 0.4698928202341549 0.06880837702296537 0.6118163658254818 0.961373781441899
Ni 2.8900025732639576 6.8643654111654575 7.645168444778779 0.18107379678830107 -0.1529240738269624 -0.44841144707185354
Ni 3.6503441745529686 4.580048089871193 8.078414994229291 1.3054282649622162 0.02303785565607 -0.9101008421995358
Ni 6.661360558731745 5.253091994458315 12.524767562905193 0.7330197115103957 -0.5454237973328607 0.17822732847844144
Ni 3.5768511389077093 2.7605183474036643 6.252268027491112 -0.5967836398620754 0.3336404872758447 0.6727749077867252
Ni 5.829328529104004 6.401325257788928 8.080326125853254 0.13028936714658207 0.2986778551577308 -0.3957030609345443
Ni 8.042672786191728 6.9699558932381915 9.191399927136425 -1.3746284781069615 -1.1277038442621223 0.04804311945115597
Ni 3.1510679355247904 8.440644333988203 5.844785886757487 -0.46839663194452885 0.4772013747203523 -1.4139573576135713
Ni 8.606658948733864 4.511926088241306 10.3102129837688 -1.2181341704302375 -0.2956647793630198 0.8766165943991612
Ni 1.820063167078644 7.704058521845946 9.692070427734347 1.0844833430105902 0.6550026714049687 0.2583357038952583
Ni 1.1669950944801972 2.245129006329373 12.404389263035688 -0.3941375162196373 0.09292995266151738 -0.7508734518623649
Ni 3.3592506854767468 3.628814053611215 12.563400380516441 0.5230184330544669 0.2347016094160861 2.63857662154752
Ni 5.093772778279762 4.21367735179529 5.004649481831209 -1.4563443072202145 -0.08583345082605219 1.9108027318170964
Ni 2.2900194464475696 6.733418866112623 3.337110805022632 0.3470829859339958 -0.8651422752109746 -1.0052571130884105
Ni 7.6374264303367605 1.7028936921542792 11.922280099509377 -0.49158026914984365 -1.184329563175967 -2.311932620194167
Ni 7.815581053473327 8.951600732604604 4.0523587130226595 -0.6853630288643809 0.2355608720925879 -0.1572602393084711
P 1.2715279243067534 1.2499794094128929 0.8706400154036433 0.6483039192285545 -0.13706190998372522 0.7642462736248451
P 6.825315050841371 0.2515253390003118 1.651844037172908 1.3405027400678462 0.5294880999392108 1.584955258223109
P 4.818029042237194 2.714551861087183 8.777792600351022 1.1376897518302407 2.1008723043461046 -1.6972875266706382
P 4.596556661887616 8.466230321369647 7.409848177585118 0.598056593037228 -0.47819150654776355 0.8772771108012957
P 3.05800373483722 4.9232700392198865 5.801160030846677 0.08679658607026987 1.2923282372451486 1.4057203144157595
P 6.771374786286318 5.244060563973564 1.655868633894015 -0.8219832233249973 0.05247672974247737 -0.19447361513397474
P 6.627083428979538 5.57360660993038 10.32170828413834 -0.7954805490487785 1.1842909966285475 -0.5826394871512094
P 4.175739825573705 7.74434127696123 3.67055912791904 -0.878449790953158 1.2369307343114504 0.4578003444859213
Ni 0.037510786532693394 4.568303551450595 4.585832987808981 1.4296395442355185 1.7957072988021332 -0.8753760371238408
Ni 7.8561397178702235 2.332564657672068 0.6236037204151511 -1.5328104578987536 0.8212062359496566 0.2281365546040587
Ni 4.900728250912224 6.509123014114554 5.478116246959839 -0.47252453806997335 0.5129865027397618 0.8688302655855231
Ni 0.5224139913841211 8.881372623458414 6.018307993055797 0.08165437974769808 -0.6111231964131991 0.2664958711085475
Ni 0.9202770148631636 5.597785459975603 8.989556652778296 1.6845816490681957 -0.917837034501529 -0.8382030276179693
Ni 0.6678678464640895 8.38343914293408 1.5301321757756121 1.1546217516988888 -1.6692229072239382 1.1348921344804455
Ni 3.3357064267792293 1.3726578729934344 -0.263785827777523 0.5347496054484662 -1.3098184236101118 0.5064720986600116
Ni 2.686225174841732 6.717544885443906 11.834919863370322 1.4611808093769094 -0.3632382555376196 -1.5973932268761455
Ni 8.038046707236708 3.2551041286444464 6.14285988065848 -1.457881055579715 0.7435787179731645 0.5341842198632993
Ni 1.2932971666259037 3.5885956773283074 6.260573816565225 0.16866411027003855 0.31698668076924763 0.8306308716976661
Ni 3.1131671972074195 2.7243466405843924 1.604543069631032 0.5849503946725733 2.0421837893659607 0.35646854091395386
Ni 2.4504974816088914 2.725735383968504 8.592546188979433 -1.186543282997834 -1.2745603717387661 0.5246937638743608
Ni -0.01925294967085283 1.7048066631734526 4.696331896001585 -1.0064290219093248 0.18269950531718213 1.1308112795428527
Ni 0.054860881858032014 5.9695640199710915 1.7772438859677446 0.41985317581818665 -0.48058597492186916 0.17375360897780395
Ni 1.5007625524456696 8.816368396710738 11.973027173978583 -0.4496116380275418 0.47602843745817375 -0.0274552679974753
Ni 7.800875088763433 7.440252460721104 5.755406914374642 -0.8472821071011021 -1.4523871223446794 -0.24302992677612337
Ni 5.8105391070262575 2.395959413610345 6.765726923291728 -0.9785520929933986 0.07668700844009373 -1.0431369188533195
Ni 6.8569526484661605 4.0995060910644385 8.41662827041913 -0.1817116874826161 1.251128108857755 -0.44391690163560965
Ni -0.14389128884844174 -0.226562906595311 9.324674226828455 0.5458649986353373 1.7605412924239616 -0.4179683000906479
Ni 7.150005093441824 8.761499237574256 7.694394339408698 -0.9536666426056286 -0.44919666197731023 0.15880033010208133
Ni 4.304193990115981 0.7918182518328604 9.252713407393745 0.576707952158123 -2.076770011981262 -3.8685460940497896
Ni 2.367329227155121 6.845272488877939 0.5901129321155377 -0.6756170052212106 -0.15966653475711856 2.1451919521990863
Ni 6.180717393188399 7.058256060329936 3.4721343695600786 1.5117937464377704 -0.5211417848570444 -0.005709134569635329
Ni 5.56818959103474 8.966233121506068 5.23663124671737 1.3020791459843253 -1.7588839593261967 1.2808148372889103
P 0.5210583571138031 7.313803236958538 7.616335924850374 1.5424932324041565 2.9488303544683085 0.7066340224280153
P 3.062206752893769 5.822577948680575 9.691936151883962 -1.2757124830653386 1.3739373655772078 -0.3931880078221745
P 8.885934323581058 7.180824160197832 3.6019763577888613 1.4161469090657224 -0.7322635500706615 0.5380401032742799
P 1.8948069914672085 1.295596410639333 10.399295813522716 0.46101088100341897 -0.6779058012553874 -0.2691569628804784
P 9.243604722310142 7.211339726744068 12.993119889650352 0.2566305482786935 0.17366002082273319 2.9797879791920874
P 8.584227524138846 3.5802080351673164 12.30309744757046 0.29162994717201385 1.0639811092921805 0.6454803337368302
P 6.557122032138906 5.223100655547141 6.456090491096001 0.41249544990153475 -0.37540060193176644 -0.9987982448369443
P 8.296261006920888 3.2864934079157853 3.252119709915015 0.1594446485542996 -1.2298720276924562 -1.2694402769033817
