# total energy = -340867.6148413397 ev
CRYSTAL
PRIMVEC
9.27310343691855 0.00000000000000 0.00000000000000

0.00000000000000 9.27310343691855 0.00000000000000

0.00000000000000 0.00000000000000 13.57212421959000

PRIMCOORD
 96 1
Ni 3.1126470088306735 7.120278327597126 1.712422291962262 0.382103982093871 0.058560988263344306 -0.7281009340525396
Ni 4.958819908936404 2.1360872075205326 8.821989257721656 -3.3718716982064896 0.09644336513141455 1.1912666566154324
Ni 7.775404542740452 1.8018567385417803 5.34596456103217 -0.14275098994870253 -0.37729087697594377 -0.8050573941039361
Ni 4.826029067003831 2.915000081110641 6.497505043209285 -0.9408800323639216 0.6784508751255799 -0.5942372192911379
Ni 8.561411340498047 4.6946106443873195 9.469909344145304 1.2006540113676032 -0.06908168528901006 -0.5298763365165648
Ni 4.500849147028304 7.467537506974989 5.875114737995455 -1.169114031777793 -0.43079784775514834 -1.1586902653413078
Ni 8.296692055257184 -0.09668323157523703 0.19383939142830656 0.8141326169323269 1.1447446017944929 0.3906899239906691
Ni 0.9172610864423874 3.8241815124848824 13.604290077922606 1.093832388325658 -2.887720631641182 -0.6374957728694569
Ni 0.2688736356029999 2.675141986318187 7.720787817823241 -0.12470056020489491 0.861557900293826 0.05122100295850533
Ni 1.0062059131577967 7.389745441823288 8.00243700810016 0.17741537410010735 0.24989348666517605 -0.0681288344574375
Ni 7.601700768223625 1.6253339405649323 9.186957282828475 1.3617719338592675 -1.7962580290992807 -0.12859860970772044
Ni 7.791873574533207 9.067240589502099 7.56314784047679 0.2453971414567193 -1.035270114510733 -0.9250986011599488
Ni 6.206089420339953 1.3295868510568627 13.525463134421766 -0.13006002474459535 -0.044863179061277576 -0.584794071600367
Ni 3.006915082872908 3.8714187016472095 12.137021750154174 0.3684928190683396 -0.4776716294885516 0.3868312123662112
Ni 7.614145273103061 5.560792694892752 11.612933760384395 1.761569990798792 -0.7903555691173872 0.40770934136680104
Ni 6.1956108133997425 5.002134575323767 6.090951785515413 -0.44999138996446375 0.7674817498430072 -1.6876849705838677
Ni 6.052767927287357 1.2468244024361772 11.013235666713385 0.06893024731281032 1.2192279177150487 -0.1285209623922496
Ni 6.101164254385549 7.124692324856896 2.797865947105369 -0.06987384217300224 0.8832261292958788 -1.2576188587884212
Ni 3.795657446159142 7.259189417831061 12.930624146977898 -0.3572038764180816 0.8376777512421187 0.5434365916995028
Ni 7.869888194168594 6.15184176494152 4.074473703320809 -0.10173803787145058 -1.632340946595924 0.5730461870358196
Ni 4.429668804662771 8.792552718012804 3.4168094397531146 0.13243289585214613 -0.3946972453778493 -0.06708033858826512
Ni 1.9026646465479955 2.6697728593992656 5.614326321322693 -0.07321884738583519 1.2842287480664656 1.594248510599577
Ni 3.4990201387163293 5.938476926811173 8.076499431029424 -1.2576731090651245 -0.4858161129725569 -0.5067124968055918
Ni 6.803703847657453 4.956028704786844 1.6866625377859705 -1.1597667862349381 1.3050788520425975 0.8426525787488907
P 0.43236123200829635 4.943064906112141 11.424457932012919 1.2481068055329279 -0.185502521983616 0.9724832610914994
P 6.651838231852303 4.904460976296128 8.137139963971732 -0.33887833863601635 1.3409650244162454 1.6510331236887887
P 5.993586980833888 3.68916512571545 11.615675817085474 -0.9370827701050184 0.3362948941795563 0.0916361735507583
P 5.8867515555611805 9.003896019583005 1.293784325804246 0.17093927945746046 -1.3018467182585451 0.34505515687068966
P 6.2050044672319835 1.3341770372828838 7.545299898195531 0.2794848271690477 -3.697023174174717 -2.127942421090019
P 0.3825730120767196 0.9877617103223297 6.314864778862122 -0.7281089044723396 -0.2423835514413761 1.6602934659447923
P 4.804042538636363 5.80649284488196 3.8533973523307457 -1.1245527002276505 0.1367099259609452 0.6282557423284276
P 1.7676575328820505 8.266675019270052 12.769333348788651 1.715192946196149 0.7438312003036028 -1.9196964347623
Ni 2.0846307562716606 5.685506663688226 13.488493125440149 0.7311852294048182 1.0646992184051278 -0.6896212899201025
Ni 6.751533367440088 6.640015024906491 9.827547908256067 0.8307748534746983 0.15083710939094666 0.03733653166692925
Ni 8.005405328526319 3.247802492152409 14.259145518444116 0.4984402294944706 -1.9255261540702 -3.410584284285339
Ni 3.425132050132618 4.823738610442564 5.712073177867879 0.15349228762560663 -0.03245966319060216 -0.2750033943589264
Ni 3.260386093584148 8.44329054828177 8.003495069208016 0.9254331016812319 -0.6882328942130083 -1.2111757368345335
Ni 5.603968264727813 3.599744588791162 0.17803895039695802 -1.2583045720015362 0.5214598303180955 -0.5204822968961746
Ni 1.966945799919266 3.672649728405261 9.813216326817045 -1.1869212351625429 -0.3161652133092168 0.27837873858906254
Ni 6.646589655278711 2.409041008657774 2.1803078561185676 -0.4553634529096544 -1.0386544576019339 1.6581265402004604
Ni 1.9292135418310232 8.266786296511896 10.05858635432212 -0.024746867927376737 0.6535145168952164 0.2766018491942978
Ni 1.4659107454179492 0.7669533520230383 0.8828040885057215 0.3783339735284774 -0.4392593482589403 0.7129247405327335
Ni -0.19894330758750264 2.7570513094180766 11.129630734370751 0.6506996731542407 1.5323283760560125 -1.1285772480060112
Ni 8.718933549430215 5.4505354944333755 0.16221532660689217 0.3199138817183716 0.5707170246820106 0.014458341517175101
Ni 3.8915320631103203 0.20547899092507793 1.0113951418690725 -0.9099961983008716 -1.1235895649834327 -1.3433088420580737
Ni 3.8013974972175406 0.4326811540785948 9.97412692776333 1.5051060500049498 -0.752725160359123 -0.408444933981245
Ni 8.746734313683975 4.018415938121731 2.5604494604610193 -0.11304317847162466 -0.6257733422262061 1.5127309135400593
Ni 0.6119691915152398 1.265602436997173 4.251834789852873 -1.2659515470238327 -0.5785177516733521 -2.377095430044745
Ni 1.9065129844950637 8.932354026181484 5.555884441217131 0.7115476576795488 -1.5672529558473396 0.422721241394601
Ni 3.5717212700537155 4.653113506283391 1.946880658594287 0.37365302311304033 -0.07854668735665182 0.5396724966713802
Ni 0.4918444816354391 4.976151339353442 6.402541045020522 0.6691630220657507 -1.4721594198756 0.8610336523592397
Ni 8.21245518318208 6.193181260286172 7.391867127901094 -2.1309462409133495 0.48466091632219105 2.3824194133608194
Ni 6.576920828781544 8.947292995898897 4.800609635725509 -0.08663126413699919 0.22986073638401705 -0.05225792886345194
Ni 6.543259463124056 3.3931212968957998 9.592777038036534 -0.45266045215619466 2.935365230102338 1.7328021746374804
Ni 5.2694966950584 8.30751376702641 11.484908366333745 -1.657755787124603 -0.7186768125251622 0.6397529443347498
Ni 2.501911140079193 6.516404555425961 3.8202812451582875 1.7536425084215994 0.1611606028041418 1.449792879254942
P 2.0560603244284863 6.530286391345867 6.025629262622562 0.0765247718306166 1.3408015022551876 -0.1183656191258026
P 3.196837515388343 3.3195021283132085 4.032088201902834 0.04055246750106564 1.2372942882984561 -1.0708274427900526
P 8.173647245089356 3.9246741349725425 4.683346605581768 -0.18908946800392595 -0.14901831101465304 0.7518522708358665
P 8.38569530252456 6.708255793466673 1.98455635075126 -0.5054300305487425 -0.2439501245975476 0.5325099174846701
P 7.971790328386264 1.3575638042768747 12.11974410373736 -0.23939927200207162 -0.9549406242220456 0.6249369623678399
P 6.68505448854242 7.078085706731678 5.741863950129931 0.7840820774038496 0.4532088684604969 1.0724181843159402
P 8.745204251608634 8.085302388169548 9.631634123577738 -0.9713164944769078 -0.20920963579256874 -0.7176499139225446
P 3.036236636098522 2.287915730911735 0.22117557319737305 -0.8180419792890622 0.9241362372466794 0.04935875293878596
Ni 4.167981824262127 4.5417806258195315 10.040630844040413 1.417877518603584 -0.11628148290326425 0.09533444833795193
Ni 1.6222645433107643 2.7428449148761285 2.353718600565208 0.28641009353397123 0.30378869402173486 -0.10048411085969146
Ni 0.4010932543607793 7.561807877022932 3.5692648249400327 0.927956382323718 1.3910071765753012 -1.4466517625227988
Ni 2.677154249774847 6.1523888780472475 11.159693208564969 -0.33246652157240164 -0.3648922462012748 -0.6543609240559117
Ni 0.9283118438677399 4.860951574735539 4.215053952182387 0.2992044170851621 -0.7644496478849028 0.3885201700328599
Ni 0.322600142585468 7.261016219217983 11.40371956337479 -0.7575650049499275 -1.2094626107981687 1.5884509300811933
Ni 1.095376076287938 1.1334792585156575 12.256347118513403 0.24824669509037248 -0.46753479816486576 -1.2333756699703404
Ni 7.090409661265784 3.0697403589967336 7.046457005358521 2.1427818000956966 1.7509492778601523 0.7966941097409053
Ni 5.804322938666024 8.74945133300564 9.322529128496774 1.2519012395783535 1.4052238343953156 -1.7983195396139997
Ni 4.359397226438955 0.6766629979916781 6.208038626692901 0.3951813841031194 -0.9118173106700103 -0.34610390985017814
Ni 2.932962082564788 1.2256724533825318 4.07931889989272 1.1881432804951022 -0.6619868160322857 -0.43463779032652894
Ni 9.155631811939339 7.3296835505385625 5.808679442684174 0.430823044566129 1.5050924231581948 -1.1577073326027483
Ni 7.109883178588298 7.111060862731136 0.20003104262651739 -1.586114568638533 0.28318413039750584 0.24801118204079867
Ni 0.7493873120877818 7.5687534315346285 0.7791066814529847 -0.7091771005648432 -0.3414977785367344 1.9559348482690442
Ni 5.535449303063023 5.773842247504545 12.151231853937517 -2.265587457270724 0.26690596206277256 0.7299791249118589
Ni 5.5140840726291795 3.7136553920243833 4.0968274465863574 -0.3283815528697506 -0.2875326371741887 -0.14120215740434394
Ni 7.588653511617541 9.098286939976278 2.522528958371992 0.4049034964868898 -0.28491088328062547 1.333500340608084
Ni 1.2111693195290025 5.359501437502364 2.0287473254181365 0.40956722051114625 0.8927250699252496 -0.7307280872627415
Ni 3.8765745471859323 1.4225868059270983 12.013650526743605 -0.3241346046679385 -0.008689814464514065 1.0082143959445216
Ni 0.3680791513266769 0.6412536523269065 8.946473253550653 1.2733380692958909 -0.21132359681177798 0.5397522008693801
Ni 2.3168107213769518 1.2152587581667305 7.620937821407223 0.5036212594747779 1.0792727453439284 0.09342514713038103
Ni 7.43714954684838 8.51528692375415 11.78481166082465 1.0005777053348703 -0.6019708404899697 -1.7714620531015233
Ni 5.6155781902934265 6.9261459060986335 7.855219999072997 0.486782076430252 -0.5093399071261099 -0.8934771175999258
Ni 4.214402980317606 2.16501001729621 2.0295893232147484 0.33665073485707825 1.7742491289283575 1.0743125731251757
P 2.2106151402448404 8.9304994054841 2.6915284874899084 0.02063567397248059 -0.721399353662648 0.5578923621135167
P 8.87255178179439 1.335401086943156 1.8264007888509375 0.31106825840228364 2.173158612615341 0.49041993029315534
P 2.129141653008836 1.472309186823918 10.229174366067344 -2.329974565297542 0.8751202123592928 0.5593764028582108
P 4.099796694322866 7.37247892313066 9.755330832920697 -0.06457788388138556 -0.5950779700248784 0.5396632406999996
P 5.547578522423904 1.4610516391908075 4.0123680200275675 -0.32136012724659496 -0.4227698352443493 0.2619930981421875
P 5.045690342401791 6.108749653037842 0.8408228943997755 -0.3305456504006049 -0.4550744609143259 -0.5249393042262637
P 3.3313624276729685 3.575263595585716 8.054336713695704 0.7443220238970923 -0.12584392978071876 -0.47427597354344125
P 1.3296332165742974 5.298280408281774 8.485930132735286 -1.4100459383743071 -0.07966203190801766 -0.2547083915553162
