# total energy = -340859.73382252036 ev
CRYSTAL
PRIMVEC
9.30816612942628 0.00000000000000 0.00000000000000

0.00000000000000 9.30816612942628 0.00000000000000

0.00000000000000 0.00000000000000 13.62344201426814

PRIMCOORD
 96 1
Ni 4.774009533610403 1.4328153374216843 12.53695874350612 1.968115449495636 -0.42997175230942725 -0.2249170192254965
Ni 0.05820396349596761 3.2785967782276795 2.9312876870473517 1.1595690684018352 2.4974279430889315 -1.311466500736496
Ni 4.893302992136602 3.7900153559278156 7.323199788973696 0.4650994492504958 0.40627389447185513 0.03570490960077722
Ni 1.8103638682644705 3.9853658407974573 0.9328132256143685 0.150351942224412 -0.19121371343578036 0.5290870078460501
Ni 8.01143629256051 5.30761877962565 10.823525464377306 0.835561219119748 0.11038234381000989 2.406712481580229
Ni 4.5424968229000715 4.926095661798572 3.949463312794851 2.137161882805758 -0.4676322429746785 -1.1817672017654293
Ni 8.742564826179215 1.6832329337645622 9.812052649138913 -0.4974696380510852 -0.19806801735345245 -0.544770737129894
Ni 0.17395659558463783 6.810003351521805 9.729971377605226 -0.770116616362693 1.5981229059533186 -0.06636377213721474
Ni 9.007251841367339 2.7972063448163635 11.989841486644025 0.23951368609274878 -0.31016914362678194 0.3031937407502133
Ni 9.280278973506109 7.9984048598251265 2.9112611673829383 0.21567776001541566 0.36589831886828594 0.4038971667095625
Ni 4.576778799160371 2.444547850498161 3.341121592492051 2.855793186804965 0.4765272314714632 -1.1315425012819222
Ni 7.057805353151366 4.247372104108588 2.4524784081342657 -0.3703573830809041 -0.5750855860633515 -0.4471053266659203
Ni 4.833833118032055 7.1269277956463375 1.1856602533457719 -1.68778575782779 0.42543838321544797 0.28902799077279256
Ni 9.03090389178206 0.12460562899911556 12.050834176745365 1.3321877924442476 -0.2909856287197956 -1.303545960337839
Ni 7.12329761081291 3.387977039708747 7.646306717114545 -1.836596323707011 -0.7836974403709213 0.7326193907481835
Ni 2.649234426106081 1.5598811147579155 12.59676557322854 -1.9441440262817034 -0.43269815010165474 0.07929667814879891
Ni 2.9012157943772054 5.485153434312775 12.564819015877747 0.22722946940875705 -0.8311918864074588 -0.3686409146104296
Ni 3.4982508851488126 4.070135310741129 9.293816770484923 0.2588905479574638 0.18704261277722625 -0.7850192445061384
Ni 7.041134427416314 1.0903120524708407 12.192122832095643 -0.17187798922164593 -0.1088571654147351 0.8250675186772757
Ni 0.05968396192805763 8.720104221043158 5.419786836895466 -0.4081523424414906 0.13868504740944504 -0.1472869301458431
Ni 8.991669971082317 3.0731562411543547 6.676522386013269 2.0367297082299247 -0.6356579483297699 -1.2147421140295531
Ni 2.420476932602659 1.7262832026225265 8.396808337127647 0.28993070509272 -0.31711112216225384 -0.11780151909221646
Ni 8.933028523773089 7.359576102637895 7.4185088955504215 -0.40558766703810795 0.3245740061982023 0.03242906706298286
Ni 3.9108260455510626 6.433860353781191 10.346227831661526 1.1362195950426173 -0.7829734177207031 -0.004783794541888535
P 6.600811623453938 6.475002448560046 2.5160866929489214 0.6724365506107 -0.2244778748055489 -0.6776054964061491
P 8.671785530093603 0.890953471218444 6.991482807061255 3.27707306776735 -1.194995527530245 1.5791543352706159
P 8.043335378263482 2.6740593054669874 4.456841215530394 -0.19889025614443165 -0.2080179294773127 0.9095791653681109
P 3.591016069892266 5.169401819134427 1.4791653512115723 0.2527399549750357 -0.03780138711848974 0.5555120348067981
P 2.950120899799853 1.357810133863311 4.278428800766879 -0.15965650745478957 0.04216712028635319 -2.6409327804845226
P 3.926128670848899 7.3040715073514 5.096571003209614 -0.18847034636268833 -2.235187504822628 -1.5562997992699457
P 4.2467205324718185 8.847896035346075 13.462209084050848 -0.17400866241140353 -0.5291219748490436 -0.9794098130080037
P 6.292329686108684 6.104919067041386 7.699669503349317 -0.25345549298482156 -0.1272076428974648 1.13039038995535
Ni 7.846281498972 2.1367454092883964 0.9007112218873746 1.5746556760693138 1.12513582642463 -1.503812528004507
Ni 0.5452835481129022 4.865815977231182 12.89178138647502 -0.8932017524513521 1.687527876180713 -1.6801799204560743
Ni 1.5410413862890464 6.8117346704423625 5.345034815458808 0.07120515938991608 -1.826872411551028 0.8311762026781749
Ni 0.7060197551874933 8.997031474836303 0.47490543399221435 0.3845110488734668 -0.7315241008014757 1.1147097459952997
Ni 6.956858290283339 1.3759610580304529 6.147223751783563 -2.9725996889737645 0.9002368049212625 -1.0238281912223788
Ni 1.5239795175719333 8.969739931421913 7.337326792875476 0.09427952471087633 -0.5794808869175698 -1.0966618873546534
Ni 6.030798139275772 4.762141621654965 9.567402392598066 -1.800417559793609 -1.3339078604591479 0.2670697413341465
Ni 5.748555922559839 8.359031144444394 6.312762972637766 2.4519268733333384 -1.308267019962592 -0.8942150242072148
Ni 5.251667392359656 8.071017864659932 3.4565400614127206 0.3183226259718518 -2.78970375137506 -0.008214417489992305
Ni 4.369169459353228 8.339995944484492 8.892088416201632 0.09221055799698957 0.4699161539128488 -1.1386785981060714
Ni 0.9631625016384534 5.577378745414333 2.726064030247408 -1.370848442239239 -0.013594450854983038 -0.6263199587582956
Ni 1.3752908700612043 1.4374135715440268 5.659491664713235 -1.7703292250486606 -0.15331385306621337 0.5570786079629697
Ni 3.704808402170885 9.046886013215385 6.125671623672485 -2.4031340202003517 2.9797478699827713 2.152312108183635
Ni 8.570252052752485 6.940708621857704 0.9325311881773098 1.071664079758735 -1.973933341728994 0.1613413513563802
Ni 5.113264268543641 2.0405641275350246 9.436072544307493 -1.5492362075549448 1.1943941465008205 -1.2009293765161768
Ni 3.4390881805301703 2.351363798273927 6.008619571576772 2.190643913884298 0.3353255882877515 1.0489884925380901
Ni 3.0160599494408946 6.426944386265199 3.243632513382021 -0.016856152325390325 1.3515641400883303 0.20583609133464553
Ni 8.115138572635447 5.045063334506386 4.2942312745917794 -1.680695683750228 0.611546914214179 -2.373334934561048
Ni 7.024072558699201 8.998362542608561 8.101615668722614 0.6759011121205327 0.9629822635795998 0.9557348379885668
Ni 1.852855647148061 5.482481990602021 10.242076897973844 -0.5636189801846487 0.2724528600229308 -0.07189524347840522
Ni 8.072525787590742 5.122684132778075 8.609443155887528 2.1111885986704477 1.0874658226776819 -1.863504975172397
Ni 3.2955562571161576 4.806178556134323 5.883324207459306 -1.3094654111460673 1.1757806451646913 -0.9659374895531816
Ni 4.315805742301832 3.5686578545848433 0.07214014998983659 -0.3566765431597019 -0.16334989714597675 0.7405373600436794
Ni 2.8060211782452273 3.534068708838639 3.359390730370435 -4.3441693256497445 1.5672454996481717 0.26977171364634184
P 0.9758029913917756 4.719994244922238 4.676178844799382 1.6109370269988514 -0.43041552471506517 -0.3644998958588626
P 5.942742886649536 3.326319746537903 5.232736443861639 -1.0772968525644802 0.3317949494266737 0.06003294482318049
P 6.59438898874864 2.610866164866616 10.820269467826707 0.8155549512011503 0.37802415559754254 -0.34052975819651027
P 8.727997546014306 7.2526904297090296 11.990726693253407 -0.3041424778167278 -1.1621103467664502 0.6774098354555752
P 0.8923655200369852 1.791021498818665 0.16946168210755438 -1.3948306640864494 1.1167236911015348 -0.34361122533531147
P 5.739741089130976 2.7606345596611335 1.531193346407592 -0.5326042769706891 0.052556176830161096 -1.0943550935983475
P 8.654025548908523 4.4279132964910906 0.9348424058545926 -0.02806307678480328 0.30064294930390156 0.3523383207956642
P 4.946741174517916 0.8593075676371885 7.551065560151368 0.6592465342829873 -0.12584495822198327 0.16453903235807146
Ni 7.288731649388606 9.036479483359557 4.423027440031945 0.1358154391711338 0.11147840508766607 -0.7643866558574512
Ni 6.802026253054502 7.885413029843109 13.633387192012977 -1.110783928578332 0.20106926607362147 -1.2614541733741114
Ni 2.616683768766341 8.63189072959085 2.157558469000052 -0.6273262885356229 -0.055648699712555774 -0.40852283840703185
Ni 2.1397426388175345 3.4798114078282443 11.135310869920978 -1.9218193946425741 -1.5085790961552148 0.9349968341102672
Ni 1.6417371286686047 7.442725951655884 12.015957408662358 -2.536390697505374 -1.4699446716124684 1.501091529528918
Ni 6.091627005651295 5.319421534417412 0.49051057469283643 0.5444724891631848 0.7422049775540895 1.7309113853726708
Ni 3.032991503830654 8.574077709076944 10.978246734427895 2.737717588115756 2.199413689657128 -0.2210868468461289
Ni 5.447446052876318 7.508860472787956 11.873020277071053 -1.1254464156865134 0.28626431198472635 0.19767129613566603
Ni 6.8031804656682064 1.255504078724309 2.6491599607761653 -0.9929741819559995 -0.9221701146592441 1.2663474969106705
Ni 8.940484364930978 5.396288371223696 6.159307613195758 0.5076545490038871 0.6320746018538856 3.2770694682229236
Ni 4.758381122494183 0.19585405666320232 1.7964686377020556 0.12728400466135498 1.9236057971190355 -0.49214848294848784
Ni 1.4014282008618884 5.193249341040178 7.726521701317199 -1.6718032663566047 2.886480331476177 1.1456493729969495
Ni 1.2008837592305717 9.076309126698634 9.525823744822578 -0.5350175143978722 0.529046898636734 1.7854087450896026
Ni 6.784908535339951 3.9798833308823567 12.486252507916118 0.49706237531033753 -1.511460788578384 -0.9110282391098116
Ni 5.741016307905795 0.07561209599719242 10.336963413803293 1.2590167675772124 -0.45119029536857136 1.25336188328428
Ni 2.2040713756991326 8.741708474885176 4.486662718528696 -0.724980643256003 -0.08939160049095572 -2.1586025691780373
Ni 5.997809998122772 5.560661278848085 5.654409405946435 0.6661214070259496 0.19538095743959255 0.2550783733002252
Ni 5.159553779252972 0.6729348091056019 4.441201634614686 -0.3612461648082553 0.3858032853223291 1.7852169407937706
Ni 6.512188572687088 7.049027752387461 9.714399746303068 0.5503124928837296 0.7341152585674197 -0.32804113881119634
Ni 4.387487930512681 3.637510360258867 11.276354720499157 1.7956036833447333 -0.8724010136559169 0.7174251995062483
Ni 4.17034702847623 6.74601901679107 7.132866405707177 -0.6417972284582881 -1.2370011825380696 0.9611904617864994
Ni 2.089469232957672 6.598866216709869 0.8436838106040874 -0.4908508471829869 1.10422118775915 -0.07171552336743132
Ni 9.066293539824867 1.1829841555518985 3.234640824794606 0.5897876681602165 -2.790411833185678 0.5656534941161743
Ni 2.531420966011973 1.8050861380066399 1.5204582382835077 0.7028426737063831 -0.8329731466775978 0.8066249957013721
P 5.013843744938902 5.353796592340107 12.304379316944734 0.681478091987678 1.3529764470548247 -0.9386855958157642
P 7.882322718651576 9.221795765022954 1.1002634129975541 1.4149775713479695 0.8454730789168212 1.5136446836035802
P 2.5696961455890426 3.6605201472030595 7.50731997127531 0.9328839015323224 -2.315846353426276 -1.1664076885902237
P 0.2191775288096674 3.8428857401685153 9.827297563806065 -0.2263617220918231 0.02392900001177169 0.7251827319644801
P 2.4214729063902922 7.331763301914091 8.806220582641695 -0.6111463363416506 -0.4260068541244082 -0.0025273944075440346
P 7.75790046052738 7.208411482907445 5.2800917396054 0.301007788842488 -1.3472390303504154 0.5459156493676147
P 2.921879923429028 1.4504822369443686 10.460774125405548 0.43048623005200054 0.019421856170037517 -0.11938171909514278
P 8.282825187441116 8.686138722435004 9.962224087531604 -0.4943534610196067 0.6881431627126794 -0.200490510752016
