# total energy = -381169.7973822198 ev
CRYSTAL
PRIMVEC
9.23700980448768 0.00000000000000 0.00000000000000
0.00000000000000 9.23700980448768 0.00000000000000
0.00000000000000 0.00000000000000 13.51929754012453
PRIMCOORD
 96 1
Ni 3.9094628318223537 5.128803560293836 2.345286973574767 -0.8385149024314335 0.03571313713089333 0.738654798308986
Ni 6.576076744985205 8.581099061280932 1.7697030232611612 1.5637197458831005 -0.4310397885626254 1.4148436168732665
Ni 4.614403716136386 8.467613157685637 3.6094632243855953 -0.055167646311079184 -1.222042247235392 -0.8605248310436212
Ni 8.961894794287286 7.913946784455779 7.554299185608746 -0.5877804079222007 -0.09127544777722989 0.5660391595903671
Ni 1.6035172071001613 2.1711499392943763 8.189354700443591 -0.3796434363685203 0.16636580115416508 -1.30207683199148
Ni 6.104000880176089 2.844066110295296 8.388088968378865 0.0012528985704946165 0.003128775436968805 0.7186194769246655
Ni 1.2630133112647883 5.028064730356485 4.478470031089252 0.6850557820366072 1.3535233206972301 2.383896512126978
Ni 4.984724679919473 7.509402699004079 5.845081950555521 -0.5746873221836684 0.5245346125886773 -0.41360385247436515
Ni 2.6339333721470477 3.7650237080620057 0.7591427346889984 -0.3159443555476623 -0.21034040696290227 -0.07944297391867608
Ni 6.370350060557854 6.839359238081145 7.604888441412972 0.006019723831518665 0.5550757186003279 0.49032274259365877
Ni 1.0506821647610387 6.678820006070218 9.163393699284754 0.9007458833471971 -0.43692015860280237 -1.3716028039067605
Ni 5.507659521221808 0.827689661434101 5.191896956395714 -0.7723506478995343 -0.2711832492818878 -0.18714005758703897
Ni 2.061220284509449 6.455081152343598 0.6096685168337617 1.8871334132246143 0.3298817915643609 0.2814725470230378
Ni 6.808738550272386 4.448211434068458 6.7947444802783385 1.4724746371231738 0.4664549348371257 -0.6442243498425421
Ni 7.240384022762064 2.337600857639422 0.30868239673999665 -2.4831248962026975 -0.9299649281133145 0.24370792667975447
Ni 7.494096973604648 3.4572095902523325 4.480565908634895 -0.9939933672491331 0.42174679329647363 -0.23626509724846406
Ni 3.6642109820454776 1.472785806027052 1.0942549878474568 1.029247819576053 0.15751400719049002 0.2967400147050696
Ni 9.029398862615011 5.306071017228341 10.924214413828901 0.5837527748200463 -0.5312693602093496 0.17539602967723342
Ni 3.6914232132022207 1.4181027074364485 3.4871809162653276 -0.21681213073017497 -0.036571114255814434 -0.2535645077588601
Ni 2.510730134140043 3.3604149635410265 4.008106707915052 1.0331643810216402 -0.429347488461867 -2.029972077791117
Ni 2.730136830224942 -0.07667364805253725 5.02327072221991 0.16202449346633385 -0.29288413129408913 0.7111355098427946
Ni 5.2948942352528965 3.604761586347991 1.2578636782471766 0.706323690276448 0.08081028657984793 -0.30059409834383716
Ni 8.768370199933955 0.8135644258995148 1.5320070475800815 0.5915979818960778 -0.5545113614564257 0.2375604190211199
Ni 8.805641534868597 1.4547089776585027 12.44207959925658 1.5203550057442203 -2.499860978010456 -1.1591039558399587
P 3.482103331924913 6.381776241800519 4.001090275197244 0.8474443437105792 0.8742555503661523 0.25283122913726136
Ni 2.7371939057862966 4.985121871345047 9.820012090023297 0.7212304321849514 -0.5977164360889899 0.045544778509334465
P 7.286578309257268 7.289414071295665 13.608931018988011 -0.24465949195974637 0.06982421988198942 -0.5191517510102092
Ni 7.651089193815103 1.4356992112903506 9.776858627186206 -0.7980336544879353 -1.430181018561285 0.6358453817502275
P 1.563714931453724 1.78907026191233 2.011819831878975 0.4937675066091496 0.4502960656890761 0.5316725091850392
P 1.3177980169642591 9.19725380646441 11.659556145116142 -0.4073894961335371 -0.013937178906382448 -0.5317182748213101
P 9.060527585968108 8.310020531831873 2.897726671890295 -1.4879300524462955 1.08411876058232 0.3836818681039521
Ni 1.42344169915695 7.046933324487908 3.186106120876551 0.8665126731959399 -0.9729959390618597 1.6347451851620427
Ni 5.101692936245961 8.477321255087448 11.140361369121125 0.21309842932401366 -0.5664070844527471 0.9181553370728962
Ni 0.3971341561122768 0.7101394734840981 4.332339610816751 0.3413751369159411 1.7976016876113687 -0.4707342789387699
Ni 6.92458912840133 6.690615667708766 11.549022389883945 -0.8502008234097939 -0.1755019591274784 -0.1563420983695759
Ni 8.474411596969873 6.4742109998404125 1.6489623720927136 1.189786729635796 1.0381080981801605 0.837556652283222
Ni 7.49163992897203 4.737653139192876 0.26241883267056476 -2.0198660997053666 0.4457907216195548 1.2406079260527214
Ni 7.326907094467837 1.1242364745713385 3.6277552750847457 -0.6811469339005043 -0.2852726374954184 -0.5520536439445525
Ni 2.2168269532353446 8.552990840164174 7.585678231930053 -0.8529493326892085 -0.5271890194923888 0.288391128519742
Ni 7.5523086099759285 1.9409821266794012 6.082696640549508 -0.9734147717668333 -1.5599119421012362 0.37918629422644373
Ni 8.342959709124793 5.536405096021463 4.031048669396383 0.8231358488722017 1.7899446852867429 0.806223132277263
Ni 3.8782140273405954 2.4311810049065503 7.672160660792279 0.8651008804500778 1.0125611029489916 0.3517333402218136
Ni 2.6331574633156944 7.974476910311222 10.36413663202949 0.20824290100392523 1.4452312280261883 0.023219889759889045
Ni 0.4167720391534293 2.675721604921353 10.253710949813092 0.6051232700760224 -2.219304257933468 1.8072142710004684
Ni 2.1085599602318883 8.65934577211894 1.8866583477737937 0.3581880947082218 2.27462976997865 -0.6631952345180901
Ni 4.394285770289414 3.2955157320042736 12.644869838237655 -0.5802175079732781 0.5394626946534192 -1.0089841842310108
Ni 5.607807182525748 5.4121857869257814 9.66435092293901 0.08020787710915865 -0.05868517254603441 -2.8386056192820854
Ni 6.133984214301951 6.199613169620571 2.002802662817464 0.2143734393816953 -1.111739607623382 0.2200128970556598
Ni 0.5312490739106799 0.3125970415343712 9.118252431917814 -0.03173486920943567 -0.5156146843912282 0.8357116286546833
Ni 2.1882014595643513 4.428351862789776 6.896409782308364 1.3805430438191837 -0.15964493749056377 0.7294273661734471
Ni 6.126262074028007 1.9093638418017602 11.667181296786165 -0.23809289448582222 0.03709176264597483 -0.3428594347709515
Ni 7.1094771185009105 7.677608649229566 3.8710479550624552 -0.10810640329163962 -0.21218465926049265 -0.7844944823509199
Ni 0.17900493849614185 3.150485439610513 3.327545063822334 0.608761638159558 -0.855429933019217 -1.3109232266385165
Ni 2.4362705973598318 1.5050414445875901 10.277464844464374 -0.3990760911718353 -0.14972433594274212 -0.38970699125210945
Ni 4.390886550647295 5.8055900384416255 11.469880612786914 -1.2325254061549031 1.3022208137685123 1.2590507061389413
Ni 8.960038155297978 7.51018784484533 10.766552510400906 -0.18345181010217437 3.041545877126175 0.2772217421664839
P 5.527722306718225 2.851492666252534 5.845176168056471 -0.6861862960966247 1.126957195904085 0.5370641125142557
Ni 0.583462196054809 4.322495729369453 8.927265244183204 2.6128655899346613 1.703145528113312 -1.2514122157570768
P 3.212558146118765 6.164124577596062 7.993785032099049 0.03225988847497025 0.5373160806240617 -0.20654880113095395
Ni 2.559640101544983 6.784842405668688 5.866699324817614 -0.14575069600697477 -0.4680382201638456 0.6973973343210957
P 7.565776170405845 4.481095189301996 2.4946752872379605 -1.048022271970079 -1.4304286157957171 -1.854921090158128
P 4.306497228227743 5.393767189191041 0.09451493266871128 -0.6791095917555013 -0.28061199879495546 0.49682531959886694
P 7.567752890523815 6.473980074592985 5.788422131846946 0.015471870383354 -0.303541096787303 1.0538530197192433
Ni 4.62206119734105 4.991495408174019 6.483747288858138 -1.7150448506540594 -0.26142334168164655 1.564916337294363
Ni 7.158516404044408 9.017150587491509 12.214064009947622 0.8763617980758778 -0.33689139011297464 -0.07222871555842399
Ni 7.324015910370058 8.59594293618551 5.888762846657735 0.5900373222771773 0.4145785576828086 -0.2703422414378312
Ni 8.191851464218766 3.487155976338606 12.062539175895235 1.666150953166834 -0.09272117908482096 0.7334071767568014
Ni 0.1844787905611404 3.168710060137415 5.806402895312567 1.623086517877192 0.6150585269118634 0.15965676456510566
Ni 4.79877443368173 0.8666587587878235 9.473512451063742 0.7543171874365912 -0.8788971629032218 -0.6413179748290245
Ni 2.933591210217615 8.517982572654311 13.137985764190296 0.32739630613834586 -0.7102909024543123 -0.8353606730731679
Ni 8.014833406551482 5.610652181574042 8.637236065229333 -0.8833346298492851 0.23993997499689002 1.1053025937487868
Ni 1.8330569030421364 6.3380020518983455 11.681267736879184 -0.19102499446374197 -0.5789214148696739 0.9246188333100528
Ni 0.08166902300486804 2.974354134893347 0.6791742452061793 1.9748357989386054 1.5294865357318435 0.7730170778389397
Ni 0.3414340627320071 5.533763311190904 6.875631128544925 -1.9702828894606004 1.4071755588050476 -1.2227068774025844
Ni 3.869799111324373 1.094964390207551 11.922465463012239 0.6127918423648736 0.1890385601613325 0.918489066263231
Ni 6.562230467149509 0.3954022167565778 7.651246222983353 -0.4983132169983031 0.02449592825883523 2.417650725759288
Ni 1.8151186298220432 3.688421184985676 11.940392651820456 -0.1718957298334588 0.1994281309257727 0.10001719852560195
Ni 2.4383396875767733 2.401437833038013 5.959657821318671 -0.12666873967485928 -2.3808420415713707 -0.8582638029235864
Ni 0.5159350352023419 7.989302311196004 5.35680529408795 -0.07296045151812595 -1.4648083788271675 0.14200537003192965
Ni 0.3747824395633677 8.041823949470695 13.327701939363072 -0.6811291932886915 0.1137800566376492 -0.18478004199529466
Ni 4.215374125593232 0.20061584685130662 7.107703612600674 0.4057342199183013 -0.23090486137781524 0.008833539131229948
Ni 8.49221131504151 2.8127711207640522 8.027988756046877 -0.4608591859169031 -0.6092696881442281 -0.5789152442220868
Ni 5.392289267607512 3.217795530730399 3.616344796758906 -1.1713439495495763 -0.6554338454051164 -0.051371669603756685
Ni 4.276125939686205 7.301191258914419 1.2481112431978594 -0.6918944022249955 0.7796685217171863 -0.15261477011665975
Ni 5.306034069188753 -0.010484929934154353 0.15439569672839099 -1.4028872158423387 0.6127535329277705 -2.068693919841347
Ni 4.539768676168131 7.637353760098173 9.078938794094931 0.09271449421660162 -0.7245780085009457 -1.5653128014018332
Ni 6.30822193199022 4.468579040891479 11.532528785011753 -0.6490973616641273 -1.167792484752892 0.9241187537451827
Ni 1.173839217718558 5.072799569287953 2.185421119585336 -0.3778508632444718 -1.962836974705516 -0.528090962481368
P 4.247925348470476 2.7933733999802235 9.881957325794971 -0.1769119521011276 1.9722757515209128 0.7759843879973798
Ni 0.31357524088247 5.340737515372012 13.340045355688513 0.9499660538255899 -0.5156576218140215 -1.1096971232720567
P 0.0892341341105613 0.8538710422863318 6.8103735010241655 0.6254365277120777 -0.5310181634304919 0.11436961059253205
Ni 5.494810840454996 5.55536867734013 4.525192674550567 0.9907800025181581 0.10884456700924482 -1.7465071829283987
P 6.8963423521361165 8.16521192767564 9.667190379781365 -0.3202134152366614 0.21539802399146776 -0.2210642211383096
P 7.79527891830823 3.6648206246986836 10.051300351938787 -2.060469732159342 0.6686768264579516 -2.279931127586906
P 5.895456907730135 1.45760939876618 1.739001049765309 -0.498624834701451 0.2471678602038969 1.3589018114003244
Ni 1.842792711473639 1.372850595950745 13.269758176278806 -1.1232748619564914 0.9309401475423902 -0.41588416386810956
