# total energy = -381170.7298990657 ev
CRYSTAL
PRIMVEC
9.17703147290952 0.00000000000000 0.00000000000000

0.00000000000000 9.17703147290952 0.00000000000000

0.00000000000000 0.00000000000000 13.43151318915769

PRIMCOORD
 96 1
Ni 7.644338648385105 6.112095606572134 10.495921275161741 0.04240751843193342 -0.9112622094974887 0.5581386737963678
Ni 0.11603530227884515 3.0817113714975486 3.247309984771054 0.5423778114176853 1.5877868141346332 -1.2354574922000334
Ni 1.623352609202059 6.874174645162454 11.228194233582537 -1.1582655190990632 0.37335297537411827 1.0613030482393853
Ni 0.03271336370587067 8.261053510158023 9.961992413330096 -0.8246887951816184 -2.7439406862073326 1.5918285883041747
Ni 8.093691989159352 6.53204573885377 1.3269271544960286 -1.4433311827899982 0.6503142647903638 1.7667533347719444
Ni 3.842404678351793 4.278497208803998 8.998093018669664 0.7554736696385376 -0.7433738010512101 0.6375543940215342
Ni 4.462111252349614 5.218518885556528 6.898129450133822 -0.18494510681824924 0.6992642123265054 -0.5632353715929849
Ni 2.4626747207893525 6.757332681826648 3.048563934208126 0.394858710656378 -1.507937605916474 0.15096643587995937
Ni 1.2794433588086167 1.4372148820311401 1.7689030797561647 1.4593445274991188 0.2895733217533013 0.18088096405120463
Ni 7.238144886119207 1.5230017712286823 6.121586492409543 -0.37964832146452676 -0.13774890874842083 0.8760031291848783
Ni 8.592114916640837 7.438442772685912 12.339141790315802 0.00971722728776391 -0.25461454628992924 -0.3239607980942356
Ni 1.2611810663927943 2.846632536058498 5.158856251544976 1.4297135920065636 1.1445355711074805 0.5296174264282234
Ni 0.7353362514903454 5.182572453700861 4.617109476693715 -0.26696355477358535 0.35429518741171884 -2.7824079890445947
Ni 5.866573309440016 2.797847437323567 1.908899610928333 0.1900790856107049 0.16611640414752035 -0.04545119035426366
Ni 6.3707961207440125 7.381572709318649 12.97657380039461 -1.061082704698463 -0.7250791165070803 -0.6757275626571458
Ni 2.9776071276959954 0.009295415069340028 3.417755906011413 1.553128086410183 1.0764543020585269 -0.05823188705869971
Ni 2.9555547213265374 1.3799226752210998 11.18640845666949 -0.5993884244747741 -1.4351609882743799 0.8159776405608655
Ni 2.9736518271777945 3.7099892927900324 11.100984060210855 0.3159546399603074 -0.06581407028133182 -0.25212417576790774
Ni 3.618631945554096 6.049590845946924 11.710546343738098 -0.6762808640574547 0.36139528879160987 0.44643735406461826
Ni 2.087866405790848 2.06494218144174 9.060253640618695 0.8326828691306885 0.06654837734419505 -0.12625582050715675
Ni 4.879904782260538 0.5334002648250352 5.87644779518847 -1.2437176753262966 1.0079084346683285 0.5668171754069723
Ni 9.182354042926494 2.1438371200843664 13.222841272473545 -0.6545799820452534 0.07489392109541294 -0.7120341103976641
Ni 7.578520979437227 8.597951508588809 3.0211906850533947 0.8636307236624545 0.5342369274781058 -1.2574584219511569
Ni 7.839203732383886 6.587869620645453 4.329554540504837 0.8042135580464022 0.03946437664320945 0.291620176980001
P 3.097716114197646 6.141608939441122 0.7994864538392522 1.1162169266684454 -0.19283427975833886 0.8373715328556094
Ni 3.5332213146425078 2.0546363752191428 4.407779555857838 0.3686949077768167 0.7373939293186913 0.26602715900224505
P 2.6310457152381446 0.24409068023922015 0.34509308743949296 -0.5292104207977918 0.2220931766234562 0.0075425882339483
Ni 3.9162430727124504 7.607547929643882 4.984595438366298 1.3045556325492758 0.3598703675066512 -0.7478531769788024
P 4.888980866280261 5.6587961423110515 4.671762369283257 -0.2281823202403296 -1.3295063889573426 1.9764591934746412
P 5.585664379365479 7.27265052405061 10.923486508069834 -0.18441905911145012 1.3990084496132227 -0.7639948197356713
P 2.1006224793878294 4.898240490927278 8.089477896356666 0.23776045084706793 -0.38835587654085374 -0.9457422455522292
Ni 8.155526826494935 1.7953209999458273 1.7793667309182355 -1.5776378986260893 -1.0818006539721046 -0.31829434383707766
Ni 2.0148264131589224 6.699343020632888 5.766148137512585 0.7069829211270018 -0.12160700888123574 0.5832272413338795
Ni 1.049228349992876 9.084554419672514 12.094325206895633 0.6505001555489248 1.1318309790566186 0.3227685775583473
Ni 4.624058324843093 0.9308171142937011 13.3116905370375 0.5400208811497345 0.6961439215299687 0.2841308105814913
Ni 8.101832015979872 6.532844140582502 7.680784310747013 0.2876766189512207 0.664728640443481 0.5702405992662244
Ni 3.131065446177093 2.774078926088904 7.105311027927214 -0.26233068398726433 1.0648059191863208 -1.9702566642083552
Ni 5.563639504090116 0.6762884785802313 3.4302605289490007 -0.9395255752185562 0.017414081711389362 -0.5393853044482646
Ni 0.6133166070585565 5.454285998347934 9.559530032017099 -0.6195702987392878 -0.3383628324521786 0.9785091555706051
Ni 4.736082346712411 8.6608508815627 9.333987967572282 -0.24747279303882544 0.21351083427108392 0.43562766504362394
Ni 2.369940818848706 2.4861495670203446 13.132876998598777 0.30083578204099803 -0.9984688865219836 0.7392078425989785
Ni 6.098550308277786 0.48106365495195186 11.331818518643717 -1.4505559826732115 -1.0348065446107535 -0.43464267542253526
Ni 4.6265453003429355 2.018506402736181 9.89564064115679 0.1918552036745212 0.1651157307971479 -0.8820254241195584
Ni 0.09520527648716977 0.8920707701686535 8.963318493719273 -0.9196599466428808 1.5977657797242162 -0.2725045391964726
Ni 1.8273580164401169 9.03702657423455 7.437190107904626 -0.11319564488908894 1.6876242925492613 0.47616213482256065
Ni 4.257564400261037 4.039738383787689 0.45174579285103306 -0.2058512608432971 0.40756793069293035 -1.539141542323104
Ni 3.06779899194861 4.517586406949437 4.999585201397456 -0.164864019797658 -0.2130097262649493 0.041636958814496035
Ni 6.5894021848833635 4.667942888829255 3.5124747998362515 0.7485818276147107 -0.10246488873514611 0.24683258835166522
Ni 0.9398197820625059 6.536882034382986 0.42983654817086486 1.3637586252719933 2.9537290773215066 -2.1354829524414383
Ni 2.1034214739540738 4.751674123001096 12.959233799630944 0.19053828463531053 -0.4575943991227022 -1.222645942257662
Ni 1.1445960599352016 6.982784811364092 7.998371999780123 0.29135046825838207 0.6961542059426139 -1.015263075261187
Ni 9.00562277290443 1.1466976001177258 4.512572077011746 -1.5308816163071572 -0.50921238040931 -0.41588210698558054
Ni 7.113208781119705 2.4980797077945 3.715827720144277 -0.6463537374807191 -2.073588528929487 1.492363919847933
Ni 0.766807045149431 2.5431481088267134 11.011195067635152 1.0528546603617157 0.06499980191015257 -0.38384950403006796
Ni 5.783622122934177 6.873082578430051 3.255717980907424 -0.23986412745363206 1.3134621910102864 0.6459521311669262
Ni 0.20679247166352788 8.071272501535304 5.719097497705589 -1.2014178861168212 0.1211300692448172 0.0892203650204141
P 0.3351516093620756 6.827839813801907 3.017510695476136 -1.5178633496706182 -3.5407486958182828 -0.7989178568651015
Ni 7.396815758415474 0.30424612083505775 13.167423015468183 0.9479739630962253 1.032708524431144 1.0986303239349338
P 3.9756459967363798 1.000066992971991 7.82678445583799 0.04932815681116666 -0.9783464047404958 0.7303002556967036
Ni 1.041400342238757 4.759437891535662 1.492496401269167 -0.6839977730857382 -2.9744673383101228 3.777344694043604
P 7.40839717199777 4.532352250415296 8.104548417263834 -0.553020635843512 -0.05401244966071343 -0.8264679985692281
P 7.738595937532298 4.049410974846119 1.3682008530589238 0.6263999200666115 -0.3302916254082699 1.0323195165228414
P 5.052653220670308 3.230305863355337 11.70180246825378 -1.148815943650389 -1.4343541761023684 -0.022492267565245132
Ni 0.004516934837722542 3.4503160132934925 8.558909664053816 -0.10552270172486342 -1.1343609445673237 1.0614148912269012
Ni 8.103364580217782 3.6677015322613338 5.376970426803179 0.6203061484640479 -0.7570896079754058 0.2777742722358442
Ni 0.9117555024460101 8.636981422983025 3.2651198495405955 -0.7145501919512984 3.115562794933273 0.7422851959727217
Ni 6.689330879413963 8.624390535950608 5.15283887207912 1.4289276057701583 -0.44452496753325377 -0.3445982718389291
Ni 6.33714394672953 3.8492507437498853 9.799483706517098 -1.9880145024124085 0.3166879185819062 -1.0817826562499755
Ni 0.42541872527188146 4.934618243257088 6.75841465382455 0.1106854768727255 -0.3329542598420976 0.8691238855665419
Ni 6.5469767688841936 2.9505165311072976 13.151049356107224 0.4846452325929073 -0.9023019149804073 -0.19113143813461922
Ni 5.629567297414371 6.011056491246403 8.939021385478 -0.3968333178842456 0.15290196233977538 0.0006263207300892439
Ni 7.016501224598128 7.909141888414531 9.161098202879495 -0.3657188558676282 2.0918970974306874 -0.020051519334236437
Ni 5.9657770184928 7.465964689748752 6.9116150977243 -0.259484729898037 0.07515026008059317 0.5531299077278669
Ni 3.589641703472898 8.366341591005627 11.77645486529649 0.5070775934544944 0.30304358832559425 0.4337304480209111
Ni 6.919821199170645 5.452817673329576 6.087631476360024 -1.76137021608316 -1.0458167796783278 -0.2617125907872912
Ni 4.009279816688133 8.02903062616343 1.861459864991472 -0.7667212175278989 -0.04675448254671948 -1.9901827137083208
Ni 7.825401477211326 3.408945955901267 11.160123603434617 1.7628110622947448 0.16757859051534366 1.637319373647122
Ni 3.731417661026689 7.782517209643919 7.33805155577453 -0.27240298062160184 -0.2150570957122812 0.38670368564941143
Ni 5.561152528590272 5.251620437689127 11.616122950323206 2.820451316970562 -0.8040520927678734 0.8656133013101222
Ni 2.975845137673966 6.513856862688866 9.32200735312562 1.9382988803548362 -1.4201899687868442 0.13990272186663003
Ni 5.463729163622245 3.2499171793817756 5.385163680405613 -0.22119380473763842 0.4222576714946212 -0.14822255458623504
Ni 1.8722887620018593 0.5765901275368873 5.311666671611724 0.9725704214886669 -0.2363627991685929 0.3190595041378763
Ni 4.271706205594094 4.598518646555036 2.797071978173247 -0.9945795787699065 0.2215157068534314 0.18411464049715387
Ni 2.2889718711176497 8.514220274416965 9.786576211902599 0.12698035737800714 2.9167041633577253 -0.47664524510656625
Ni 0.3993752279619002 1.8529986420731865 6.948752708251109 -0.0936981982861096 -0.4459668421861029 -0.8021463911047282
Ni 5.550204330172144 2.9908954691121314 7.830411218633334 0.40084912391185806 -0.4767853702288563 -1.2845059129872523
Ni 3.7125221534466992 2.3000852561003438 1.9964062758036265 -1.3263213063611414 -1.526436950272242 -0.39419356626855334
Ni 0.08533537925439733 8.660566393590393 0.9984031971855644 0.17389013455566826 0.6078830922093466 0.021030338307737977
P 2.3141536451824822 3.5065436844652234 3.125983206207303 -0.6678425034821143 0.07426425793121404 0.2147822447843398
Ni 5.9329783083952385 5.495812065273359 1.3063770281609774 0.2200499209411823 -0.1967906933029256 -1.2405955847575474
P 8.118469973844135 8.795450400589269 7.332464579079679 -0.5982589388560212 0.9411841938679015 0.1917641866226117
Ni 6.800987820028692 1.360669263417886 9.324196992809245 0.9378165629472495 0.19278362902606153 -1.3932075266607296
P 0.4477244177070062 5.174322302503964 11.728114852582745 -1.5008799277387441 -0.7012599026002956 -0.3491910334159341
P 8.155636950871312 1.2521875756553542 11.044719680913664 0.5265439297092223 -0.8596689108012292 0.7356247532334106
P 6.026437195813699 7.999104326883028 1.5250005286599218 2.183805807916542 1.445064363431021 -0.8338578632753962
Ni 7.804055702256952 5.102677218639479 12.92304968266293 0.10579883820438553 0.2074610285325782 -0.6605608822190365
