# total energy = -381164.0158230281 ev
CRYSTAL
PRIMVEC
9.33918805153563 0.00000000000000 0.00000000000000
0.00000000000000 9.33918805153563 0.00000000000000
0.00000000000000 0.00000000000000 13.66884573302601
PRIMCOORD
 96 1
Ni 0.49475937125244795 3.191873027796968 12.502907306109325 -0.03922809226268729 0.07078786934683938 -0.9746931242586244
Ni 8.863702106470807 8.286409527382288 0.39402221778659346 -0.12028057676032833 -0.17030987340357764 0.1586746031574945
Ni 1.8644008177532516 6.671747941152738 2.410213795192733 -0.1903665349441367 -0.06640156735368564 0.7510909671898096
Ni 7.172711335123155 6.410745648665811 5.003809088026915 -0.3109201628601936 0.18042356479881186 -1.6231209706595529
Ni 2.4105005082703213 4.746689096072668 4.595616519991979 0.7809910971833517 -0.5396226172700512 -0.591776159345155
Ni 6.559817770635123 0.18316949806942034 13.342638544829171 0.9237441440145833 -2.488277644048231 -0.32794677932517713
Ni 0.2986522957764315 5.411882114452953 0.8386273466751906 -0.6231762709229913 -0.08574757598046523 -0.4826315445969882
Ni 9.042220688819096 1.0526012230871478 4.664452874421198 -0.8357998174931154 -1.1095937649249727 0.1781993034539834
Ni 1.5598125339600493 2.3210124069853983 4.085645479007441 1.6738038417264014 -0.33536775437959665 -1.631748050206932
Ni 8.56837829736709 1.470520555627223 0.026091823979317114 -0.20043960290942253 -0.8015334401110776 -0.4917651314671401
Ni 2.7790528920113875 8.692356020656314 1.5293247540973245 -0.3512270900093564 0.6831711634193847 -1.3373138008169032
Ni 0.90444714331741 6.607270185854147 12.510329158967927 0.5916193220523166 1.3656928661802286 1.4939088957375497
Ni 5.185602923675204 1.7265263824298003 7.062829248576712 0.061801863798145174 -0.8946058318877304 -1.6702189525886202
Ni 7.801406806037203 8.19665058963971 11.699015202087967 0.15589729752267345 0.16115108972244505 -0.25217096984544307
Ni 7.703429382682984 3.006462124560737 7.004559251671366 0.624447424325931 0.21833062425723043 -1.8924414557010893
Ni 6.742529648482985 6.235916045654566 0.4238216994793435 -0.5981558376192537 -0.02076834289560294 -2.0870554530676704
Ni 2.8437641270148553 3.3473424936798843 13.021311634033989 1.0951189683475657 0.8911353568406266 -1.4615158241188249
Ni 6.147614021270414 5.095246277888143 6.500602647884437 -0.7738228615696867 -1.6646520000238039 0.09118237384279136
Ni 4.971726174820476 7.1931548180821085 7.020155695957092 -0.557765349617349 0.49947124186214625 -1.3384653979228434
Ni 7.367778958953062 6.374659025480157 9.89133781167496 0.06372993405879346 -0.5608308759165503 0.012562152935726753
Ni 9.256648449777332 2.718871163282517 8.907959585408307 0.05902430105300802 0.05474418562041539 -1.1592103995108358
Ni 4.272501154657446 3.480790153798884 2.861627192275518 0.8845093668836767 -0.03729822222982609 0.18957926315615092
Ni 4.99105829438422 4.497902461744861 10.90503291066037 0.7525490397925749 -0.5759255654661436 -1.639104747682319
Ni 0.36358113386484386 6.151611193817894 4.6815389192240335 0.23840168397549266 1.09038479609669 -1.0663570657235248
P 1.4355079390839987 1.0086790210058505 2.012997575043434 -1.1492741142337304 -0.7173544941693129 2.2715650150103976
Ni 4.830088046654422 7.978066889934677 12.968686242473728 -0.08754092043546215 0.5850851204782246 0.9040209545540431
P 3.1525737238722176 1.392575690951376 5.45184636857719 0.2227143551472229 1.6459621369237847 0.021745876317523838
Ni 1.4402148899343012 3.21088761496208 6.317836602745044 -0.002276968959634788 -0.038367544034604885 0.8982886800559562
P 6.1516578897588685 8.218924553484891 1.7205250200956643 -0.13419821528268502 -0.2446792894540883 0.013419615840015598
P 6.302168246710217 2.1259634615318808 13.558729615204944 -0.6884951467354593 2.0843969323989002 1.0738310055030666
P 7.632983886127759 4.425869303196477 2.33150872059781 0.6070410559240256 0.5937939611061323 -1.7653186592079468
Ni 4.667632868001611 2.254704170800578 9.171973766088135 0.17132237382849203 -1.1439169636868751 -0.10631871526359754
Ni 3.676343415414935 0.328328500185007 10.690459458366291 0.24359685502318695 -0.30687504625654244 -1.4380053997017106
Ni 1.8782788514110886 8.90037709851275 3.8541363428404676 0.6065695156042457 0.8225820332512607 -2.378123871309259
Ni 0.917236227631705 3.927343437344968 10.383620430218082 0.8933799299004291 1.033835953167368 1.2866059900493905
Ni 2.569518865667355 2.9341674687428925 8.82222863953425 -1.9816427945581097 1.731003945086477 0.8460451493702075
Ni 2.9681621137728564 5.833779941164117 6.619712786286405 -0.24892829453842932 0.6794518055862685 -0.003393599062581252
Ni 2.477275703864894 7.992159724921001 8.436671461927647 -0.37136834084392173 -0.38774343976783543 -0.4144039797781573
Ni 6.608465601943112 4.131358003465729 4.132488979156149 0.3124988202012231 1.432807914661171 1.0515287424614406
Ni 0.44538401718406373 7.659992818387829 6.950102445306059 -0.95590067414247 -1.0796807794156245 0.41118161618611765
Ni 4.306719940204092 7.9843054676489675 3.081955452335384 0.6947974348044034 0.8563285335740866 2.0746599076167946
Ni 6.136565761635676 8.443270532306265 8.561427139593519 0.07270668363610705 -0.6081790261832106 1.8141511073296177
Ni 7.6565559971320525 3.6047118419589386 10.815378571825576 0.7945022442959091 -0.5368473685177593 0.6461562767579324
Ni 7.650457507240688 6.789403034033916 2.3098165881771786 0.32983165505271583 -1.3176140083951309 1.3874760234935912
Ni 6.531790866861791 8.83009036815684 4.226270305254334 -0.6297333553152187 0.11064202522929978 -0.2293174622860373
Ni 4.736985679538016 5.916758628277094 4.493496232754438 -0.5168084475890132 -0.06685999504734291 0.5825227590676871
Ni 4.113239978367341 8.755787786877061 5.415542142306592 0.6666441122986391 -0.490311172629433 -0.20191541612400069
Ni 6.488737209282633 2.4157771496005216 2.55742741871123 -1.0528294635507351 -0.034497776666553494 -0.6576611920737383
Ni 0.7429520332110505 4.474302333175982 2.933006607650248 -1.3317432487076613 -0.7199610785542246 0.664880592640313
Ni 4.4217507212024625 5.5762891834385275 12.755466038549113 0.9570918662370935 0.4233352208295161 2.7729345023365215
Ni 5.183791121165366 8.039453373940708 10.68657715783361 1.1816563872191777 -1.3555591201803363 -0.7214824002947574
Ni 1.3154620140248883 2.9137146465957433 0.9259198048154579 -3.3183302746449237 2.863952068466674 0.6484383879238897
Ni 5.739117929619139 4.115378652464007 1.0040271713658986 -0.575024650918429 -0.24739026062734812 -0.044990448667761224
Ni 3.1725689257978096 2.0481586846789597 1.3014737779463499 2.676831808373977 -0.44979495768294153 1.681200905521421
Ni 1.5561422329993966 0.8905644400654756 13.605340569567595 -0.4717313527447166 -1.332398622903473 -1.056514111491174
Ni 4.547558925377916 3.295528677573774 5.020458058822221 -0.532362079052896 -0.27504478911982305 2.126122337162145
P 4.215681533678792 2.486157271838382 11.137444212406985 -0.9464045617265764 0.8323679089934309 0.98995570684465
Ni 6.446841611039661 3.6306280892001883 8.874292745883988 -1.6248839760972469 0.8776612336135917 -0.488015691727037
P 2.384677652911021 6.938456477626837 4.621204027808764 1.5871550940879053 0.21649537082070458 0.7508266577848295
Ni 1.3012290912156397 5.216263478519537 8.342766858545287 0.11753026770870081 -0.35825211517693784 -0.7092287797383849
P 6.242332067944563 6.594979814189466 11.949291436932883 0.27412124886428924 -0.6558945870916187 -0.26113794923074385
P 8.2903413256124 8.185761096204287 5.357025590832897 0.9912826531861897 0.7431334029056299 0.5812899151018505
P 4.23909487848377 9.216312495962931 8.503060949049765 -0.7390031827873402 0.9539489497327378 0.06972317552775088
Ni 0.8211331793482319 8.786532394415149 11.036526812608965 -1.1915571912726577 0.7220210464070468 -0.4881087656614755
Ni 4.425140846517264 1.1751220330179448 3.7058701928123896 0.2649691500513759 -0.013031636372977556 -0.25812461632571676
Ni 6.7721535534376684 9.330418697329993 6.708395849548914 1.3360814710716988 0.292901871905902 -2.2014970545487182
Ni 8.304714336244576 8.393305875462774 9.271113918372636 1.549208439640803 1.1697069281667856 -0.3268689728799661
Ni 2.6123670611062217 1.1255216045140601 7.567947647375104 0.688498489169569 0.06890016540582328 0.5586132994399411
Ni 8.817977441067868 2.4092303786757947 2.127405432189196 0.40894887020085696 0.9840681377156213 1.5622066516726838
Ni 6.718892163161326 1.9892937814855902 4.946317979417035 -0.07437661513936224 -0.9694035937249111 0.20545016875013647
Ni 0.6754726628265714 6.3784787534519305 10.334726978260562 -1.17676229235167 0.2638244949239715 -1.5437726133372123
Ni 2.5675389577700054 8.422285376431999 12.50681669028777 0.1567745579213042 0.9497511096013062 3.2266043695938365
Ni 4.931408899382466 0.656040613949141 1.3538320687242311 1.2245241331169816 -0.47862936541613044 1.0135172962146737
Ni 7.186047695865679 1.471389100129362 8.562616018250747 -0.4159114175616192 -1.7526611183449363 1.2366633395826765
Ni 4.208378288510266 1.4171284167161498 12.941649292649075 0.6564476313816114 -1.1763658282441998 -0.3596898760647289
Ni 4.204483847032932 3.8105849065305137 7.373932550054778 -0.14882624960850496 1.2040753783443263 0.24961812151660234
Ni 8.285569000444735 5.7100730543325495 11.96886544147088 -0.5444984573051139 -1.1555213806950226 0.5042244402764156
Ni 8.819144839592248 5.17221052780351 6.409882707676589 0.06946709365288681 -1.7132520204196946 1.0285317673456351
Ni 7.707613338994364 0.48032845765346416 2.336060640924075 -0.3404382269239685 -1.7109483119871824 -0.6766230778882218
Ni 2.6907321892508453 5.293498564892561 11.486436600392349 -1.7243365603686305 -1.822438029928758 -0.17877728744464047
Ni 7.763797895175756 3.6558999324559807 13.31329201376388 -0.47363499752533267 1.1248866865283014 0.6119243521582558
Ni 2.0239048129364274 1.5108378310652326 11.480190551327503 -1.2948219502012797 1.816841509677587 -0.6579118746319637
Ni 1.8028742459242941 9.142019253871348 5.989906885895965 -1.2381509798717965 -0.6270097857364686 0.9806557695999627
Ni 4.31056768574045 6.749543378817464 1.295571411007081 0.6517808220335614 -1.5096134509570003 -0.53104618845495
Ni 2.855270006871151 4.5355580685472825 1.635669156155484 -0.635610382921286 1.1802595068716513 -1.2114246196205458
Ni 5.406810935263043 5.887611021920358 8.755975504559782 -1.047340672522022 -0.7470995866422295 0.47047022664410587
Ni 6.03100491746708 0.9849107870494606 10.71388774587238 1.0686394339997984 0.10577801226877911 0.8646617360301302
Ni 9.087441038059504 8.094358461339379 3.2460365836529514 0.8427335684984711 1.0842115774064425 0.8814626096375529
P 8.776446071164502 1.4954561881079933 10.606997001304812 0.005952875149325232 -0.7014182825550307 0.40709819014536336
Ni 2.7531179663937473 7.373802735338867 10.711440878565279 0.835201007566852 0.4353394443792438 -1.972144368149371
P 9.053194234948274 3.2908497442880567 4.7497598211511995 -0.5718801917521764 0.5108730559411847 1.1066400816132878
Ni 7.457995516917198 6.881300645873161 7.302348606458576 0.011012291950103614 0.627560773143932 1.0467909706661391
P 8.164682548448068 4.711816567352369 8.556656682263489 1.5117569796625643 1.3695814026013573 -0.30213676024060865
P 3.253595722578021 5.705394121046832 9.460372567145228 0.15368743435554824 -0.48296038869131663 -1.5628124035774826
P 2.47339994076395 6.32984960052033 0.2859043038901949 -0.23404289278616466 0.07836336770125214 -0.6173378098643433
Ni 0.0002045282214714886 0.8703152122209786 7.593194274822769 0.3292544423930071 -1.1125117099027162 -1.0072620593335813
