# total energy = -340894.0999525536 ev
CRYSTAL
PRIMVEC
9.00984744634481 0.00000000000000 0.00000000000000
0.00000000000000 9.00984744634481 0.00000000000000
0.00000000000000 0.00000000000000 13.18682246706585
PRIMCOORD
 96 1
Ni 6.140643442342133 2.127405156505227 11.356359381239324 1.7293175585229894 0.3271278829683076 0.40796876567577484
Ni 4.684571021803198 0.237750950912012 6.135195187649017 -0.7128836028821528 -0.052920245037799185 -1.1638664102256084
Ni 2.759211692142922 1.7182409587567435 4.675124196855732 0.5248086921856703 -0.6081911103680687 1.6290849015524718
Ni 3.5657912466942556 4.3931475092368695 4.837084311851591 -1.311902045612018 -1.3364223993508855 0.8069422698314748
Ni 4.944640265588236 4.465163219112976 2.6480851359010966 0.7524742206905815 0.2794524312692155 -0.2727225687445497
Ni 7.001570396114369 5.962671927618908 2.5716284722657092 0.911678728209617 -0.7709452829115755 -0.01616992489164312
Ni 5.025674832662641 4.7185561660109645 11.307884600521767 0.10484110227680656 0.32953417841695504 -0.06251457359445363
Ni 5.709026704995093 7.887986208042429 12.287415382852378 -0.6250158952348913 -0.3908369910914946 0.4235326815523028
Ni 1.853163422837151 6.709894607822213 0.39095619723695774 0.00576184218444169 -0.8568442968682404 -0.28557191390339204
Ni 2.6451109852905494 1.5507749260447214 0.4373397923843597 0.23156872021405925 0.26293669300237943 -0.5385029018433113
Ni 0.4828133929493162 8.951427500721866 4.440543811226518 0.3848429782915888 -0.24959806691194433 0.5391382214344651
Ni 8.559994682560044 2.2173865019991186 1.4163705281869936 0.19326391109658975 0.7377939929705875 0.8497380248407622
Ni 6.906480467172491 0.6522012261012949 4.800557489706124 -1.6046370529227525 0.21918500183772574 -1.504752523320273
Ni 0.5143550665555059 7.12023008572632 2.383281217333136 0.5461208233998853 1.0083252104907732 0.42067670016074643
Ni 7.3918769833573235 3.6656834242741874 3.809330123544515 1.157397257561497 0.7993598294985266 0.8722490614590849
Ni 7.647125958809606 3.8824153023011787 12.548474808861286 -0.04088696802234894 -0.6399666030074528 0.5637279949586872
Ni 7.858370839799873 8.91716305124622 6.709164810186787 0.21704378712500685 -0.3238299289433262 1.0266191237039546
Ni 6.819625538709378 0.6551807826202526 0.35329503531000594 -0.29600236520809664 0.5738458001189795 0.07185564848972141
Ni 2.1430192219644155 6.498163195074997 9.2730529225933 -0.38969002197124497 0.5793826707768086 -0.08909052431076915
Ni 0.07925872616153155 4.7803006499069935 1.448585237390299 -0.2203240005381754 -0.5679140080155768 -0.44377240563794546
Ni 6.329931325338144 1.800032353008626 6.945143524124868 0.5677970228217383 1.7247875318631198 0.6767529185978668
Ni 3.499361642175735 4.355432288225812 0.2348173446145442 -0.7937206289348783 0.24503538724192636 1.5505305008863361
Ni 5.873825822891236 5.426495911764148 4.823317265099346 0.572363302036182 0.5280048305254649 0.2741976106281794
Ni 5.286446844541052 2.829966023389896 9.320735737728707 0.2703633244837538 0.4189172942674785 -0.6353355319933445
P 0.18098350669264546 5.604674652976444 12.511261436347677 0.18607022156162795 0.20472846009276355 -0.2862026055088555
P 3.817652519542583 6.230255384094636 12.508808955898749 0.9489368412301271 1.104275438035853 -0.04223036942412082
P 2.1793379166360762 8.517423153826826 1.6275703599405047 0.9440111217937356 -0.012485276951204303 -0.3769278372095702
P 6.3580240293783925 7.673164417653839 5.710381786036676 -1.0752715946043352 -0.3159248151636366 0.2449788229723781
P 4.736449722849941 1.160792693306401 12.576233247564813 -0.925097058498052 -1.0378836408741803 0.9515513960348387
P 3.996579078085008 6.194909752936877 7.976115128920967 0.6090172058137899 -0.5417808012636347 0.9526986222654046
P 4.741017715456871 0.9652339565541312 3.7673433339043743 -0.06753748073034174 -0.3391529324536417 0.9912260889166413
P 0.10583146895367482 5.404556933464596 3.5326836616184716 0.15319223988668457 -1.1707690508827127 0.1796154670752197
Ni 1.553360752234443 1.322375295698256 2.6407141797832883 -0.9077660234187721 -0.03202360409444807 0.10605723407209477
Ni 1.763515441695244 6.355825626624762 4.66362492868172 0.5367262695588628 1.7732859936841396 0.5004328344444672
Ni 6.0603116433611035 5.536352980514224 8.986371292687773 -0.31929655984934685 0.3878411416879643 0.6116271326328111
Ni 8.3899428236583 2.3314151300726835 10.149053350983667 0.4629039842610737 0.0693069139259387 0.43609354893644886
Ni 2.3142243413270798 5.389222173273287 6.876492992234339 -0.5668763107796817 -0.5201408543963558 0.6895091898222705
Ni 0.5044009872021814 9.110217050434928 9.17565467076011 1.5609360124903762 0.5842808794093743 0.2257459428846951
Ni 1.3671632468798052 1.0585399357205216 11.452464719977653 -0.3223302044693481 1.4513987902894812 0.14833979689038967
Ni 4.2424938516817114 6.690955908690527 1.6651927795238473 -0.6351344717261319 0.5985235053713176 -0.35444045474033153
Ni 5.5456331232856995 7.761731217113632 7.9656979434138036 -0.2609908821299183 0.49494275786417347 0.014553472334142677
Ni 5.237190009073434 2.8376334034855506 4.985620655279277 0.6817799394988129 -0.9612128303840025 -0.5031754301866109
Ni 0.5722775732052636 7.483939603589284 6.916963424565316 1.696237231029253 -0.4880622286942562 -0.9488877331597463
Ni 4.987905552567478 4.25449496835317 7.022839942755746 1.2359349460570843 1.5168793884907943 -0.05629661770919982
Ni 8.145848039226488 7.451585241752039 8.808679083232427 -1.402682041810068 -1.2810536927725937 1.299987039341987
Ni 4.676678395523771 0.3441806737297896 10.555602891030906 -0.2607815943325896 0.1554859210168677 -1.148427449962719
Ni 8.162435168199577 6.864116164928347 4.671787850381677 -0.8967871558097653 1.9259115624340764 0.12041941633103778
Ni 7.31227498201172 6.232282599748598 6.984175984818633 0.18151268409793256 -1.2816874697018508 -0.4611394361614832
Ni 2.2655351262425705 5.167805174623804 2.67852040025259 0.34199862943255294 -0.5560663646483713 -1.6923589790207696
Ni 2.4502460067843024 5.065074895128324 11.200095291738732 -0.33615888282232426 1.1813128878368302 0.7814572381864928
Ni 1.2163023628355756 3.4278775132933346 3.9919281948824494 -0.9920064187260914 0.002416065640660355 0.017811574260124162
Ni 3.727436918017567 2.5416238786175906 2.666348997466198 -0.23709247824576585 0.41101192337747283 -0.8038841997314413
Ni 1.3206363951595235 3.0529777650204966 8.186669855604151 -0.05948221452603304 0.4151519136877753 0.3418957853061015
Ni 3.736113401016527 2.4047282579673266 7.1250908983721555 -1.5680278863401511 0.443963438602829 -0.8420555685948401
Ni 4.057170301520116 6.8012544599608 5.807279090357153 0.4250727723459131 1.2475321639763806 0.603025249896413
Ni 0.5088833862592766 7.1711357232591615 11.0145834357675 0.4487827143683432 0.6901010577699985 0.35025701278660326
P 0.5187825055437604 5.769906243545432 8.231583944648614 -1.7100851926559388 -1.2969508236188243 -0.21292128031620103
P 8.534677011503886 1.5867602563643974 7.964669018846326 -0.40048042771852965 0.879089481419686 0.2897885230879009
P 1.8627048511818023 3.133129367054507 10.340618022405264 -0.9116825848643589 0.45438566237741745 0.3617333888573189
P 3.8824693613852848 6.113352614716119 3.7788552158646773 0.42171568294822215 1.2301224531403654 -1.2955711696624785
P 6.902218809375494 4.109382366918844 10.41102277157502 0.4537847955686249 -0.7252441813300349 -0.7638390108840973
P 6.3561680008240975 7.712177056683432 10.153470879139835 0.10676145922797098 -0.36371210985024455 -0.17149489485061434
P 2.279338212384219 8.496250012552105 5.746645520639495 0.39656643737610414 -1.0160912275894372 -0.2227575496803325
P 6.919914149572751 3.7390776407949886 1.6210688540920624 -0.20838354034684758 2.297644485706269 -0.7355468488076236
Ni 5.319071501798827 2.9385166642740863 0.44727044613457173 -0.042346583287010936 0.034810679921281985 0.10538643325731528
Ni 1.3597121031205734 1.094309029703775 6.708769277888081 0.40531924386806967 -0.029959008255935504 1.110379751161378
Ni 6.899786150590739 0.6110253227227395 9.08206758435637 -0.8710200741479901 0.32895568020566573 0.22074103347093596
Ni 2.76729352521672 1.4547209434362927 9.348231088889586 0.5701092158946827 -0.05885229425151799 -0.5333792074635008
Ni 6.25974461447428 1.9593354640206915 2.6399618575294843 0.1864797982952208 -0.9563195068474433 -0.3470963556704345
Ni 4.195156113699844 6.9905063035674075 10.216200139351324 0.645593462275927 -0.24237866634536964 0.8215034554751012
Ni 8.046919915313106 7.093011336879115 0.5061903428860791 0.1471120951308757 0.18770107229683158 -0.8314600524671809
Ni 8.137126506990771 3.921959522324478 8.278172964315617 -1.3546319803803768 0.7333639822236918 -0.9517025769007221
Ni 3.2009464880650724 8.4680942395804 12.531305643749324 0.10529747308793477 -0.4393938169542755 -0.4845760699178687
Ni 0.11943093254519178 4.6870847692141115 10.48848223122057 0.14947288205356837 0.029114915088085343 -0.8947842664471234
Ni 8.556670048887545 2.2075117093024823 5.8106676939458435 -0.2703203870609603 2.064595067181625 -0.3807101870701379
Ni 3.5940190984447677 2.8919177337749966 11.57065860048156 0.3184208421126129 -1.587510420544795 -0.24632685235984028
Ni 1.1108601192874616 3.5266524698017485 12.602764545059143 0.15895768161555204 -0.7392595217725203 0.11758117555129427
Ni 2.9194698469741875 8.36744523482299 7.88822496899723 0.6215338502235619 0.2661207471573159 0.09763481433635443
Ni 5.681528650880009 7.673209466890594 3.5890708902796282 -0.9831625951822164 0.7409711051469885 0.4234439784932385
Ni 3.155239532453727 8.400178010248974 3.75791452865161 0.06755470712152237 -0.5048075664733952 -0.6729656836412926
Ni 3.499848173932686 4.3353042892438 9.146920465588474 -0.0012076471548559846 0.041854474141940816 -0.5979393507330735
Ni 7.206481354416921 6.08401655174144 11.436891198831544 0.15717719267636157 0.2775701266448381 -0.649296879269443
Ni 0.47616322461958344 -0.028290920681968545 0.3433977179949924 0.09400801621704455 0.10653494503946168 0.08067736054640945
Ni 4.443377408218391 0.25809068130677126 1.5205595019685911 0.3025442800916725 -0.2158060580631638 0.38376362918448104
Ni 6.014370431718634 5.64170512558883 0.3543203559385435 -0.6822764195192572 -0.7840401684223207 -0.12720018669829705
Ni 7.837161659135747 9.065348010627218 11.242174882806587 0.43118916965629606 -0.3385222408481783 0.5602567485806352
Ni 0.1371010451698659 5.0265217583136295 5.732997403872284 0.06674095297097539 -1.790367888867091 1.2052519151509307
Ni 7.872101847162713 8.890214597819543 2.5308544080790054 -0.060673663730972924 -0.2725186802638597 -0.23094754169029255
P 8.434145134762039 1.7282058499268893 3.648306131688419 0.9282438316571497 -0.5715179233167512 -0.2991738209575428
P 1.9150430544434438 3.2650605618144 1.5150076340309386 -0.33677646180166515 0.4738401715576033 0.47446752072895704
P 4.730034711536069 1.0448810071364885 8.275377208682619 0.915123749335424 -2.2073465713509597 0.7774458030342546
P 8.58016773077881 1.7580734938952731 12.551771512006997 -0.6596725660768124 -0.6295410367987545 -1.6995002180512409
P 6.21237984695036 7.772993526302314 1.4137198310963455 0.008768490221249415 -0.21174294373738373 -0.043395079156183326
P 1.958452498980299 3.3116955317028935 6.162214818869765 -0.25171279926210194 -0.15481614864335272 -1.7124192401057543
P 7.146574879380484 4.15985553177884 6.126399774665024 -1.3278043186645714 -1.1387655013929228 0.288253060279981
P 2.3673464013082537 8.590375887827431 10.358736825428014 0.6593876878465418 -2.2275371873662215 -0.365274569241358
