# total energy = -381175.5446618707 ev
CRYSTAL
PRIMVEC
9.19736989190723 0.00000000000000 0.00000000000000

0.00000000000000 9.19736989190723 0.00000000000000

0.00000000000000 0.00000000000000 13.46128052120142

PRIMCOORD
 96 1
Ni 4.775513511816173 4.532371844799552 10.402284983228725 -1.1103064747212814 -0.8276213954473811 -0.7235973897552312
Ni 3.913922307292679 6.300161497190109 7.601584719766082 1.4077815678201626 -1.1401279289580881 0.36264330226609803
Ni 3.9434826537063357 6.975607135109372 10.002875405278305 0.9267559342577136 0.868858033499665 -0.1144140906772223
Ni 3.272185029549535 8.764799066935081 11.827699787034254 0.8286246399009148 0.08852488161528624 -0.16605264078912046
Ni 6.8215144021241825 6.850854011663561 13.125986706521536 0.25452224368643905 -0.4303360776273815 -0.24234087112889877
Ni 3.1947799656362394 0.7625686427226253 4.37155123583378 1.0833574569362632 2.411254335314641 -0.4592872134440929
Ni 2.6294452385023814 5.124572089006928 4.14147075361555 0.15078980109277904 -0.8067185838564429 0.4396059329650816
Ni 0.7312727526349622 1.3447198407285212 1.639435758683095 -1.49748452890395 0.5745837067262685 -0.7537939679432696
Ni 4.481786311110967 2.2753465026822903 8.709784999706304 0.8545367317809863 0.8307365440375951 -0.02643788247655447
Ni 4.1802137539991495 7.255805004895323 3.040607215534124 -0.7663170401109447 -0.8843075352855159 -0.39385160954810233
Ni 4.829676822342004 1.0267391759620794 10.59938553695595 -0.14323127201923072 -1.400206326576066 -1.802045582315335
Ni 1.6196016307922891 8.531397414495952 13.358974477321393 -1.7032018352725442 1.3170092849315962 0.45424887968923705
Ni 5.65386232404523 9.120921224102716 13.069650977258021 -0.6578553103624154 -0.4140424826736805 0.04660921521810683
Ni 6.109334469377244 7.9196159700662125 10.813648382658245 -0.3727101995837968 0.10611482678290758 0.2016855595013817
Ni 7.319975053721731 0.5956612144486527 2.7564397609590845 0.9222390202239665 0.5422495133699371 -0.5539840281980459
Ni 6.947030907260203 1.9939345800878139 9.595765789363506 0.5230269176948993 -0.23641833499687673 0.8057955578215413
Ni 3.8298491503022523 7.815612112802483 0.7386591602904716 -1.0494764879181022 0.415804973890742 -0.054921334628228
Ni 0.3447505291944407 8.299044262209643 6.682664470044827 0.8237189750691815 0.4131863053209723 0.10889958861689633
Ni 7.398437815157608 2.0034906472700755 0.607730922786749 0.49285373654562853 -0.872195325403014 0.6348274820086744
Ni 1.4960441654154812 2.518791682901043 5.850864465916005 0.07555186639438602 -0.470918369925118 -1.1823894087304605
Ni 8.007294496003171 3.2694626081001137 5.9006314336958114 0.3904567249339404 0.2942460446386223 -1.6704850617658134
Ni 1.8845686562530946 2.2584233423210183 12.858147342484193 0.6886316723133238 -0.8105600690897202 0.886497600958299
Ni 6.214773116323777 3.3610592135554977 12.516755692726674 -0.6659013205953436 -0.3396380996201764 -3.4266500794989505
Ni 2.5185985381360503 5.629388123109717 10.825911235761335 -0.9698234548711491 -1.5110753802145072 0.403028390951364
P 6.142141487316732 6.703043082225518 3.9628394381065166 -0.4287409652261196 2.6990829064626936 -0.12065390093934707
Ni 1.9468900337574306 7.257892807831197 8.311371496901062 -0.7682767349404769 0.2495026789846606 0.9343730844833391
P 0.3860743115331335 4.6516985200860415 5.388564193273008 1.5709982818223849 0.66847370930821 -1.3872747061160624
Ni 6.592288355556803 5.574535009851768 11.073276334972466 0.9364479647344969 -0.7679003254376646 1.7836580809470832
P 6.575705497876708 1.050578758384045 11.642095945508979 2.8877789956829427 0.8809594447488893 -0.1300021749234664
P 4.798185028278421 8.06007820106477 8.445607108571043 1.1841184756064251 1.5208355449250648 -0.5535898780834207
P 8.885624913492705 3.3397121183389147 1.4779271864591588 -0.7458490020645799 0.5150192168990743 0.6547422186547305
Ni 5.476665798218999 4.8000612917097785 3.4780580345553362 -0.6528462871835983 -0.2297630344638882 -0.4573051500170576
Ni 1.3306570623630947 7.682130685452951 10.598025245968214 -0.2827935798273065 0.30471454827011396 0.450301979226347
Ni 9.118364355309001 6.405848473120203 0.9865650648435818 1.0571748850036244 0.8698620492841471 -0.7901113143170652
Ni 4.2752593731151185 6.650001850810597 5.294968079631461 -0.3888101904694529 -0.09135849440933942 0.10863476499128388
Ni 1.1329687967081068 3.929235927945678 11.679680077302622 -0.35676935998382425 2.0214918082342477 -0.47963055298713525
Ni 8.842526038790032 2.1500047475717396 12.11083161777414 -2.1427406624451164 -0.9880808584194403 -0.12582516072764136
Ni 8.089003928964878 8.773352620813332 0.563075853120419 1.0690027308764878 -0.09134435334195236 0.3659150310388343
Ni 6.365186901404343 1.700547682063786 4.537205062609251 1.1899391960532604 0.3905965929459144 3.0779496125661896
Ni 3.1756218444229085 9.162557717013302 7.170177492415191 -0.06869422004260427 -0.19423604520187193 -0.4179832124889834
Ni 0.36597897834109927 5.028919443486696 2.999186860812935 -0.7155015001209741 -0.9987159695357833 0.4855916556665765
Ni 9.155549321254993 2.467240425387495 3.8281724697947195 0.4759819004909545 -0.6380673291022109 0.43871041773400576
Ni 4.612278593287991 2.0152540831951122 6.395858290085196 -0.9152466480665334 -0.4180156083888156 -0.7821447511718207
Ni 7.711718623975893 5.662618220058236 4.816378345403764 0.46988247246143594 -0.7089199902487145 -0.21774801228088306
Ni 2.9386608098860556 0.03047824391586021 9.513827341894737 -0.09787521248193466 0.5393624216301293 -0.18149237238295837
Ni 0.3152490459472583 2.702794262350829 9.603532968127144 0.5941004366029574 -0.10418212853656895 -0.055832790698903845
Ni 8.93008499892009 1.712228341660968 7.480891315333023 1.7480639858925575 -0.15835270104170146 1.4709139775042734
Ni 1.969855866052048 5.854447761175109 6.497935298383879 -1.5530152149814027 0.9177753280256582 -1.056962254772186
Ni 1.8608210475287446 6.359364966345274 12.958662637397362 0.5326929800297536 -1.3596137498656842 -0.32781359618142253
Ni 0.9288515695897877 9.467128616667388 3.9664871149539516 -0.4594378800893442 -0.8296592518130164 -0.2044644077980995
Ni 6.223437038639168 6.562498074899107 6.722536907435146 -0.3776143217536335 0.105625802961631 -0.061585119801648776
Ni 4.902961464602121 2.3201560881606147 2.9674991627734295 -0.9337580766071596 -0.4287134544222939 -0.08917845603888512
Ni 3.294286309086566 4.060620354989574 6.426428507698672 0.8983539860762528 -0.10884585256082545 0.2744318381261725
Ni 5.628082096603575 3.4191130114904693 1.1497843478431682 0.5747073767883264 1.511550777189029 0.17675948568366331
Ni 2.057479207770438 2.79030723563208 3.055939230926646 1.7404625193962155 0.22343992045933778 0.6388232334316288
Ni 5.806465083129047 4.16006231685157 5.594158517975034 -0.40175569488652746 -0.3702853921923881 1.909648563607995
P 5.060484816508373 4.33596201354142 7.9553072831629255 0.04539385475376698 0.02002118031693326 0.006686153770923969
Ni 8.118545880639012 7.468209062168808 3.036662463643391 0.34187701625302414 0.25957728961184323 -0.019153947220631528
P 1.2403572860440908 0.7824156469310973 11.614769640210406 0.18885035540992637 -2.400992034156684 -2.1272322823968715
Ni 7.277501600162845 5.468728468114773 1.863552666347928 -1.5146121897231721 -0.6839052133719318 -0.09005648776846427
P 8.909970351251557 7.4569330868411345 8.665147405042521 -0.14577743547985217 -0.3646117388463785 0.46380438458815604
P 3.7135484096673155 2.9462210478300586 4.629092304949101 -0.4912105445152507 1.140890003935093 0.02340398074623711
P 0.9401183475476997 8.315553540931644 1.9570678431355737 -1.0765846569888038 -1.0365662076143374 0.32116909428171136
Ni 7.212531380167179 3.69725067044983 8.032224886478858 -0.05160512577080144 1.8651720784621748 0.8808452877685282
Ni 4.385489849707425 6.57754497182902 12.340857835510777 0.40553881607804354 -0.7557647185163952 -1.1388349211782776
Ni 0.9015574550853798 6.970024331664105 4.521644032709666 0.3352538545095517 0.17454550875148003 0.12191117038521587
Ni 5.5486904008217826 9.03862315947627 6.559776573186661 -0.6683297275311779 -1.1719640996320784 0.12603187742180874
Ni 3.7885989469216517 4.512174420803164 2.027834245554975 -0.18720433516607113 0.32211423180380006 -0.5963912895196631
Ni 7.031793866982747 6.075377780217562 8.989213969380188 0.2601509027271262 0.8861024224024094 -0.9266834291485653
Ni 5.41851082921665 -0.22164557440990162 3.9835427174397897 0.04163952991765732 -1.0991350314854942 -0.05118577884519571
Ni 6.79598250366609 1.6981379711862568 7.044234229322234 -1.537680127286229 -1.2164364710128406 0.18211792178209926
Ni 6.996843861888816 8.788086807171354 8.698261615132045 -0.3628268790318138 -0.22254414811794576 -0.5101114951848117
Ni 2.285380833092153 2.0099655955822144 8.071975918588324 -1.1410800084587123 0.10937909935647613 0.05150768096098872
Ni 8.040441816623837 4.414976617162989 13.00886004208201 1.8453028503420739 1.1771070772855985 1.486483035587124
Ni 8.791591005050508 6.451632979793253 11.792849113533746 0.7357021434385651 -1.1436516258406304 0.15103148478993988
Ni 8.482099512573987 5.955719999619656 7.053212701683471 0.5858862762232813 0.7715870302606325 0.0007119384653600642
Ni 7.518573858983115 8.371832246502635 5.461927932913074 -0.1454640180044914 -0.3463743899027454 -1.013677475941622
Ni 2.2564275130827594 6.152249396684687 2.010751970696828 -1.152378207080351 2.1200560763634066 -0.5058727745131159
Ni 0.5563424587179803 4.094071188812371 7.459797147784884 1.1639869949638728 -1.520980040922729 0.8521502338266808
Ni 0.3094353885209757 5.135075485274632 9.516492739651637 -0.110246589563094 1.7412970994823689 0.5347501196690984
Ni 4.413928117010171 2.0267691901365863 12.477933594963126 -0.24033181111866997 -0.485024727419513 0.7699055287931514
Ni 8.441861019867158 8.674480895876554 11.594873889942198 -0.5528311455405253 1.4879243960193407 0.32725103880973316
Ni 3.552198951940254 4.209259047706158 12.585623758027289 -0.09754945371139974 0.2850150129586575 0.4610525328746318
Ni 7.269812599042179 3.338452078681581 3.2625434268284907 -0.706505724380267 1.0088031785684561 -1.5806437753319487
Ni 6.094140414531146 8.004847995646596 1.5843122427541565 0.033681708523161345 -0.2537951357124274 1.881953925906204
Ni 1.667519927250021 4.025559981458504 0.9932947802981158 -0.7916064108053529 0.8715165541684345 -0.7945431248361735
Ni 2.7836759320339945 9.634796667420641 2.033716883254469 -1.1442236962940167 -1.5208841387748129 1.112509138799555
Ni -0.003090316239884432 0.3154918565089635 9.426854254218489 0.9292488758828964 -0.11062659861033206 0.18715496998537445
P 4.721543346055333 0.6964781830900015 1.482760404268859 2.1954415923832578 -0.6454996170105399 -0.649654776829494
Ni 2.890926460823555 2.440706013625392 10.636107875202935 -0.6192370837695852 0.32137658230682714 -0.5452407347877771
P 5.104328678161734 6.009267086371462 0.8231075699671707 0.15064787619827602 -0.8970722911503519 0.9036178055783534
Ni 2.787023774627203 4.309418404409556 8.77721275690226 -0.3765987360049256 0.18493816483971376 0.45629727757783356
P 2.7579232967016245 8.249166925992697 5.248647366301313 -1.49071044340491 -3.021250617212248 0.7225131555521169
P 8.74564094572175 0.9848727488074546 5.535951123965044 -0.5085580346547628 0.036598882169956326 -0.7088611119863211
P 8.220415948118058 3.8958034888624047 10.870145065892586 -0.7920458123356166 0.9883989038804913 -0.3636072088412641
Ni 3.40686211496807 2.399143099672899 0.9668698172361754 0.5200747770451108 0.4740162921241513 1.4924443953768811
