# total energy = -340893.73295003426 ev
CRYSTAL
PRIMVEC
9.04332472903754 0.00000000000000 0.00000000000000
0.00000000000000 9.04332472903754 0.00000000000000
0.00000000000000 0.00000000000000 13.23581985422349
PRIMCOORD
 96 1
Ni 6.269999263076061 2.101632484349889 11.43505979438038 0.8369976944559584 0.14803923493083537 0.10060623825985254
Ni 4.764068662618734 0.13855096889028978 5.8160578240058 -1.538204118110499 0.7722956262918829 0.4680978697571874
Ni 2.507605416273998 1.1967031560526895 4.778501808821863 1.7838735393919987 1.4889104140816938 -0.5709013727786749
Ni 3.368900702948329 4.271514940125227 4.857545892595717 0.15796934956035374 0.13920081070359897 0.11557031576885257
Ni 4.864521913260563 4.638746269083042 2.6519025136714736 0.46897230194234063 0.14027424627343582 -0.18153608113670028
Ni 6.963016363943482 6.00483089655466 2.6511085097638074 1.1370377200685386 0.041530000922986546 0.41737617503260377
Ni 4.987701038845039 4.417627937120189 11.444179082996444 0.9532771204766937 1.325674673916078 -0.2593649164907211
Ni 5.679307381061026 7.867484482681559 12.306810973059761 -0.5287519931041346 0.25700670067118964 0.641482782541663
Ni 1.9110986764841433 6.494427451874969 0.34290297688033455 0.8036710552793708 -0.1516860876548033 -0.1245411518088952
Ni 2.4961384805687548 1.451670652325262 0.30277593657173485 1.1936922353377892 0.9555692589449801 0.6833683670318553
Ni 0.4717902490083036 -0.06660951232692276 4.854514570160073 -0.6952795166471445 -0.5642126479045896 -0.23029962369364854
Ni 8.673615488754956 2.3896352457102004 1.5635212050722316 0.5690185539336652 0.4714449318525494 -0.3438788771744013
Ni 6.915330912860084 0.9038115733656791 4.83045209182844 1.010576468418795 -1.172239464780652 0.010939015510006967
Ni 0.9042556006078931 7.328330508067297 2.58683488820397 -0.7096195874189004 -0.04942277340750198 -0.02511222168659546
Ni 7.481660078163823 3.8707509632217962 3.8514253783620926 0.82353642674473 -0.5192656508802541 -0.2139003564000187
Ni 7.550515952343413 3.942500701301763 12.834549558919504 0.9348996464107706 -0.7436280831538612 -0.7708979746134078
Ni 8.074413838207876 9.129055406726131 7.126549517286242 0.3639339960530636 -0.7247014214526873 -0.3320268629318217
Ni 7.003792714964728 0.7169213210170016 0.5001193679280546 -0.5463337107416397 -0.22782005180490442 -0.2839847719219302
Ni 1.7617662559000122 6.495702560656073 9.153125119717517 0.9203659715709698 0.945042134161411 0.9857938621574763
Ni 0.22839549533983156 4.900487215547433 1.2885887608844657 -1.0702093495900795 0.04388693119093732 1.0275388073047464
Ni 6.587591782817725 1.9599778464264452 6.910712486941577 -0.7774162353478997 0.43372941957964656 1.7305951396838324
Ni 3.5227276559027327 4.3010594818831365 0.13073844069174131 -0.7015319253147596 -0.015480869244418499 1.3448113947455291
Ni 5.681685775454148 5.4166349721537 4.932195824903343 0.38979183765643194 0.7389463614074757 -0.5323970460558894
Ni 5.350663918549798 2.97434949010602 9.110545529753345 -0.1495078490565619 -0.5080857230040347 0.4147459364986083
P 0.23574048365197542 5.66300226664734 12.512720241561196 -0.12230197806573131 -0.21407184898087647 -1.346884475224474
P 4.056953018561665 6.213424223823695 12.518252947605728 0.35667962848349544 0.20734481466968804 -0.11866823796788595
P 2.4552897829499987 8.315626437628971 1.3277644434358165 0.4657018587211851 1.1268852050155689 0.5186794393594809
P 6.483096166040057 8.023527050184688 5.9871439621285445 0.8704963404340362 -0.757949641982856 -0.6192316844529464
P 4.780355690383042 1.011830469442056 12.50255554461112 -0.45928001435524135 -0.32234614530894806 1.184888006782598
P 3.845574347288518 5.917291513568262 8.227173678849017 1.0250672058358024 1.2736342603800712 0.11364790193515911
P 4.722632148895213 1.0909866904420498 3.7684230313720044 -0.43491444102668325 -1.2168447621948528 -0.24495259772013298
P 0.1333881348255238 5.449570760669864 3.6225117005175997 -0.4054516556808759 0.7209748645307197 -1.176348344742703
Ni 1.7009860706674114 0.8815767509536279 2.5920103829233003 -1.0683679255059664 0.7068533375276731 -0.430255087877801
Ni 1.6522515939201283 6.4708967210350306 4.845885429742137 1.3767103003366548 0.3674466371920123 -0.4510805092635844
Ni 5.938398633391636 5.759060461490472 9.295675046785139 0.20373112917650074 -0.7764410159188241 -0.4520369596395828
Ni 8.527050325525561 2.237852084135438 10.379397234504774 0.5160024067479501 1.3301507074095609 0.5967602428233078
Ni 1.9920273891231182 5.40849597993389 7.086445085289365 1.5375253468759198 -1.3970358992678842 -1.3395365194998352
Ni 0.706600174549814 9.365628780581932 9.060342417076622 -0.1737808626713136 -0.922919591230759 0.4683056148926193
Ni 1.4143217213610242 0.9463658420207198 11.494542262520156 0.7160787127806828 0.8630589103193845 -1.4604611576020654
Ni 4.262959954969738 6.924537017393159 1.6993465159013539 -0.5387296731421367 0.10897389349825748 -0.7408988571481562
Ni 5.7320480506453935 7.913325095528465 8.051336177934841 -0.4134611562489138 0.39964610474269235 0.35085222316844095
Ni 5.259606682259505 2.6927041860018486 5.074719526329369 0.06454805908471464 0.9440854266750968 -1.1755939830751818
Ni 0.5402355562470279 7.214737306652818 6.805686027004684 -0.5611949441241884 1.4059077478362172 0.5449882524573388
Ni 5.043634002044509 4.3425773855288545 7.021138716050081 -0.1879484124209473 0.6231307623970365 1.0626731891140342
Ni 8.181305936028044 7.230572168182693 8.995486405406835 -0.06257370896716319 0.7679525188318387 0.5152380177780997
Ni 4.655702502874312 0.368877214051154 10.205438936460904 -0.4489950874894654 -0.2741101931206956 0.5873469199292077
Ni 7.962611215081756 7.102193130902228 4.657022828278858 -0.0793226462907279 -0.010134003110208354 -0.10716306554176383
Ni 7.275933484821099 6.227170077350484 6.971888769795543 -0.6856435362192772 -1.2073252527401916 -0.01760254357311162
Ni 2.329858869518042 5.286085536947952 2.5072482049487954 0.650618426294344 1.0476623175274988 1.0235975632688112
Ni 2.410145506104121 5.272828022954351 11.429514427681283 0.18191454752204156 0.5945434376776471 -0.5877325854034007
Ni 1.289894616969511 3.4507789646796145 3.8451384590385236 -1.0387519024117466 -0.7266924837407871 -0.18888455108197147
Ni 3.687614594951389 2.664914049233542 2.614564434696862 -0.7010999799836635 -0.48413075485033397 0.169868672101101
Ni 1.1923081002539921 3.403871239519445 8.191794384001973 -1.3633349074710135 -0.07626457619069446 0.24628365782673067
Ni 3.6514051228979243 2.394382991171756 6.719666826898453 0.46044395275635547 -0.1641595375314657 0.34107688894923194
Ni 3.9553331790349966 6.827981439692149 6.267505114126924 0.15864195014734614 0.2632390547341466 -0.7594087430268857
Ni 0.5356949029208429 7.4313882362194645 11.07697850134257 0.8419149292519178 -0.7735366977878355 0.7271727658113154
P 0.15939764096262907 5.4577007095649845 8.225771059189801 -1.3589599183317693 0.09761450262138027 -0.5129438224272843
P 8.49587798532369 1.9606380091287186 8.204368222649109 0.17064205993201578 -1.145784355912917 -1.2851620585140124
P 1.7050646101020046 2.884314149505547 10.415623888875146 0.7287645357784674 0.7808553429364358 0.30154926316825487
P 3.820705204394655 6.19547322431667 3.9532749183358535 0.508896391830788 0.07325741393325448 -0.23148001715499486
P 6.992958811987692 4.024279486461474 10.533898819480953 -0.6818046220891613 0.1645331188208005 -0.3802363327575129
P 6.448405972534291 7.948575975164929 10.322536426192245 0.07882796604249649 -1.7307213808490514 -0.9637919039650884
P 2.268011571972177 8.439990238747663 6.010412436552512 0.8074549478018352 -0.7053153036165917 0.03853877950514653
P 6.815899557908076 3.9542660667217326 1.657416236649832 0.0442276023598077 -0.42369466105146386 0.6388684848472674
Ni 5.227520966264077 2.8439537914199793 0.5523210553609764 0.598322187993789 -0.6918280677634343 0.028738505585273088
Ni 1.440963355893868 1.2291144317369096 6.823634313514302 -0.5373291932501842 -0.24803406485893412 2.1077613181564536
Ni 6.968559921977641 0.7450759037702611 9.407279621100576 -0.529242816697624 0.3578265976037451 -1.4841037367216698
Ni 2.842325992976017 1.782131823098914 8.922609869070659 0.3066703864449041 -1.0674040189308005 0.6356893157883375
Ni 6.536786384716734 1.8035735459357685 2.7241568692690685 -0.45757203052519907 0.9848908907272328 -1.060510891355393
Ni 4.096779820490601 6.972204381827178 10.199205372753001 -0.18479598283489465 -0.01147251941597379 0.7700363979440609
Ni 7.895256532800487 7.307883550946197 0.08111681379249916 1.5616258394685492 -0.3101089798128079 -0.20115488380889227
Ni 7.483559176348445 3.8961627055969803 8.344694396175786 0.8438329722102371 0.7246055193047715 -0.3173260663865374
Ni 3.223059005694027 8.34449273003523 12.375293357929708 0.12384746817598026 0.05733662893793996 0.05329691165092756
Ni 0.37392610222484257 4.677659695218421 10.346943455194516 -0.9044001922703329 -0.1449456836071762 -0.12727372024870987
Ni 8.731212423697142 2.4600465717362434 5.799353898973344 -0.03797699346440556 0.33460490807164306 -0.3448242718068061
Ni 3.7905095432591613 2.515066159142157 11.260690929395645 -1.5225633262494487 -0.48390295511024406 0.05623362568174832
Ni 1.2461430121256891 3.4861564508617207 12.55555123595171 -0.9023229980263299 -0.5818316465379335 0.4255322284808349
Ni 3.243261793048533 8.442061160101371 8.147136638024346 -0.5727222280374975 -0.25289884915040317 -0.19291424106665486
Ni 5.535364781991347 7.820287371131351 3.6954669137785676 0.9148488984074825 0.4111775024210596 0.42758114059006364
Ni 3.136170742085214 8.225048497547176 3.5890911897981232 -0.0003303867562252375 0.1042057826856528 0.23332529789384976
Ni 3.2698491676332444 4.202261159659335 9.258707744122763 -0.06997077276218272 -0.27649026331709803 0.46224526763115237
Ni 7.456591982126809 6.041085585231569 11.281008566973696 -0.5209900897705285 0.08184901225700743 0.12239813732396337
Ni 0.6305394835907545 -0.1882395163922281 0.15745603915197 -0.11961568948281981 -0.46133535422237315 1.3258114566042585
Ni 4.606136040255671 0.5028893382801966 1.5562811193264763 -0.17501884884347274 -0.8064313916333273 -0.2579533808551751
Ni 6.049667700361123 5.682671497845214 0.45245471649144225 -1.2531353690957707 -0.640171262819091 -1.2632678295440822
Ni 8.032072992015488 9.055442743760295 11.486150057209064 -1.013677218831306 -0.48377774238628946 -0.3808076318799506
Ni -0.045066504253555295 4.969668649415817 5.722837424449975 -0.30863985146644907 -0.9849682809323874 0.5581386737963678
Ni 8.081268678321894 8.822468613130587 2.7204509148116487 -0.5109530172495006 -0.11125986131895677 -0.4503189485072116
P 8.87558910235188 1.6374476714047632 3.6669180420688816 -0.8952786895850388 0.04862675986876787 -0.07521839431436722
P 1.8999573004676928 3.497180263657219 1.5997207294685387 0.23272648796758627 -2.5804699472127752 -1.5945393023671184
P 4.8058578660051126 1.0363469226730606 8.08341918093286 0.6430807231564022 0.2917615876538717 -0.2141960332635666
P 8.721364243111173 1.6484986141743272 12.60736948641783 -0.6629746338668518 1.2010630738805637 1.4113857402316532
P 6.334957464314831 7.672257189302389 1.3551892298866999 -0.6727818497652607 1.587226570755789 1.9425946795167126
P 1.8475964505202502 3.3100286592250385 6.073930940500845 -0.7580542858815202 0.09957548300249303 -0.6753123294965983
P 6.912446092284397 3.9622241924477692 6.009830046442561 0.5803558333233553 0.4028949506972932 0.09405095363983801
P 2.3644224564781675 8.426597074883732 10.28838792783533 0.19530613833759913 -0.313594367258247 -0.9271642254397258
