# total energy = -340861.6192214839 ev
CRYSTAL
PRIMVEC
9.28762467037493 0.00000000000000 0.00000000000000
0.00000000000000 9.28762467037493 0.00000000000000
0.00000000000000 0.00000000000000 13.59337751258203
PRIMCOORD
 96 1
Ni 0.7759949699991703 3.5157188554789074 7.372422633180068 -0.539462180432787 -1.1258053416878289 0.25253169561897154
Ni 7.324824485669265 1.985378368513344 2.1361991762585015 0.8620448672325735 -0.14601037742626466 1.237569396336714
Ni 5.6800697507797295 7.497778631690875 8.950776424477782 -0.9776028417062519 -0.20023108644304227 1.0719073061177928
Ni 3.924838720813024 9.088711581799226 4.2703327847973584 -1.3228706288083798 -0.7369403867210405 -0.35166597731898785
Ni 8.054980384264201 6.7944268178031875 11.736766612095133 -1.077490456632525 -1.4645813504180258 0.224084238911556
Ni 5.567383001038553 1.3117655287187282 4.770989621045437 -1.732007703760643 3.401263521105045 0.6716053129586562
Ni 5.076857105746353 8.505318727744807 11.157240196177797 -1.385220394690195 0.907869895986488 -2.5361204745631225
Ni 2.1060803383177062 4.1537043671595235 3.564686927623915 -0.6728615539632605 1.3940526482698443 0.5913604119639752
Ni 3.4057812426307814 2.328472510291042 4.27861084463782 2.416835171836528 1.84206480302075 0.4339996425218977
Ni 5.078584603929149 8.208402655670655 6.05284528337774 -0.8887758554695145 0.27271794075885936 0.4613155567280314
Ni 6.926831194652294 0.18696731407645942 7.948618506901969 -0.6642236757826044 2.4333761069143445 0.7306378415417804
Ni -0.06969433528869948 8.581514400280586 0.15409562419275816 0.21945573900060913 -0.515914217909518 -0.058169152141564325
Ni 6.975507635383648 5.266798317232121 2.6257507997261023 -0.1579616362508699 -0.9643539471161457 0.14407330830455187
Ni 2.999930621169482 3.3988526746503216 1.5283984446536145 -0.7275548317410825 -0.4678423021029556 0.08020402045441671
Ni 9.127199498301941 8.568753204027031 7.666243139962145 0.3610330203561846 0.07970728332365627 -0.02516492930140182
Ni 0.608810296403112 4.856396759697866 1.5779460645760763 -0.44684153148157246 0.3274502993047328 0.06025894479105752
Ni 1.5946387123391865 1.0322451775928354 8.199022154785581 1.0502797005456879 -0.8745450565821132 3.72099459738865
Ni 7.177801387638867 3.0303754547350947 4.371031997417384 1.5538109714098207 0.6712839250634954 0.7789496412732908
Ni 1.7579523039858405 6.4878423284801645 12.394591418766446 0.31256823998657784 -1.3397139256179638 0.6634050365360511
Ni 0.42188013282520737 2.443100373581704 2.99436269019859 -0.8364917013538173 0.9466215628333889 -3.1582883588262574
Ni 5.218549107234146 4.216674462209815 1.112010084277262 0.403814377187769 -0.6200176706893515 0.1294103069757384
Ni 2.3042039471101554 3.226957317837522 9.552120399433853 -0.4211263861036554 -0.889180804217417 -1.0395399455306806
Ni 3.7576057515688444 6.293378043795357 5.272599367581444 -1.9401073943184848 1.7806354920706753 1.9630568040258065
Ni 8.416547611448246 8.852090768879425 11.274632985323397 -1.7148134513695437 -0.023115502971540833 -0.386730939342921
P 5.876150082151668 2.099049606466221 6.908263375474633 -1.0134147091985386 -0.147226766331869 0.44807797499183477
P 1.053523125640065 5.411490221478209 9.362167114036058 -0.14933507092412346 -0.38975404243996103 -0.2102928415544185
P 9.255963126292684 6.252967588992435 13.388049618343201 -0.7827854700796131 -0.4648410533827865 1.9313142215068866
P 2.2915170518537105 6.731140943515181 3.319203863273879 -0.03917898419230672 -0.6408536335980963 1.0306195031125993
P 2.9006366261572905 0.27542729494762386 6.384714402017123 1.189822725080054 -2.530706245526087 -1.3908493108411983
P 5.564002305670071 3.2995493920134913 3.1817609500582846 -2.1999199398695852 0.10997019597325577 -1.2409020602543726
P 8.418934530980389 9.006116735887392 2.3142317954325446 1.2060042199359229 0.6362917252590267 -0.4187661134015949
P 2.6672664818610285 1.1593463207732528 1.6261079709024462 0.3112060695317286 -0.1714668698261563 0.6053780663993058
Ni 5.018800164129928 1.6749302273406268 1.4462809826482086 -0.45074420897008827 0.3838273925428809 1.5547514809462193
Ni 8.686668886439788 5.465934277110186 7.092032031625529 0.20041620587065484 0.7199070853878375 0.10327992843727375
Ni 4.511500818740262 0.4905565444535068 8.367675201837017 0.8836935558506006 -0.938163918984339 0.005746158455157845
Ni 4.271443584704145 5.4520307030260735 3.4542264215086314 0.5665443813615597 -3.506575649481 -3.3280588147865973
Ni 8.693597454420248 6.755158740830823 3.5932872389362847 0.8387046498447361 1.407698778298369 -0.21585927989860243
Ni 6.946353781642813 9.127738180530985 5.357910843700093 2.7045051059195293 -1.8747543228339711 3.665046107047488
Ni 4.461579836307324 5.6355727411357845 12.436213908584717 0.7988800616486307 0.8965012491382301 1.4503145560863668
Ni 2.7770554927149353 1.6687725322051778 11.159143230466263 -1.2909722374378862 -2.6458914100413784 1.0785960309918778
Ni 1.0173013895491898 1.2876269922827834 6.233800718025579 -0.6116872964467852 -0.3401176103597562 -3.143729487175476
Ni 3.0189702516787884 5.995561072131253 1.3383485679595752 0.10261092739470716 0.5426305508584397 -0.5292638997435466
Ni 3.3765066497696434 6.846205325163862 10.057032825291378 1.3871050133074174 1.82961577862412 -1.8756534376094731
Ni 5.992366129255545 6.405108168198749 0.8362391472180069 -2.1953819427899157 0.6329721739674906 -1.3029422653155691
Ni 8.773703216928915 3.49159889429224 9.29710916096699 0.08147131720261452 1.1962988197227011 0.4359071439572557
Ni 1.2954843227271116 5.575992629078615 5.546084620217118 -0.7859384138862981 0.9309072374219258 -1.4567397428864202
Ni 4.682290948221058 3.8653607726268793 8.690029149034064 0.7067450940845829 -0.30980738941198904 0.7298040327865755
Ni 6.732580525334178 5.574878114121972 4.9678761182360125 -0.30560594973613175 0.777832496949712 0.9742267261451674
Ni 4.5823189566102425 8.327999398143014 1.9017135882431326 -0.38240145872963177 -0.21714894524430345 0.018622243086877606
Ni 1.8201236633172044 1.0234497970599998 3.974921307914674 -0.8089575004892907 -2.577880332108728 -1.008518814558818
Ni 2.494358773962612 8.37792966820059 11.569215077325847 0.09823002471819212 2.7655613498009015 1.885962532844965
Ni 6.361010526414269 0.9625136918055812 12.24831318823207 -0.3108155189615292 0.8482964072982293 -1.7163036627618249
Ni 0.9493809905664793 7.619353638211275 9.871428934511878 -0.5111458499865971 -0.4887939646539582 -0.3075491895054316
Ni 7.370278120650995 4.6005505637759825 13.099516556267929 1.0676307902296258 0.44080895213424726 1.6725545427003325
Ni 4.529555961037867 4.074982460722021 6.068818140231352 0.16430789018387187 -0.0610780982582432 0.11348463688441747
Ni 6.564623121368181 -0.0409110577709478 3.319584655884065 -1.2897915868662237 -1.5778597848289082 -3.3759083301697084
P 8.516371001064842 7.341857989256615 5.628025617354389 0.6674334409691538 -0.07210144595194035 0.7225625207328137
P 0.3392332762153964 0.8132550625246506 12.428071448063983 0.055696779341671825 1.7756241548990128 -0.2191736889838161
P 2.265065896882733 3.794189705020629 5.923341431703295 2.368956345877378 -1.452284535328544 -0.9119672059843134
P 4.32809809500013 2.764303584086019 10.894167299524554 2.8681133989332155 1.3252352723858143 -2.364322189539476
P 6.075592533642809 7.838718044552398 12.713505229797326 1.9747617511675601 -0.8022386937082183 1.9429880583003891
P 7.818805377327056 7.671810142170573 9.444161979396231 0.5151120337231968 -0.057932353540409896 -0.7738118058260931
P 3.4849210921770246 7.689512354731908 13.484114306268523 -1.0898703183541165 -2.318579950307355 0.24127977685423607
P 8.767619822790575 4.72751239258682 3.9342768049708567 -0.0393101104535323 -1.065958030512893 -0.8290732974025593
Ni 1.4852119188461885 6.801745466018472 7.503040999811154 -2.9979389390695017 1.1052678838561092 0.41046427840411887
Ni 6.132897177663502 1.7120714382707318 9.857292241049333 -1.4999558732625782 -0.021282049307227862 -0.5612571648206915
Ni 4.380888953446421 0.19389588205691913 13.350341862310136 -0.3030443596565426 1.118699583880983 -0.722812946180723
Ni 3.5584512164415014 7.272107928220085 7.677838739323544 -0.3910020559144492 2.1875184808814394 0.7317225899655269
Ni 3.367646255864337 2.0790069124959367 7.240648886043927 0.680566378806686 3.4095489010422892 -0.8112342123386094
Ni 6.230352222997234 3.8053441422116903 11.31134882304505 -0.7389435331939984 -0.723418955195838 -0.7538003957011727
Ni 6.764985047698553 9.317809418761692 0.6471171042253723 0.3862987369015089 -1.156839328175498 1.6050039493438684
Ni 0.8947437523420174 0.7473482205636073 10.426814027705877 0.19817368969338128 0.10941046681504384 -2.000708295829993
Ni 9.038929913735869 2.7839190473229243 0.46528863286149785 -0.11557005865853645 0.20167733197126558 -0.10350875661862818
Ni 7.070297132446077 7.433229640452008 7.155975469737955 0.24855985545541706 -2.9329141974586843 -0.7864706322406841
Ni 1.5208113840862718 8.338930932342748 1.9688779745802543 0.33731973589964487 0.22493501694762552 0.8113689381442607
Ni 8.097694169977517 1.8844497515647434 6.2894930304089955 -1.8337028042093 -0.35363801344369417 1.3260310288142325
Ni 7.0727676405999675 5.421344391219855 8.914944768621732 -0.48759968723554087 0.3974197865153349 1.2565513367558552
Ni 1.317245227255553 8.163301950425195 5.4323214347803175 0.1754428237547688 0.0015578314054231234 -0.45509734373246136
Ni 6.905246754991988 4.015643826905457 6.977249993765865 -0.5258399616636621 -0.38720196544206864 0.009900289832847466
Ni 1.7570978425190813 1.9781061584212527 13.325071164430737 1.2268111293789452 0.4942878978889939 0.9725907332036412
Ni 8.770266795812601 0.6490916532235569 4.337402437363165 0.7752544518098907 0.12616197524176984 -1.101763984467909
Ni 2.569244891424337 4.939446699216996 7.931572929402589 2.3837137066922107 -0.6053940072389057 -0.4702033461359644
Ni 2.8324747489339743 5.029360193344114 10.828539086302673 -0.9578469992355634 -3.4345657348016005 1.0445505113713947
Ni 0.24736752338922582 3.117446935722776 5.0496954474905165 0.9519810273730894 1.3310973875935461 0.7937807927488524
Ni 0.8632076228813592 3.67635761122962 11.633294114757996 -0.25148679929422496 -0.06891482069384261 0.23146150521223363
Ni 7.9510147140587515 7.130025846497467 1.360140121649324 1.1479602805183133 -0.7401619789821317 0.47056998544676376
Ni 4.049385767217803 2.5709816772317713 13.020375777959222 0.8994829574743735 1.241317036304604 -0.05576285669291687
Ni 8.126550819729916 1.8566426033965175 10.884828592950356 0.8635034540559708 1.1899849616895313 0.7932863696109371
P 2.7232894336815825 4.501841689116028 13.211227176659579 -0.6609180084481391 -0.9233083420287453 -0.29429978069469315
P 3.073906551416616 8.9322708323852 9.643508768353595 -0.9009022064194032 0.7884917764357711 -0.44274062193932145
P 8.693430277176752 1.459912429330408 8.393679622062873 0.5212662262500506 0.25197248068139183 1.088591451641693
P 5.130186646421688 5.485521877473174 10.366404530768472 -0.046399927420778156 0.3519999636196389 -1.5943171590539833
P 8.227154369816162 4.767244850791118 11.045461776126285 -0.12235314301864089 -1.2171959748866843 -0.38280537903626977
P 5.396017038830158 7.137827451193962 3.602829344490071 1.3506927932269706 1.821978573793836 0.41818375853556367
P 5.100094742592345 6.2104767062704465 6.955635833706715 2.4470669741378757 -2.2436117243305813 -0.10262635401367487
P 6.962449235141655 2.364805697877581 13.71585354367823 -0.9357141718922659 1.198364444002478 -0.9751623505855593
