# total energy = -381167.37030719046 ev
CRYSTAL
PRIMVEC
9.23647047759090 0.00000000000000 0.00000000000000
0.00000000000000 9.23647047759090 0.00000000000000
0.00000000000000 0.00000000000000 13.51850818069268
PRIMCOORD
 96 1
Ni 0.00375462532552008 2.1902904712600346 5.421503477108351 -0.5502338171269944 -0.3145328199121164 -0.26360980781000404
Ni 0.956159443291116 7.953312451224732 1.0836264330630898 1.0100905299213119 -1.9286621285960202 0.41607571105362534
Ni 7.396695019510546 6.176113894007895 1.4372336287264245 1.058789537788912 -1.70811598474471 -1.2887819146547868
Ni 2.6943616213582704 1.0699065795365768 11.498018660636177 -0.35885375331667874 -0.6756789688073976 0.3043841615138887
Ni 0.28410460119968545 2.0051084708877047 11.293807683398814 -0.21448656792079188 0.6616782836529315 -0.18944942244650598
Ni 2.383914605820619 3.49514515511458 11.44786462492259 -0.5738918228655665 0.00336660247938775 0.34816850568869073
Ni 8.762732085053273 8.190283342618443 9.290879019588164 -0.2759194784152925 1.4951599945358314 -4.002497740539306
Ni 5.904293798793307 7.882376356513799 9.582581541557278 1.234090179538862 -1.2847306274035486 2.023551004756121
Ni 4.946481027253069 8.750798564953463 7.864648798365532 -1.1469747766765923 -0.46836629292722565 -2.7519051924700477
Ni 1.0551374629424646 7.923958947449817 10.89037527037758 0.9787469826130241 -0.5781171738008237 1.2801810603596533
Ni 3.6664262671353534 6.743741198755341 10.528389672173583 -0.3582755122157056 -0.20329841251445635 -0.08502663865404067
Ni 3.64783325168573 4.906154596327556 13.36896647146063 1.1475810428020234 -0.42539081780696414 -1.7283037725464945
Ni 7.221202076866311 8.305600678877035 7.391906833117559 -0.5792911395042668 1.2456107785839514 -0.4188406753932722
Ni 4.584577633637995 8.693560156239446 11.767158332063643 0.7874810757830696 0.17129691990719528 0.4447530243836598
Ni 5.384954762685023 3.218466676329945 7.453497466809153 -0.45794946846927587 0.27681910741142646 -3.328337779479597
Ni 7.848995751528732 0.18195570116887555 4.9033928915985765 1.4754247208904334 -1.5869062113018926 0.8532972029469305
Ni 8.270280415052218 3.093681957639229 13.123714160468246 0.4789245280590462 0.47847149968202757 0.1694971476942952
Ni 0.6764015251866082 5.89466939635987 2.972787640392815 -1.9408545568971542 -0.8248183787809472 -1.3404896274417237
Ni 8.903107966227328 6.869846732751222 12.72802745174709 -0.8241408930979485 0.03677140319207861 0.7063812829872608
Ni 9.189300009797414 0.28659567733816704 7.049375089429208 -0.7047830852622056 0.2758351462316023 -0.5583335634159934
Ni 9.170734703759786 4.655070377756984 11.406984929404214 0.47321050839340445 -1.261585042525021 0.7128555778576949
Ni 8.82741508912367 1.1861106169790567 0.8940183159478589 -0.48476761710338445 1.8893728440780944 1.454275597616644
Ni 7.752474633074404 3.5823189652554372 1.9091646318499687 1.6949766191492743 1.1300839144585249 -0.08768104555775222
Ni 5.580851069029316 -0.09295676442451815 5.285966582915942 1.1409432257705319 0.8415480328308023 0.4430432407814047
P 1.9024820453234892 0.797959021026804 5.56158194392698 -0.4088072024166701 1.6451632951715731 -0.7642341894399871
Ni 1.8836673545778944 0.710041674997375 1.492226651421662 1.2803497247270335 0.9151869984731915 -0.14960657941795524
P 9.00510631178629 2.259416217720532 3.254364219571357 -1.1129315710489542 -0.8355954147917931 0.4779449377545963
Ni 6.767756022485604 0.9503312303011943 3.1076216391675806 0.004533111983663161 1.2747411202910044 -1.0299996101404134
P 8.216182406364466 7.2529108806609255 3.5318859881277507 0.2220738933497466 0.48976866986240164 -0.7302560327223295
P 6.1674777939356655 1.172893227456746 7.774115683843637 1.6185235810968575 0.9245159891836013 -0.8115229472236218
P 2.4540563640543196 7.875938536459956 12.8609411882705 0.8540294531272647 0.5817951368730431 -0.21590813085866686
Ni 0.9506360338331553 3.551607700292696 2.1817790635417893 1.3179749912789753 0.7746389297130788 -1.1862764024896926
Ni 1.752426342892003 6.002625265498071 12.0564408987184 1.233271026071676 -1.0664889633156986 0.14419440726344845
Ni 1.5845073061934667 2.389382596454586 13.431138079157083 -0.8146059570243196 0.5897370174279392 -0.6257805413150578
Ni 8.547817885608742 4.566714299370944 9.02441515371249 -0.7929914640783375 -1.0407231672055044 0.3116752958586632
Ni 1.1503285296209638 8.074079305175962 5.168301335814182 -0.2212531972206641 1.987719082659177 0.5188162220476614
Ni 2.208255406704405 7.458117549436028 3.240291532865422 1.032486638228325 0.14164258737587218 -0.0787498045063934
Ni 6.1160583617409054 8.067641485122119 2.6768132507409135 -0.0762540346677332 -0.9154729051447266 -0.12361606889146455
Ni 5.56864969128021 6.339525533021675 12.030269359087745 -0.6932239196696964 0.5291384299092758 -1.2979988052673646
Ni 1.3116804356763396 0.5385019417979681 9.709276362381615 -0.2930062586942503 3.3264207649625424 0.21766882230351545
Ni 0.11271449882505938 9.282375924693516 2.882511299755421 0.2672898277647526 -0.2598233441843783 1.9626685674484523
Ni 7.121485139561724 0.5823908794591581 12.936914854082389 -1.3646423134285273 0.9076672930573788 0.21784982796606997
Ni 7.983922115010153 8.28466159987838 1.2792317905814206 -0.7526907075767618 1.7549265173403454 -0.2210408240995419
Ni 2.380423219909065 4.835320102793944 9.535941982931904 1.206154115250226 -0.046394013883507196 0.3401304658755626
Ni 2.5421630577323913 6.546810407696513 7.131418963762454 0.5810706000021928 -0.3519511126595745 -0.0032948687011878737
Ni 7.965957179565783 1.311421814497706 9.525911175789188 -0.36740138577637366 -0.9265371333786881 0.28621134725960384
Ni 2.436396232141911 1.8766384004014594 3.5434712932834698 0.006422358586576036 -0.8128288105192388 -0.13574524805483076
Ni 8.199704542697239 6.451517739840693 10.440492646379617 -2.703054489515932 -1.598405984411376 0.6289370846661684
Ni 4.14770180763117 3.1363821615257708 4.822592246216904 1.7195422243037806 -0.33932468214481565 0.04504007095877404
Ni 3.6730580530731722 8.862883136479136 9.561600898440627 -1.8670034752439588 0.5636542042979583 1.286035462257901
Ni 1.2815048860121967 4.331627647992994 7.446656936634294 -1.3444879499678393 0.4276752429657667 -0.2443764135016888
Ni 2.323240230019041 5.948324054455679 1.300715821349341 -0.10483287474669042 0.44582157485749024 -0.3697624298093825
Ni 8.308676423608642 2.6499896162812755 7.747038046440698 0.007694797541096425 0.11639306878046407 -1.4738131534289391
Ni 6.918356676686354 3.412044628537202 11.124840307279745 1.288413989792407 -0.3609795414104299 -0.6234480365271392
Ni 0.8072518341633496 6.274620853655304 9.164197129822757 1.4277574967214572 1.055532464304195 -0.4838595034668184
Ni 5.533578812163358 4.699100633419356 1.383065422861615 -1.6411462035923798 0.44963966305199976 2.189106651304165
P 6.191141631780642 1.2227794055210364 10.835274180975556 0.3293837688820198 -1.7914096998680435 2.534213230238081
Ni 0.8123632970296294 5.957846855711795 5.156147987712535 0.4272803215201932 -2.428916528481094 1.3272150218200045
P 1.2660337976475076 3.023124558225581 9.380912441047053 -0.9172209981840849 -1.2170651057357749 0.7554674989909506
Ni 3.231730248205583 4.242283267245747 2.7230741140690005 0.58946268072063 0.532279803751735 0.9928870215588319
P 6.7251666562470485 7.606833963621019 13.18825122830213 0.1899297045170342 0.6685102189731003 0.06286064407996271
P 4.657564224836665 1.6181742417691631 3.1831353287403283 0.22963859307088194 0.4111872726130725 -0.27511163780201653
P 3.3471491856414968 8.479523421508137 6.260597120243897 0.8258596755612682 -2.0198141634215085 0.052751066449786575
Ni 4.2717476086686474 0.6476631703580149 0.3386939901268411 -0.07445092002072339 0.3191554062857923 0.16418833388687207
Ni 3.3668782869829754 5.45928064213019 5.175155720695039 0.24931138890946095 -0.04475133607376164 -0.4345215764636388
Ni 0.823622554770857 0.16045135016549095 12.86114439062514 -0.008047810005140979 -0.3020123188476025 -1.8280936855526386
Ni 6.039875951691977 2.407024255425665 1.108004250090507 -1.0361327196213446 -1.3665917238454142 -0.7310178505890184
Ni 8.380037395970188 4.424869819361075 4.483535262792909 0.16097908292095503 -0.9299147916016695 -0.16859366204341933
Ni 6.250033368743781 4.475042328015995 5.595473325739848 -0.3871672555493913 1.1414471619901438 0.7627992567656734
Ni 6.182902699947028 3.369492208181308 3.4734588456390854 -1.1482901530539062 -0.8751163557045509 0.5368219145964626
Ni 6.892642342353641 6.020497836235787 7.821538495181443 -0.13878943419779322 -0.4569529088839614 1.9802253453852927
Ni 4.485026952805386 2.3865285270189514 12.021157580776244 1.384952228630473 -0.18594526594798944 0.46566509194597866
Ni 4.602099218490421 7.490454433235896 4.3574343470323615 -1.9628212909762324 -1.243300128172904 0.38157587750454286
Ni 3.5695726357370665 2.8441494661404576 0.852097670185484 0.6263340998256827 -0.42864840551231337 0.5247284737670382
Ni 0.006086834168555307 6.995379605565843 7.078412705907364 -0.4230778534030713 -0.16844659494259376 0.5299287870210551
Ni 6.733248568079349 2.170302748739923 5.639800072110581 -0.39052743027087583 -0.4872957828418769 0.4640910625906394
Ni 1.9422819974210688 3.476265809074327 5.150119343309173 -0.8186508165176546 1.059469337464756 0.3176813928434271
Ni 1.6676263057121754 8.46674938257777 8.106116927326267 1.563072856327721 -1.2084647656612737 -1.2443352543056374
Ni 6.3184940893163635 4.4932658846389995 12.930466873910813 0.21268525304599503 -0.6575732603456222 0.1940810076812464
Ni 7.88534126359742 8.563344392797424 11.19640725293713 -1.1092392097990316 1.2962278294098708 1.4861022552089374
Ni 5.6189607469951115 2.597701955843959 9.434823873027362 0.15300609201780746 -0.05126008372655689 1.1748841014923508
Ni 4.394343283811644 7.454459907052496 0.5937074033185117 0.049836463906152886 -0.48575852026174404 -0.2826596253526035
Ni 4.132997346331716 1.288810934308596 6.403447451909237 -1.1520935859603965 0.9357756212578207 0.5705108222084755
Ni 5.286669478333586 6.73060693746902 6.46617324784562 -2.6620181403999124 0.4245528952867011 0.09054191204531503
Ni 7.230715641651762 6.780724027299947 5.402847653658202 1.690457391122682 0.5958235899416513 0.05711165741132744
Ni 4.433856905318593 5.155945709004961 8.368429923284872 0.7617695299495784 1.8770384908824578 1.2798607009057572
Ni 3.7685539232836325 8.942501513615627 2.5087916892179902 0.7398015103189194 0.9024685224652585 0.02888582979641477
Ni 4.456301529035724 4.449937600747204 10.853861654542781 0.29030120105826135 0.25513545179040575 0.20966806348622602
P 0.31767085924512833 5.145065146561019 0.46491682730017386 -0.5651055920325042 -0.436611626223448 0.12484325643034629
Ni 3.4463581170594826 2.0174022133434666 9.034905937094349 -1.0349862647217272 0.37750222165580144 0.20940709651535547
P 8.319169054284634 4.963494606218894 6.7367861363442305 0.8940039366376732 -1.173769014051301 -1.257722217135505
Ni 1.612281373484583 1.8938089993685978 7.383417592928911 0.3395928482045377 0.6322820898790014 0.5463679064136848
P 4.328413356201404 6.3883956993127615 2.5917416613235207 -0.30796905065166963 -1.0633373050605948 -0.757431821806173
P 3.352432446862155 3.9907926439658925 7.061569078001782 -0.3274215029493264 -0.6731356335602535 -2.1904209992402146
P 6.180418089338012 5.196429159931786 9.813152482426872 1.3400538254558858 0.491888801529198 0.48783957116048887
Ni 6.484630487176461 5.687005826387748 3.492898845448734 -1.1027942255046361 0.18228247238442155 -0.3134920373524278
