# total energy = -381166.005994119 ev
CRYSTAL
PRIMVEC
9.26172754702246 0.00000000000000 0.00000000000000
0.00000000000000 9.26172754702246 0.00000000000000
0.00000000000000 0.00000000000000 13.55547445483145
PRIMCOORD
 96 1
Ni -0.00031489874399176097 0.6355054908047608 8.352748459439152 -0.5554251315199467 -1.4713016998609951 0.43507822029805715
Ni 0.8562810002173844 8.740681483890366 10.421259033663338 -1.0054610015691008 1.3188424814855932 -0.7107665565391501
Ni 8.923137520850299 3.7709402444846307 1.5807176010165243 -3.362161670007578 0.65861609978784 -1.0898641477065294
Ni 6.467056981903266 2.832856886133175 10.718246522331404 -0.05720190313228858 -0.7159385876583928 0.2561081001163202
Ni 7.435027935750646 4.433653912943056 7.902001471116569 0.3108749114445549 -0.4155020979383425 -2.08667955778549
Ni 7.5130302069829575 3.648741008360299 13.111926170465361 0.14167086951064634 -0.31657787536660315 -1.3626170554683823
Ni 3.957221375011286 2.988731764409097 1.704980350086779 0.1753608055639238 0.5170257058061419 1.1490766535109433
Ni 2.656254261120384 1.5770592185495613 0.23656305055992818 1.4250246711713264 -0.4303260503250524 -1.0212851130855507
Ni 3.989415140720562 3.5723132308479455 10.183604951572756 -0.9865489951559461 -0.22511705105144456 2.3964116138748532
Ni 4.1919783886571444 7.188684500671445 4.61729267253851 -1.1143382215884938 0.8493155925913631 -0.11206333105685862
Ni 6.989900037662763 4.954792810793892 5.578240458222098 1.009530543652784 0.16929197366202456 0.08435686628052567
Ni 8.670070071414097 4.146595922611273 11.208439209202837 -1.680349870375035 0.864201251453944 -0.42567132516186046
Ni 1.5526453041624355 7.5318963464391695 2.97271545858601 0.24737997621470295 2.3707257790729757 0.1683848884667229
Ni 8.402026408182756 5.7378811550070505 3.7446452731885427 0.4996789869975781 -0.5154074534764286 -0.16247752184335243
Ni 6.429760004195771 7.1222501274169465 8.892188531352568 0.9310483909854803 -0.9529739874139782 1.540823043790585
Ni 2.534082810179345 6.4314734238321964 0.7092371793648787 -1.8210987422920444 1.3213418508686792 -0.2802713276260851
Ni 3.2447537050021626 5.474866609951814 12.174957924136748 0.8460117250291108 0.711432215147607 -0.7725285682382953
Ni 8.71981481123703 8.092555036660972 3.718293805353091 -1.17037207255461 0.6494773707113654 1.3225687812972446
Ni 6.304069096704236 3.12325836018793 1.2296221725756868 -0.09330224839927158 -1.1593083585412807 2.590493135776732
Ni 3.784925453408971 7.656633295970965 2.3194367122012434 1.030526686288477 -0.38581176996276134 -0.5074136366376745
Ni 5.583015805057455 4.830694920477845 11.659985484631493 -0.4440004624883514 0.41726458915540393 1.7181738832013442
Ni 7.75773431624785 8.888952483671664 10.463159090069771 -0.7102667340845962 0.23452214641542835 -0.299178191832917
Ni 8.064529048445705 1.4298811026444709 0.6742630429807115 2.063427529236085 1.1788130042331117 -0.8724840602880265
Ni 0.25051769578264543 6.404864479964893 1.5033025233244792 -0.0027585365817436366 -2.294879264256306 -0.4996987844919201
P 2.9764136664823604 0.27429532947235274 7.228457138210381 -0.366956070708839 0.4924932678824164 0.6437828914297493
Ni 4.684239219338382 1.942165788752479 8.764549882512165 0.8287233702623081 -0.4877837782218889 -0.5885075158962123
P 0.9598762037812386 3.6253458840272637 3.017841374772806 1.5800279961248207 -2.216295038793499 3.270739155129522
Ni 0.6548847299791244 2.8458881370977753 13.267895518364481 -0.4978280498317684 -0.9300076084257919 -1.0913553875400752
P 7.437945379996452 5.813632826392597 1.7411872224363965 -0.7408484635261952 -1.0969783901538077 1.6050538287451972
P 6.225492598350528 0.6529471765307987 1.0907777593130608 -1.6481853698273483 -0.3975375430401218 0.6126594305520674
P 2.8969295188077337 3.3780021823495003 12.653249290830846 -0.9736294588808007 -0.04458421436827805 -0.8534499264747109
Ni 1.0704982801999914 7.581159476418352 8.076677656754352 -0.563471655973507 -0.008341944206792086 -0.1247920914774367
Ni 4.398338944977157 9.242750484274172 13.161525501162394 1.0496230407982956 0.19099671232896784 0.1854780965035838
Ni 7.732514631545215 6.0375073099152115 13.182319932339167 -0.19530228168285718 -0.6349249268184871 -0.4025085138921519
Ni 6.370596087236378 7.651946861722147 1.1034413196854118 -1.5098420220280384 -0.22941053622047589 0.2651923218057755
Ni 1.3985857245283484 3.3072981525955853 10.950180561354651 1.8758357288236083 -0.8859710390308678 -0.4360871211785458
Ni 5.36116963991526 6.604288002189322 6.980351196337601 -1.0113413716092776 -1.070576760231827 -0.5509038466108255
Ni 2.9299846251991046 7.6049528550452585 6.352583879080049 -1.2599613908786689 2.055782353986001 0.6146726043273544
Ni 1.2167316998731064 1.7492347376909387 6.759789632836336 0.8568640943625824 -0.17158874011600125 -0.5103971447460307
Ni 6.5348898760501966 7.520708179299698 5.2882891041366955 2.4448920779737446 0.016037255968520767 -0.8369722405346618
Ni 8.226359217674178 2.5428073577334698 6.548825997817386 -0.4427884444581213 -0.6578347415371251 -0.5164045272823752
Ni 3.8250935667234494 0.7188832688315675 2.2921627762804513 0.21181416329495137 0.4912105445152507 -0.6320851433768468
Ni 4.665817642814865 5.422963887559761 1.4554916322587654 0.6799660262185258 -1.0091042547486426 -0.7346873290208056
Ni 2.6928566092455437 1.155104163328366 11.167895069741121 0.4904770087833359 0.5239386308758912 0.20535323816095602
Ni 4.9095492706644865 2.9156289471641856 13.078756218649714 -0.23524951149975612 -0.31928190456132755 -1.6297757569719094
Ni 1.2469341941130223 1.326751763987169 4.517714280306104 -1.2137985191693612 0.7784469906052593 -0.6612702495812354
Ni 7.205892790857817 2.025734358371234 8.616632680731472 -0.5886137024567734 -0.39428406909983066 0.44243928864881865
Ni -0.006502659063429864 8.904086146838798 6.081189322743526 -0.03991303414485384 0.35714319838347525 -0.3570200425420496
Ni 1.5047992185312167 6.514384410779675 10.388034437653877 0.07244777354776555 -1.002568510512654 0.2921968754190774
Ni 6.62142219855358 3.963741631357469 3.380843680427638 -1.3047775187520947 0.811723493270202 -0.45105736933513285
Ni 2.0170098108171093 5.404792377685883 3.301815209759023 -0.5335771824069198 -0.2562510534520877 -0.4308695815333483
Ni 1.034646132023753 5.040426745704122 12.772198586682627 -1.1804543964912768 1.9305315777045915 -0.7725182838256501
Ni 4.809763415730157 4.32783867323406 5.5809106143365925 0.48687797857816795 -0.0005895539548828556 -0.5914771400474975
Ni 6.733915143980754 4.980281085601695 9.836354066326946 -0.12103673820006253 0.6634934824847992 1.0297198741164653
Ni 0.8842727200399227 3.9810795857325445 5.857822381902406 -0.9132180476722789 0.38563693494779394 -0.41295876269119847
Ni 7.921351998934862 1.0217538069756198 2.9156604370385852 -0.42945676034622166 -0.43884205821586353 0.13910028056999268
P 5.630185784561868 8.934233070712127 8.584803827096117 -0.7181201686907438 2.2803332481213308 0.11679416087362467
Ni 6.888724923563763 0.8096704290699451 5.037688978976947 0.8953923323447676 0.5220912932545073 0.1956396104176179
P 0.4897360836926453 5.663120488492301 7.1795218733940604 0.5622863774161542 -0.222552632758378 -0.19772760329489816
Ni 6.562702844526881 1.2049785673400022 12.437378792442283 -0.10347764627037664 0.035366295314435865 -0.8180224389050363
P 4.360106532765451 7.118749194321979 13.64832932184481 1.170883979194022 0.8023299678704441 -1.4780081653468933
P 3.947783674419298 6.359778389207484 10.216666541173561 0.15866200475200415 -0.3469996821915701 -0.24180890988482873
P 5.880419145302144 3.2091053148367426 7.141701608067873 0.23628463763248983 -1.029657396309646 -0.08195108505251048
Ni 3.020823651112963 3.5206050047389454 6.893039962529227 -0.7698978154836676 0.31974084647561707 2.3161944807943144
Ni 2.989092971791911 8.292358289723744 9.419685605313708 1.1163804488295033 0.3586110411782533 -0.6799092048386614
Ni 5.80600116271468 6.40276206776236 3.4225409049960285 3.3536942559665146 -0.7307501987499286 -1.7245826149411656
Ni 5.877686935611627 7.316144398165991 11.65662347745299 -0.7421211595910316 -0.15550983227626766 -0.19002200712052436
Ni 8.37547303468204 2.8598918694776443 4.196246192811009 1.2108533204981082 0.4243472070337982 0.26384892040400365
Ni 7.868439748216483 6.745872034524677 7.030980431162041 0.9293679179592639 0.26958865110125824 0.22082305166178098
Ni 1.2775719895578677 1.5577022075218325 1.9728091412339832 -1.266524131697851 0.038006046930128094 1.2092903468863625
Ni 2.530331810434737 8.176595954395713 11.78259501529579 2.3308921920158054 -0.7795703055764251 1.5516291332671535
Ni 3.1161916619036445 6.058420291207369 7.879390815125185 -0.3629060690091815 0.826775245397002 0.8334315743712549
Ni 8.671005505918307 8.449251958053756 1.4453796778855241 -1.2918700666618075 1.467968521722704 0.4542830753612821
Ni 5.561000678161324 8.896435959705352 3.5992361472864647 0.15712191395839392 -0.09966650005440254 -1.0800967839071205
Ni 0.7555930529987953 0.5284482534025501 12.832384998387218 -0.8187508324306286 1.677390530636395 -1.3724425261992363
Ni 4.987579327080092 8.825315152202034 6.18056488313789 -0.2476885085940573 0.7691018019449335 1.230121938919733
Ni 5.014040083303165 0.36213077707219576 10.601344068315568 0.18795355462726984 -0.3029320024483944 0.22091201183116146
Ni 0.9391206718610758 6.833886233470374 5.256731619124839 -1.6554693050832714 0.003992408988844737 0.3994008215011057
Ni 2.2914811131169865 1.6181627663682505 8.788027436222304 0.39380892923562505 0.03453865720681794 1.198278312046575
Ni 4.411675832957984 1.7440666935983682 6.3420783012768185 0.1989974711462573 0.864357317415834 -1.2722224676342089
Ni 7.675443865060591 8.428866895244171 12.856432148354871 -0.7457438439452835 1.0507643534915903 -0.5311130371371434
Ni 2.9529074014161516 3.2879040946567986 4.6735484069798625 -0.4962007986409906 -0.9688829453347507 -2.671944912595321
Ni 4.734845299843411 4.614248342622331 8.34583457966298 1.3638573556333866 -0.04838481906129086 -0.09849690522633359
Ni 0.2188370297915214 2.798579231676895 8.789369460575376 -0.3887906500854272 1.6867421470546242 0.6033800621326705
Ni 5.161922090518355 1.9463613514297813 3.884253778991737 -0.041158990736812985 1.1036519455192413 0.06309872823269777
Ni 2.0085445916403897 4.265173823179699 1.0985705770540803 0.722335235213356 -1.3229176799962312 0.992502898746536
Ni 2.7638199673768638 5.529195905018158 5.466326370780202 0.6091452467512218 -0.9518126201160254 0.9758835450223
Ni 2.0883251146034785 4.433292705560242 8.980787145320202 -0.8571348315254657 -0.6568443525993978 0.10619967318723002
P 8.695502775855314 1.8993395595695997 11.291222384307165 -0.5309780542211759 -0.273353003239697 0.18163686838062268
Ni 0.5082160091010794 7.612482639717768 12.803023469028314 0.6469870001893437 -3.2860001950536506 -0.6327124925482006
P 8.450428197479843 6.550431055238968 11.223729395569189 0.03272114438210494 0.5066266219600049 -1.429696365615383
Ni 8.959925103530749 5.394447027772977 9.20807179700569 1.3300895151543224 1.0696213382970932 0.37971696991893317
P 2.684187632058006 9.24770550862816 3.943125025353773 0.81255113137782 -1.2494664048846158 -0.19582858649997242
P 1.3984097517008238 8.650777892480718 0.945196365274564 2.09403008461329 -0.08389998124876519 1.0358982350130352
P 4.101898824419972 5.22165097287138 3.496906095735236 -0.08828654035223504 -1.6341695151642308 1.2091759327956855
Ni 7.199724480166685 9.35388195571997 7.167633519635595 0.126274332449918 -0.7909790616339991 0.7586800923909773
