# total energy = -381169.8500233222 ev
CRYSTAL
PRIMVEC
9.19153623202030 0.00000000000000 0.00000000000000

0.00000000000000 9.19153623202030 0.00000000000000

0.00000000000000 0.00000000000000 13.45274237027822

PRIMCOORD
 96 1
Ni 6.927642384554173 2.2383780232147883 7.962664499983837 -0.41915666397179424 1.2261431567776433 0.5592655883119594
Ni 8.671800702561978 4.497023383556572 7.481029846021426 2.0762421645022497 -0.7662437636708481 0.1343589092302654
Ni 8.96995575096355 8.34275290128792 7.7305506385471 -1.112011116117214 0.8685746979312913 -0.8796456110334723
Ni 6.901979615729425 8.572835433243903 6.492831253853593 -0.28266013957323577 -0.20952768125361979 0.03460370611679847
Ni 5.53753284604511 8.410880566950182 10.965222239783573 -0.05056151499763551 1.8449544658637196 0.8109609040725645
Ni 1.0771836915754816 7.367916964319736 9.199213802130286 1.8175254231184892 0.8756853408341434 0.259538723064424
Ni 1.4756551651035954 2.4123646102791376 3.8775910585100397 0.23703899930001113 -1.4692756705699017 0.24787517068356665
Ni 3.1450219537679263 1.0216484303866813 1.3264416061683515 -0.26399804438735824 2.230772406474068 0.5268162095340024
Ni 1.9476773106000609 4.65896905831418 5.002469630970772 0.12153321822050682 -0.26106004480495687 -0.7336946260902333
Ni 7.101757653124091 0.1847848036887456 8.794434177368494 1.1495463940585104 -0.63982133567884 1.46732060372606
Ni 2.121029681672681 8.97725383063649 7.420424533513238 0.05370803104641718 0.382242050333632 0.38066390721323473
Ni 6.117509583177203 3.3871453980306496 3.9638508674604758 -0.24671380338561383 -0.24410619055943764 -0.5726762052909106
Ni 6.826296507383086 4.15842557626213 6.136980014123286 -3.0489246860887493 2.3071259428341424 1.5837887487188336
Ni 0.34753933362421147 4.432985951464157 13.198902468891509 0.7958502736833714 0.7391170826573852 1.080170060347217
Ni 8.768596769357616 3.9909649798373112 5.0237921564434265 1.5169521507102584 1.213637825221781 -0.4822083410166405
Ni 0.11188581163073616 8.101668100605854 2.2754778204237183 -1.54741483807549 -3.528042303995208 3.281331843043704
Ni 5.889908765971463 4.1254739193005525 10.821870123426962 0.3352024324463259 0.40971840137702986 -1.5961986923474123
Ni 4.081087991415627 4.036931851933503 6.017546113037362 0.1359401376744562 -0.26703528855178527 2.087277082160173
Ni 2.4823673493082508 5.425772958459108 2.4014082992336148 -0.7752935325779421 0.4719894915021097 -0.1132666073363404
Ni 8.508439531243118 7.131712869313151 13.285874621890626 0.14567407713276848 1.0434691053817577 0.3055681545196608
Ni 5.398464904670309 6.459967835638691 9.746767395627241 -0.6403018748596844 -1.1470868767744247 -0.4981723205450646
Ni 3.362815401942144 5.0413093859657065 10.030109364430688 1.1990815246741606 -0.3891529185208524 -0.27346664599942583
Ni 5.147820906431747 8.403132102007751 8.476008115225483 -1.037049575008659 -0.34475819445556105 -0.1938598928093758
Ni 1.3047477426367715 2.4030811588060015 6.287179824883349 -1.1474969677286497 1.33236828388617 -0.6809121921818789
P 3.4535266718316286 2.8040986878371443 9.854174171710591 -0.22744492785367282 -0.8343443159935114 -0.08020222068220383
Ni 3.016754067324744 3.620674756028638 13.026196262807565 1.0176889110938603 -0.054477305112273916 1.0653347951065977
P 8.501113876961842 2.7222296756874185 12.011845912093824 0.6194869949968621 -1.5359675154704968 0.7999969488618932
Ni 4.849886454896863 6.1504796232110035 2.108381208828936 1.4256093400302028 1.323430872187224 0.8295201551319907
P 1.6013861875798612 0.07676127553227854 3.6166755186663004 -0.10880831445467067 -0.16507459314656733 0.46870979230957344
P 2.45172276791079 3.355397832299747 1.9627284509834868 -0.00937655611889353 -1.2518109938573925 -0.33282904711814293
P 1.8209260276153614 4.574912460569794 7.108402214579467 0.08972070169560033 -0.37949919748117217 1.128172813478741
Ni 3.8002314139768694 5.737402798800896 7.678112005874437 -1.2373518810092692 0.8821508939538292 0.7270143858565802
Ni 8.17360106221849 2.152161414484079 3.7342793849123215 -0.6579954354847055 0.03801890244593452 -1.3388988859158362
Ni 3.811693259508553 8.730249680698288 13.255834843569337 0.8920892361134636 -1.0479898760702469 -0.2562654516297909
Ni 1.675194222559349 3.006863974468215 11.07164735981016 -0.6178643717917747 -0.12326717019247804 -0.024921960052660307
Ni 0.6443294389131494 6.345919255560798 4.121799143162969 -0.90262715953031 0.06326302172470395 -0.7180399502721118
Ni 3.1038990212027673 0.4011949256781044 9.629782119761558 -0.325917150489658 -0.43808229723170355 -2.0599526833136075
Ni 1.0674314717606326 5.044838935832721 9.539675652948244 0.1386094569765032 -0.8136981004980696 -0.6421211874566103
Ni 0.49289612400685356 8.414079221517163 5.381716087566994 -0.0794566007654309 0.8579537278823353 -0.29375702081734567
Ni 1.6888068875412448 2.161895251226704 8.503074431614536 0.5920777497459738 0.026076128261761543 0.95644060580634
Ni 8.857120453652442 3.0416447471160835 9.564832887286832 -0.7866873762371805 -0.7723092531386377 0.2325717075572769
Ni 6.608870720653349 5.606616431463021 4.243828734046925 0.7828194086413421 -0.3793205058114628 -0.4325847644522421
Ni 8.017473629819788 8.537595083790432 11.357948084088065 -0.32591972159281934 -0.46214242350470086 -0.436617539760719
Ni 4.212903810798047 5.380477068499094 4.010679905643975 -0.9399444079235295 -1.1434541651178436 1.57550799676728
Ni 1.2090638517106858 0.6012772029180781 12.081329329332608 -3.5380960886867836 1.1451158690909826 0.5084914430828856
Ni 5.2998581052606015 3.9904962114955986 1.545814160246613 -0.8912649404399553 -0.7249868139035901 -0.0957620227936738
Ni 3.714566297412881 2.875930542552548 4.2033363408590505 0.3562466547111348 -0.28105602831090953 -2.6298137877532257
Ni 0.22938489436508042 3.8882311807133094 2.742745184289438 0.5256453291543528 0.47024448378654493 -0.997185906044502
Ni 2.8671066678850132 8.030488844954403 2.193657523415386 -0.7370283184491565 -1.6936625283235414 -0.5582505167838837
Ni 6.738976914318934 6.407052162241816 11.574456555513823 1.220612456767401 -0.8091138235614969 -2.440900697426164
Ni 4.281601351699255 1.4538344583736698 7.788693538530879 -0.10859542711291621 0.4172913286282813 -1.9684319522947906
Ni 1.147967711174116 2.3364976712105583 0.27563210831268853 -0.03799447696590231 -0.9617579042541953 0.6332367404827869
Ni 0.2572435211669895 0.5937916159084524 9.954773696149383 0.2215966966030119 -0.006535744235988745 -1.1683990079886395
Ni 5.220939576202833 8.628214438318798 1.970328932194513 -0.25926464346743094 -0.4384535645281933 -0.6795952731426683
Ni 2.09147889307255 5.478550758814303 11.805265218822655 -0.2042810881426998 -1.0461895896367144 0.7592267089230667
Ni 0.39120004930989827 6.812132350234469 11.350172963690913 -1.671101869414206 -0.5882735455085353 -0.6501314593555965
P 1.4306074466186056 6.5075799926989335 0.08675799020770704 -0.28505203684418007 0.5206771865158001 1.1067892055966424
Ni 4.041031277039462 6.714031085310924 11.820574641370829 1.5094203611095875 0.36644750650353664 -2.4526182429734082
P 7.115112955094849 4.370814401202481 8.861684051332057 -0.8571929384569108 -0.28141006921621853 1.391238318749501
Ni 3.074872150161021 1.1638047278951196 5.711792421731986 0.5378421283308609 -0.3249707274159887 -0.36831644139147535
P 5.2909055490874985 0.9861139517776277 12.444082493529429 -0.15854964754385598 -1.6265410520846952 -0.5164109550402783
P 5.088682563087036 5.9698751301460025 6.053667011650362 1.3485196968350517 0.9904881823093522 -1.580744819686187
P 7.245596001741028 9.061255279164204 2.281168300430667 1.054834409795906 0.09677143789479463 0.5322643771327672
Ni 6.239223904372516 7.2156591686241915 13.395984628744522 -2.883110643672996 2.691416391056371 1.7945904115888707
Ni 8.03977229642754 2.806580402587388 0.8827689155021767 -0.4161533583690961 0.6072377453158638 -0.15066690236166955
Ni 7.1175946698450945 6.776027996386471 2.0289562261313954 -1.0525307013633938 0.787835888019327 0.8764908674545744
Ni 3.2027080344069385 1.087919405754316 11.706078433484281 2.480837899940734 2.5541889020290593 0.35664080482576
Ni 8.477739800628985 6.339347307240707 6.165216413059398 -1.0602879767113094 0.7007623941385867 -0.8046784134979625
Ni 4.212876236189712 8.397185178143278 6.362743443260231 0.5295114969779784 -0.7350192584389277 -0.31535583003404394
Ni 7.565130563139149 2.1733479052222755 5.748383926993921 0.8030051395605977 -2.838475007241492 1.6875996099589132
Ni 3.621115949762015 6.446189723006779 0.43671653613660105 -1.9950554684195896 -0.7289349999180608 0.05617654719156776
Ni 3.7491080901218368 0.389334167479159 3.566497084723583 0.8649263025454266 0.9157621542503712 1.2185123797052628
Ni 2.145258570863955 8.128112150000124 11.125256075029883 1.96406339091345 -1.4233884211194843 -0.02231126190269061
Ni 7.020072471696605 1.4561047677933376 11.01513228087182 1.9865309758883465 0.2421349257656798 1.4532504987862391
Ni 4.920109790792664 3.7523986600499386 8.58956219066055 0.8500465572201167 0.29423833132913846 -0.7813191699467318
Ni 6.9730118068030835 5.011161147518295 0.10485888227309999 0.4447674225613631 -0.287313322074531 -0.06974734389746698
Ni 7.46583439852104 7.650666998197569 4.35489466065647 2.1678387430643244 1.5335324236664427 -0.46047634865618764
Ni 8.307439019545555 6.32080797890277 9.237002964547615 -1.361497082931326 -0.027260892598482085 0.7622423558209389
Ni 6.205592073738651 0.5888805781638022 4.515816398291199 -0.5061221715197606 -0.30072651015664337 -1.064481960187999
Ni 1.0875517443098353 8.924862074798 0.6786506347554169 2.242945294391176 -0.08813278838319015 -2.9259565351939285
Ni 5.226243092539467 7.496414639165718 4.254806185625506 -1.3817206090670526 0.9072014091645537 0.3631945467838777
Ni 9.08130201942451 5.913200118479312 1.6752024949418498 2.390632288188915 -1.46056245906662 0.11218057336101325
Ni 2.688910357281361 7.520202334623614 4.668626605307075 0.05675118874811516 -0.21227027699576345 0.009119702913081068
Ni 0.06712946484049705 1.0251779802536953 2.2628854159502563 0.37615522070960383 2.5355540605366915 -1.0528428332871738
Ni 6.518894773652825 6.168660481640571 7.774931970663968 -0.5394763215001741 0.47378592128090014 -1.792475422128397
Ni 1.440074728813982 6.758564077773641 6.855436434319009 0.8726239283000004 -0.9802726752289311 -0.2876521934711885
Ni 8.329057512481016 4.6753759502741286 11.352822883552006 -0.6469895712925051 0.8915336207203097 -1.8522587128346166
Ni 8.014256592180583 0.6050117240403902 13.411577150604947 -0.17675074393291498 -0.2036578527364041 0.3723091074906362
P 3.261827994679425 7.267297218501497 9.244508772936689 0.6263112170075471 0.3478486604554268 0.3845948668365248
Ni 5.293175858507166 1.5118054766321543 9.780695193723913 -1.5395356924377293 0.2933173621767658 0.45078997460635917
P 4.85388477310559 4.789424530352022 12.583910574940692 -0.6607789117671136 1.221881810398128 0.79588755467921
Ni 5.865045660788461 2.937568983719727 12.764661213429877 0.9198563789244029 -1.0459137102675085 1.6069039945800583
P 8.915532665644303 1.3604024937950279 7.390613624441137 -0.15744561584639982 -0.672552507363274 0.8721089363367948
P 7.332437634927354 4.43008142605276 2.223818630013355 -0.18060765578515994 0.3052061431945518 0.8990618107765549
P 5.330107450605246 2.195922317913387 5.660106575866898 -0.9691475118500471 -0.33065235118179825 1.1526209192187762
Ni 6.211382741489221 1.7874320700231754 2.175174263447733 -0.4273106605374964 -0.6615337876552672 -0.3712546980841928
