# total energy = -340885.2296856429 ev
CRYSTAL
PRIMVEC
9.14485453141912 0.00000000000000 0.00000000000000

0.00000000000000 9.14485453141912 0.00000000000000

0.00000000000000 0.00000000000000 13.38441898279511

PRIMCOORD
 96 1
Ni 5.109577850277704 3.255504275087628 10.080341377960043 0.20736538349497835 -0.6169994526883181 -0.9530994572482488
Ni 4.55039741721081 0.5537346720664971 6.534594959532479 0.3911599216485522 -0.37147272763226996 0.20613536774261917
Ni 3.6671507665601975 3.2148462508932205 3.4123842582309147 -1.0769548958440291 -0.89944799047138 -0.8096097893613089
Ni 5.027923442263341 5.132568015105581 2.998778938872056 0.03576584474569969 -0.8426260963863296 -1.0952493232778429
Ni 5.3167088102424644 4.824029760878163 12.046967996375473 -1.0906326504414379 -0.6428912328534154 0.3828452311352697
Ni 6.003414242722542 5.86758571520128 5.333169548782711 0.4176361135622098 1.2885569431281743 -0.8540389662089615
Ni 3.6088157381445147 2.717530760173416 7.511510528360885 -0.23393207823991327 0.40864445158656076 0.08549560787065921
Ni 5.789653263067961 8.265476367487356 12.85130460992057 -0.46179661012950785 0.5611208963531433 0.05191288681920737
Ni 2.2096346725141314 5.290234455756903 12.197810546416388 0.396440196210885 0.7237174602728632 0.0038090893334450527
Ni 8.288439097750999 7.526288613628128 9.971660266233544 0.39899664408415153 0.2597978902630816 -1.0487776620788647
Ni 7.8919639202996885 9.11740189063778 7.1872989075867295 1.574971664647836 0.33297148623327816 2.0955856020258685
Ni 8.844473700785759 2.4147263298708492 1.7823495649428536 -0.32846614216375686 1.2846141564303426 0.8204858128438643
Ni 1.5220696236880635 1.508023126800387 3.3020168352895154 -0.9304608939131266 -0.3362514425361306 -0.7126048952994696
Ni 2.011154745137745 6.7952214907820885 0.8249911824712078 -0.5514383789580568 0.095186609906178 -0.7007634225798511
Ni 7.525182086204034 3.915232386071191 4.326553320714853 1.4650580329441283 0.2637188225840426 -0.5455667506686281
Ni 7.695495860967111 3.734795257105863 13.309667591855831 -0.231892164991749 0.5863470179097837 -1.3772929123130022
Ni 4.672398924358266 0.34077843962943904 10.767537889139904 -0.7975937387370393 -0.5129682479073167 0.30705090971277443
Ni 0.39321595122034103 0.319729727463837 0.9831989985234083 -0.3797640211067847 0.23731153623510742 -0.7887357741257771
Ni 3.279628401903832 4.731364947751323 10.277119447868463 0.6842142599719183 0.19668142141857095 -1.4186424217940665
Ni -0.2720566851948617 5.442084768790671 1.7362540101173187 0.8677956536734216 -1.6382112893337724 -0.8881929863828509
Ni 6.089138111098244 2.577138950134608 7.704781546474758 0.858426810864012 -0.3492064600349018 -0.6699788330988268
Ni 3.238906363726213 4.64194655805881 1.0365656273563597 0.054134319950558375 -0.11539933740862705 0.12796894654352153
Ni 0.46473145877938793 0.10046903216586482 5.634291325812274 -1.5383884662071634 -0.2351186423488467 -2.2499474367406216
Ni 6.959289329754617 1.2719029772953054 0.7044098712655861 -0.5480090415615336 -0.6327837121057682 -0.5743535929933333
P 0.26657983168833216 5.922409119395043 12.86826282855892 -0.8398143379691472 -0.2759001951415829 0.7800994386070178
P 4.085427277722588 6.270343407862117 -0.2743913666111532 -0.3276408180489841 0.8809278201800054 0.5742384075717079
P 2.1158816216726866 8.73432392538728 1.899396389789695 1.5780171363423792 0.0938367807465029 1.0974640715409745
P 6.429866254026588 8.076955186927819 6.324606232460037 -3.618879892904071 0.0781903324584976 -1.5318586355084458
P 4.37492594437179 1.1524345949120989 -0.01734230253762343 0.09112375269071403 0.7427510798655467 0.7188290218323103
P 3.8174098748684075 6.26657572770735 8.790485221830176 1.225330945288993 -0.5570906921478277 0.24526987185023566
P 4.6783522247969875 1.363817912333089 4.431635017613885 0.025059771182105228 0.7221933103188529 0.36649610035328495
P -0.19330119613453 5.951242846404707 4.302448398093612 -0.03963381234153819 -0.41100189607514376 -1.1629657527882102
Ni 2.3766014304406915 1.3256747231934418 5.36088851799901 1.8634437829171582 2.9251448379259104 1.1827568193722084
Ni 1.0971173685621283 6.826451169734833 5.827067607284466 0.35089413214996984 -0.5643088071628217 -1.742232981033077
Ni 6.946998644977899 0.8538587454434269 9.791679465519971 -1.6593030770070651 -0.16889242423076076 -0.9568725511374359
Ni 8.470723487374732 2.4840991979632414 10.593633844404103 0.3721401860129397 0.6650677689504546 0.9514603789829291
Ni 3.2230491855991095 4.565084053930607 5.36936031143439 0.7095594236049263 1.5923700626299415 -0.3758626291698494
Ni 1.528736222796863 6.836739131322486 10.156271106904297 0.8396868112523475 -0.054355949043061236 -0.35027372495715164
Ni 1.6073728287455151 1.416986097818083 12.229477349425922 -0.5995414051128707 -0.5086174271377886 0.01434881252250432
Ni 4.211982922532845 7.51739066996165 1.8776737018294172 -0.9816726409002513 -0.9590009103343484 -0.25422862370542026
Ni 5.518947272918874 8.030581628518048 8.60794843421549 0.3737314417594596 0.27426317375879217 -1.4793834484278652
Ni 6.892376427588518 0.8248101143472651 5.179462830235793 -1.0554779569171757 1.540967025567617 0.10904614149708963
Ni 7.9727678568228075 7.859682583051319 4.762537928604652 0.5579556112512842 -1.0545271629681323 0.03725657035861325
Ni 5.164776193515996 4.878203880385061 7.4538503902253535 -1.3227521009526444 -0.14607979721161937 -0.08181558791591072
Ni 0.767138087900565 7.652359581136922 7.934912730607613 -0.35564090280633587 -0.9469570917959369 0.7664666783149315
Ni 5.773265683365672 1.9799067764755118 12.046084603407147 1.3332054350754845 0.7914657714624305 -0.11522681638650477
Ni 0.3873422110178967 7.516823688967487 2.602051363429796 -0.14722728055250128 0.6125275329598935 1.280112411905247
Ni 7.134221256163707 6.429802240043376 7.3122560317876335 2.0271721464484767 -0.7593668340453567 1.3935854788254387
Ni 2.5795806263514116 6.040706960370943 2.960954905162995 -0.9018594281263499 -0.9095053747073819 1.4691771973188246
Ni 1.1998049424890287 0.6789002989555774 7.753259335961256 0.4746418415232922 2.4610401484885163 1.5881418834812069
Ni 1.0375020604822047 3.8764216225351893 4.448632559127637 -1.031398547370469 0.4042697195576328 -1.0768083429638358
Ni 0.8547412239262789 7.934972172163453 12.325095950635262 -0.2612420789087759 0.5657403974030256 -0.4671324205201245
Ni 2.3494503567040304 5.4720981820623855 7.490014632798274 -0.02630135689869019 -0.3995692287581699 0.44602160668343827
Ni 6.102837103505626 2.3105572894753275 2.8131777104324636 -0.17266860344374135 1.1540507096867674 0.9237346309328864
Ni 4.087942112777348 7.22124369391314 6.542251031924642 0.005931020772454301 -0.46642176760634513 -0.21468659974673993
Ni 8.112217746822923 7.595313977240226 0.43007063032647697 -0.144575444751951 0.09120371399903002 0.7265634143620906
P -0.2714275191884345 5.9147182965548515 8.753865565490974 1.1492910835145949 -0.7710920929020849 -0.13907456953837985
P 8.242751403447071 1.7456338876288353 8.3801994847436 1.261007572754996 0.45517704793046115 0.46182283538175306
P 1.7419668008762583 3.252724239245275 10.810541568576296 -0.5838430205410073 0.13165436581490872 0.010369001939149884
P 4.1393910655703605 6.4368803576156814 4.402804948546119 -1.0079657702688254 1.1385413011972585 -0.03734913007241955
P 6.9482423452231625 4.160616273432533 10.934441547568726 1.1164894636035418 -0.14361076684583654 -0.3282812798464604
P 6.330873201416499 7.95830069661688 10.520140304763805 -0.5564720847272223 0.01342835759076397 1.975988167375494
P 2.2986781231621167 8.621302665599003 6.3825480321217025 1.7507353620771333 -1.3579461323552742 0.815600459727105
P 6.9283888655726775 4.21480868264892 1.8823046562720729 -0.7464583535138047 0.4966862229178414 0.8442214658979074
Ni 2.6028908610953487 2.0283196374933237 1.2835013965678574 -0.10377717978866642 0.3996203937110795 -1.9238312828662802
Ni 1.106490844675324 3.1170237396904374 8.656534132987977 -0.18187340987146097 0.13272291628873917 -0.3721615261691784
Ni 0.4067466783004231 0.33115348001076755 10.189879362576107 0.7359469124595197 0.35348580413654607 -0.7467635434590494
Ni 2.7131595196055063 1.563157456055466 9.678982848075126 0.2977957096630936 -0.025483231872769015 0.41710620920066876
Ni 5.1021796627893385 3.3057552519091002 0.7485840921092847 0.8227296145727186 -0.6614880220189963 0.0364430733183824
Ni 4.233729387115458 7.081299981756817 10.966871945949434 -0.12499289463433311 -0.9036031502903341 -0.4469945121196689
Ni 7.296908222069803 6.434200915175519 11.787202910442803 0.1585272789463528 -1.3006375284417921 0.542239228957292
Ni 7.7930165919633225 3.980993036539473 8.740374161286296 0.4492133741478586 0.010753124751445997 -0.27580249322145406
Ni 3.2953849866287457 8.456091719783403 12.872612121475445 -0.11748398785179767 0.13229508472270118 0.7803812315134947
Ni 0.1742186277390128 4.869315081573328 10.83419199191673 -0.9224282534166371 -0.23884288527796932 -0.07841813219858752
Ni 8.965085190012038 2.2909232863387117 6.347440020271782 -0.41736974727470055 0.5784509029911585 -0.6069852629854257
Ni 3.3737655366445494 2.897775847189108 12.193018642530227 1.5089804453586915 0.9345237511285907 0.41208047385130325
Ni 1.1130111261082103 3.618728760687641 13.467269104038468 -1.0106615719334335 -0.15198253584929955 -0.47257313191972167
Ni 3.2074297736953654 8.28674729962325 8.817508267600413 -1.452404605846176 1.3212068679527116 -0.32639563278797334
Ni 5.747038239958213 8.03936983392759 3.9018525490943943 -1.767160597512692 0.7352010354324305 0.8602772338091894
Ni 3.026672574813977 8.615477393126705 4.1264163456587495 0.07220660407123693 -1.7143413968291312 -0.02717141820846934
Ni 5.321839073754175 3.6641146747849964 5.025809151846394 0.14009349772119745 -2.012099054165438 0.907949857294804
Ni 6.274824386686961 5.701341400799542 9.435761718860878 -0.710396574794241 0.898620352363762 1.5930241512741725
Ni 7.412755241974155 0.40459855192092103 2.9104817083712287 1.2699221016358067 -1.1033079319162613 -0.6944760469092427
Ni 4.117324531071687 0.7616228260041084 2.4157944489050167 0.8146098136790616 -0.126006423500512 -0.6260764752889217
Ni 6.227454039110032 6.116408067946585 0.6165022115768777 -0.8649399293921813 -1.2250329544325997 0.5477627298786825
Ni 7.822801383866423 0.10727646203773092 11.828493758585536 -0.09489736080053335 -0.8088736825262327 0.9482763248279926
Ni 0.18133789715766915 4.695791462794904 6.797839662695463 -0.8793162527185114 0.7183495110927307 -0.1358023265450113
Ni 7.054880496399722 6.368952376572934 2.937598946145335 1.3002048117797478 -0.586665577591467 0.35414117833235786
P 8.579958777298753 1.9185082217203948 3.9938040635511562 0.20891678714249828 -0.2587036287576383 0.9206554777869306
P 1.55236652745686 3.813303835088091 2.234956775301876 0.6460835145384679 -0.04419983444566582 0.4340006709631622
P 4.800161689994806 1.28708343617131 8.863738251790693 -0.502483803436225 -0.15273869728903372 -0.8520278493162036
P 8.664338352027002 1.8076634373613285 12.740615288092162 0.04105357550720026 0.3743305087960392 1.3838718510821004
P 6.210417174720878 8.099350936197299 1.748607794391773 1.767238501938479 0.5158321997186729 -1.0711151492338007
P 1.8903329242523408 3.3413470265750096 6.354306891699488 -0.6338041829504826 -0.9304889189375846 2.037952524893432
P 7.133078149320634 4.313938908080178 6.521130075406558 -0.7279021877781722 -0.7463141146264567 -0.08736351431733341
P 2.363039610854478 8.854039218848591 10.963780070560292 0.3706875127268132 -0.5371281329829717 -1.2916566650994206
