# total energy = -340867.3180862324 ev
CRYSTAL
PRIMVEC
9.22955413643073 0.00000000000000 0.00000000000000

0.00000000000000 9.22955413643073 0.00000000000000

0.00000000000000 0.00000000000000 13.50838541629347

PRIMCOORD
 96 1
Ni 4.169395786450778 1.3204723364726767 4.4861217872515375 1.078228877460446 0.47971797049461895 1.448811232067963
Ni 6.009870442831242 3.76068343252599 5.993238785947732 -2.5780307416436634 1.656759741759921 0.8167155471681546
Ni 7.201793546743693 3.3796874302222775 11.022572453353982 0.30405788852272153 0.07048550761507215 1.0238814130578173
Ni 2.3403934660892953 1.89159715775547 1.872937767787994 1.2924120552082066 -0.5093789878941614 0.24374777877875442
Ni 7.981275556786329 5.129454026751945 1.6781600222982447 -0.7273242037875152 0.03112526064989478 1.5332298048243596
Ni 0.488536000366749 2.7207987769165674 0.9233375354861092 -3.107021847341797 -0.7879166206585915 2.030334089116226
Ni 2.3335082185670433 6.710864322941932 4.808377214045033 0.21087288242760457 1.5808252952151356 -0.4435965421817134
Ni 4.112800159364384 5.108004542513722 4.892602434941902 -0.5820180515171267 -0.7746965224238915 0.3583220491829248
Ni 3.495490648267449 7.50811322504936 1.5656895963177988 2.7579976785210305 -1.7908769672930256 -0.3117012640005922
Ni 8.111726077536344 8.5227089018237 7.015039975779207 -1.3644157992400179 -0.5603379954405318 -1.8866932403634022
Ni 2.5391980661285873 1.3340582404307937 12.262169897147725 0.5077195979138676 0.19396402248740788 0.12313861503441371
Ni 5.9955830927448535 1.4682559602344751 9.680541723902115 -0.9814785226115743 1.2587339462294709 -0.15470739097963032
Ni 3.53844499406981 8.127942404475483 6.658337083399516 -0.37256673202739704 -2.618615605044561 -0.757931901371043
Ni 4.753321999574542 6.576463552943223 12.882812200309385 1.1568894646871433 -0.8648080318000074 -0.8562046064017126
Ni 7.7807542596436345 0.7830667689402803 13.178025032947117 -1.606377175542311 2.0839253920791205 0.8345739155058143
Ni 5.441043780573973 5.608421748155799 1.567526277627354 -1.4686393225374836 -0.14723705074451415 -1.7216291887397963
Ni 8.533876662550142 7.767159126131198 0.9586599628217811 1.7021965339364815 0.207868548383642 -1.6052016671769709
Ni 3.4373906038269966 8.36818770340876 12.979626533297878 -2.89447954763157 2.0979191352550512 0.31838381822709044
Ni 2.26835679462659 6.663765907250171 8.341522598024659 0.9076541804312561 -0.6783086931207608 -0.10829512226367802
Ni 3.171514832548822 3.1047482366024792 6.043746599005068 0.6379182051188562 0.01886032723961268 1.5379526642213255
Ni 0.5716241401714713 0.19549580481579648 13.260412649579 2.7584190823291657 -0.5352409432625879 1.1232082703846138
Ni 6.911930163789469 1.678597503172983 7.017660246250477 -2.366594530513421 -1.2906829883322417 0.774033692028912
Ni 1.8598567204511467 8.540088152607078 2.357118341471431 -3.080633587156256 -0.11711863409257894 -1.1392686662815863
Ni 3.526132768607767 0.5313675930966627 10.054804766329847 0.9519206064487994 -0.24327058203201976 -0.0769240641515643
P 6.841711714527681 7.0720998494478655 1.7043396531251458 -1.7472252920413456 0.431348835162612 1.2385728979005637
P 2.234299739188104 2.837395736633205 10.652172902364343 0.22842657504065178 -0.054905393788628014 0.01888218161648361
P 0.18453478610610924 6.680545237002792 5.489267278937264 0.014118955899885363 1.2833838835676672 -0.6763528549459706
P 3.506427670135906 5.380017967414279 6.929328796636918 -1.502301233566303 -0.19567354897934688 0.8905203489644471
P 0.7999790042750992 4.64826198275712 2.4617002673751087 -1.9036553221390375 -1.103149809071842 0.054941132122569895
P 2.356748236343224 8.768842656412737 8.330823698657642 -0.2845463008523551 1.4039593658605949 0.6066625895386841
P 7.777616211175048 3.224344801472913 13.565796451076682 -0.9930207189232189 -0.2471102674930841 -0.23633940212982524
P 5.107016980201549 2.7202542332117248 7.728876780725303 0.2368263690685728 0.8237518851896458 1.1491031358735049
Ni 0.38785909889559783 3.684853414238022 10.212258194152051 -0.5358886041489158 0.18012325994957368 -2.3631042579719757
Ni 1.273641577856179 0.9543912939490712 9.80887129306954 -2.033499631328401 0.9415274361399334 0.46438262568912925
Ni 1.9418059332528583 0.8281116087959796 4.001034871333938 0.6587631668886654 2.1390169337366256 1.279788452906925
Ni 0.3076791916569098 2.4089875137908745 11.993690468596053 -0.6642023356263658 -1.1848532968899208 1.715338727745394
Ni 5.925853809861991 4.516380881087602 3.4399370378637117 1.4891852650096353 -1.007907149116748 0.3984114610046428
Ni 6.662981395133024 6.377797396218723 10.564584431873495 -0.5015432938998264 1.9148067107701667 -0.1569085123960072
Ni 7.3182520631455406 -0.16093573866690478 2.5396032435632074 -0.7900676055633232 1.2421976391373444 -0.9197818169327255
Ni 2.7965180405527024 5.199321752949597 2.7194678751837142 0.7826386600891038 0.7839974881098433 -0.0772541937974734
Ni 5.12290104318519 7.761999805266669 9.095169239616506 -0.505237454921962 0.826405520762409 1.3295344139818004
Ni 5.542799616945058 8.354398749255616 5.350698442207927 -0.0069934005986976334 0.05673833323230873 -0.24755275434714138
Ni 7.782332513432247 2.788857510467623 2.483327882011695 0.6594257401733288 0.036780144942826984 1.2706042153044956
Ni 4.1804251038624285 0.8975353934308703 7.196794820124321 0.8137883462190307 1.3629389575841753 0.4700102562885518
Ni 4.755306353753206 0.5866720055337769 2.3480410747983274 0.27769585358942495 -0.049430486716985834 -1.5554500496751407
Ni 1.9419074583503715 1.6774714975460194 7.813939122198939 0.5275705712015236 0.0683769459125016 -2.5089567696641373
Ni 0.4603507873862482 2.9240889403550745 4.190774203120742 2.243776274932903 1.8585427460711155 -2.1937845163958087
Ni 7.681647305362209 5.719508663943771 6.694634151671314 1.9735949845529686 0.3037853515876252 -0.17381094457830068
Ni 0.13012656339340617 8.810255666643762 4.2558979383982365 -1.1598318351449186 -0.3313432066012358 -0.5491225863406866
Ni 2.6128406800428627 5.0915113289450025 11.446046556457176 -0.7553502566867959 -3.0141633713481637 0.8579593843092901
Ni 0.4417089335719788 6.7483455430329045 3.0552316776790436 0.15046995585951503 -0.924609320228356 -0.2859002437770883
Ni 2.11058679309123 3.470367801410116 13.364197141989482 3.4761001065999615 1.7918470445157786 -1.1409949049440737
Ni 7.511620455690721 9.112551259266182 9.136977274772402 -0.5585911879527542 -0.17520396827108536 0.721787590240002
Ni 6.127925672130341 2.0491641090958037 1.1371641581356122 -0.2294763564614048 0.16749785787607926 -0.9212051796428135
Ni 7.255767980403386 0.7375604513686123 4.698176335471721 -0.3977172631510957 -1.103285563318758 0.049385749521979466
Ni 1.3472288144445386 4.908646169215268 6.010772170288245 -0.5408606034422104 -1.0497276846969599 0.9831664518369584
P 8.678540696951991 7.632619912817701 12.08843830437244 0.4395241718845527 -0.396962130152626 1.097717582312677
P 0.5227028875016354 1.4483201229046299 5.58254300079971 -0.8730784993389156 -1.6395714029060924 2.009705357122281
P 0.07510826714019256 0.5001597010765672 1.9355086083407502 -0.05210417689440704 1.0009122058561535 -0.02986284899770341
P 2.8853986486482635 3.1008441351253846 3.9696959196425077 -0.2512659415326705 0.3781367699160068 -1.6022112170900793
P 3.5434012647393134 8.63234677758353 3.567604847986437 1.1247856421740627 -1.9031786396129353 2.114680670984107
P 8.234469920429685 1.6645039737273006 10.385517233746183 0.17863999053582785 -1.5285395984375418 -1.207027776104431
P 4.028035932495263 1.6659345546468032 0.37565762808538683 0.316491486300384 0.05265259319870932 0.28324532265274444
P 5.6209093351499115 4.735185925336975 11.100434819503077 -1.836150237308528 0.6790314302193983 -0.5628985570788563
Ni 2.144311584574219 3.9948833733800764 8.315505407353779 0.4292112199943188 0.17136094037591132 0.19596099831277863
Ni 1.0458377181454175 8.616582698806042 6.3734585827331856 1.7694362809207462 0.16607192406283014 0.6799811957271773
Ni 8.547416418736661 5.431417355418867 11.326213714996168 1.5037680479198166 0.7317819824485526 -0.5801606865934137
Ni 4.340299443782606 5.47565460927162 9.313221152233417 0.04052341403534311 -1.1654934043060703 0.06616039787715702
Ni 8.275356846064508 5.089693106744086 4.438882159378691 0.3175368968457628 -0.8387766407332523 -1.0139404997950217
Ni 4.301046149262313 3.1450075525435834 10.741922011521357 0.255797767964753 -0.6265346458722629 -0.3503979092398417
Ni 7.060202953930194 4.313183013192289 8.461382205193194 -0.4287401938951713 -0.6626982402770135 0.8299163621291449
Ni 4.987023544495383 6.790856870227936 3.5180698299543627 -0.9441412196136965 1.8360502213955538 -0.665102735953448
Ni 1.3511421454759527 6.849769115448493 0.3647889049188933 1.6972810989127352 0.6981372978109137 -0.15916748363351296
Ni 7.729724053811823 2.8137496184669715 5.2674598606678 2.991089520247836 0.7182307261266793 -0.2802319897477174
Ni 3.4155073305357635 6.999389420519846 10.99446199976347 0.304470807690424 2.0572149726674698 -1.965937210897395
Ni 6.9517556906775635 8.754343026577 11.469497931027272 -0.34053387196156837 0.15404301792275404 -0.8062431868819213
Ni 6.9612067543006 6.049566755958865 13.093677981933233 1.7959952623561974 1.1690176154092449 -0.029365083425678458
Ni 1.4042028532580275 8.561205372889805 11.31945952714525 -0.017905676635827227 -1.7785914650574528 0.47739934966377134
Ni 5.486047087435235 6.288852181242927 7.23595581910142 -0.28989830919288784 0.08929338435019461 -0.7604258714374903
Ni 5.568023988899904 4.1919528172073255 13.107389407830093 -0.18488545722490737 -1.7560020097927111 0.7349788921192955
Ni 0.20893126703850756 7.924615322819699 8.903795353759742 1.6875541014329583 0.11866001043776983 0.3825834928334508
Ni 5.657153794962088 1.7299045956343766 12.284404816458526 -0.8034805365351194 -0.5625051782951795 -0.5241556319827038
Ni 4.290967475945558 3.5218502554035775 1.9683879726480842 -0.7930457143550407 -1.20616979897951 -0.2926285636398573
Ni 7.482630425573571 7.390261045945287 4.108170614917786 -0.014208173179581982 -0.4605902485262326 0.36332078794909684
Ni 0.2613606733051371 5.532241006803695 8.774453302483483 -1.89745022176959 0.23209013993516803 -0.2787065542421264
Ni 5.685516215385522 8.8032227462524 0.06133684914025629 0.37698645836164757 -0.14101035310851198 1.0881726189367193
Ni 8.86798652891144 1.5518572632593548 7.983253450276971 0.8877749250088259 0.3979239798452631 0.5404826512775014
Ni 0.06355655695406547 5.04902769041293 13.412205591737134 0.8281029630694899 -1.538057822340622 -0.5513612458632182
P 1.2490725042580082 6.479987021642819 10.587913053371143 -0.6675527401558374 0.07867035741870969 -1.1075489665808023
P 3.3169449199591807 5.562329353884851 0.440910577123353 -1.3252077615819886 -1.37794854361913 0.7229805821068388
P 6.0546153221715615 2.433141257444673 3.9119336768901447 -0.40036472807627177 -0.9436095154799427 -0.5582322619514386
P 6.18915453548506 5.967276049647336 5.062051514512997 0.08957774835983282 -0.10661464923746154 1.2388647181093697
P 7.319922612477347 6.855445291354907 8.626617070262064 0.8889411774027851 -0.4544370844406431 -0.9434542208490011
P 9.053491341176516 3.699869899115642 7.528669288429468 0.6611861745078612 0.6383300958452942 0.2524530198622362
P 5.949093827638172 8.746165641450036 7.4204666083663 -0.2395694790313487 1.0605276035259412 -0.629723842233522
P 4.7930829195824 8.592641234901588 11.42493302799618 1.2158286622255126 0.7217940179979052 -0.7765317758604174
