# total energy = -340861.51400581095 ev
CRYSTAL
PRIMVEC
9.37693740214514 0.00000000000000 0.00000000000000
0.00000000000000 9.37693740214514 0.00000000000000
0.00000000000000 0.00000000000000 13.72409572339976
PRIMCOORD
 96 1
Ni 2.476261676226816 6.793619407798231 3.5717917983928333 0.6670053522927997 0.2185093159269398 0.6222072221415026
Ni 5.940205564732664 2.6029534798753335 9.688580100864185 1.3972536717056452 -1.2073617624050819 -0.8363235512070694
Ni 9.16908838197354 5.50484372981319 3.3324848497914648 1.1873981747989615 -1.295552400609401 0.6074583459671022
Ni 6.734507193291514 1.8233548894425198 3.7515092463646433 0.22346897392506027 0.02411309099811976 1.5794006469534672
Ni 9.487397905077128 7.7874247603172515 3.2449530128661315 -0.7561820085594719 2.509616771845639 1.028604015344467
Ni 8.023901749156861 5.767304212688033 12.32637921848197 0.720109688316947 0.11645400392538653 0.3204766962003771
Ni 1.4837034564059863 3.8355237940035765 6.893147160970145 0.5829490479718282 1.5248150983981028 0.14429288051452568
Ni 7.848478000903108 0.3560188775830871 9.633972567171085 -1.4378272222526334 -0.9307236606562099 1.882625755162248
Ni 5.627569088865206 5.885472380075985 12.126693581932741 -1.1260179719192671 0.14860487762631824 -1.1512127260173397
Ni 8.698525523377318 3.2835784941472337 4.319083088086205 -0.022845537139605816 0.6139436965811298 -2.5848858168922835
Ni 2.8963766106405924 5.538356904725469 10.87340867499568 2.0002856064702774 -0.42601071077915015 1.2505609235003752
Ni 2.173011514877319 2.486641946128297 4.818750085544411 -0.5522109954580232 0.58491208523547 -0.26458939811445403
Ni 3.9798723711159494 4.820242894007208 2.7492796531234096 1.7010259106671481 2.5437006009032253 -0.6106907368614708
Ni 6.307068870627461 7.3007804537706775 7.132110913656072 0.2964991023388571 -1.8600028755564098 -2.278212602233902
Ni 3.19125316673081 1.231810782184232 10.646206415116824 2.358115289397816 -0.22688314181293184 0.47534940911327805
Ni 5.652052272887579 2.0647453935742486 7.071806890382888 -1.0092101841988876 1.010890400114788 0.5988418079426848
Ni 1.9630431285774443 8.124731958958689 6.636259392099322 -0.1941270304278334 -1.5763299784479432 0.6301563017852502
Ni 8.889233679887091 7.668947153989147 10.172506033206208 1.0744501271443045 -0.4424948244771024 0.969449616471498
Ni 7.039492088093382 4.444190189283638 7.594022609640635 -0.7325214317177384 -0.08439774682079014 0.5698353934080057
Ni 1.679887744462702 7.068391809716114 9.062665766598773 0.515034386407726 0.19611963537782998 -0.8882125267668768
Ni 9.166884801642151 8.336256916896907 5.83053102740502 -0.17888964465278867 0.048235695077936284 -0.5851869361634116
Ni 0.7377118102612553 3.0268660740091637 2.475003291203529 2.302021788838358 0.7463974183688823 0.6734768189497563
Ni 3.4966318929110534 2.634900706211689 2.8804817637480897 -1.0832494706034894 -1.8949112573978204 -2.36186138670381
Ni 7.639541077737075 1.5612882379460526 11.684530654186217 1.3047790614139916 0.7928150864014734 0.7398971553565193
P 8.29141640138753 0.39365696733697536 2.585894017335348 -0.1561747195537762 0.22877470240868986 0.16418190612896885
P 6.901004096968746 7.015637158888894 0.22169049596910786 0.6965010477590714 1.1098452188141468 -0.5382969564800923
P 5.1879688781594 0.649717690313209 9.081165526751104 0.008496724617101496 0.7157375273911802 0.31539259680925036
P 5.756792665660426 0.2614468359224041 4.840694932563776 -1.0912260610510627 -0.10707616225491237 1.4418885368062007
P 4.628540782113914 7.196105699560893 2.6821820385732407 0.11543224752909152 0.11313188153068904 -0.9383631794793388
P 2.137191613320266 4.585922600811086 3.7342575566042595 -1.9322855842812205 -1.1244388003576056 0.5612556221587947
P 8.847056214650541 2.8512079023159007 6.232715381777593 -0.3056298609955317 0.07093776466114235 2.620710025679745
P 5.722866905494611 1.8823358268231114 13.185343270901365 -1.455521297098287 -0.8412338440244931 0.2994147333237553
Ni 1.038533344777434 5.2212476296321695 12.86784954136727 1.5708905525999268 0.16053505340500096 -1.3545751590005124
Ni 6.947241776177601 7.743568823253813 11.266302359613613 -0.6488217394052375 1.1029428352673587 0.9835510888698867
Ni 0.7506107255968264 7.42465917614508 13.185219495325304 0.7685163617551086 2.266031486786678 -1.1540471101423415
Ni 2.9989790616451133 0.32065000672365085 5.5981686387756815 1.4757990735107165 1.5606704175338155 -0.43187925374478525
Ni 5.889720132799897 8.900664166797576 13.039812261960106 0.5452883001962608 -0.7827373904504972 2.18897681059452
Ni 8.2354642148454 8.803490962652095 0.4873081937272651 -0.08180221817947203 0.6475567566498847 0.05210417689440704
Ni 8.74617912016081 2.0583034374565274 1.0027171939954136 0.26744409395442975 -2.1840060968528063 -1.4050461711668705
Ni 1.0799887858202952 1.6181031027455763 6.988721597258171 0.7627216094502026 -2.73685395456388 -0.9912847100687187
Ni -0.00015659485759235013 5.507853726776491 7.654724215067227 0.6343235457890624 0.7080540427039935 1.1283715597531083
Ni 1.4227158543831933 1.488401302133757 9.419382288337841 -2.365398710433107 1.1749419513134796 -0.722169399059453
Ni 5.688115974821722 5.390023129141434 0.5893433400081727 -1.9016789151389568 -0.7583653893640359 2.5846191934944587
Ni 0.729566064585179 5.431553585684938 10.379931394034283 -2.3757833961015407 1.07073462596593 1.083185193024457
Ni 4.067265429365094 4.4421553938286955 7.284242348960161 0.9164841200180603 -0.4153426895423427 -0.16192396333272757
Ni 4.100909881403498 0.28526050660153773 3.376031347914751 1.4897812467224214 -0.3756659397780111 -0.19463533752281964
Ni 4.65138300205972 3.114737356074907 4.733961940555097 1.0547349081035644 0.35240876902228335 1.4721720182810905
Ni 1.037520635518753 0.6613657221755573 13.057008627788765 0.38079040548877 0.02583084502017487 -1.2608047127155704
Ni 1.8191352675313486 0.33371301846687856 3.215445665688191 -0.6723568464127001 0.3138856732464207 -0.7744774644345501
Ni 7.691508065807542 4.372784809609043 1.7383210686885995 0.4489475220809816 0.2973439668376556 1.701590010700734
Ni 3.4727394559562446 2.8483854441042062 8.971852939214065 0.5664651913841922 0.4522066524482276 0.3582035213271896
Ni 4.778065428770657 3.5457107842067637 11.606961813440037 -0.6635593027257282 -1.2475745871785415 2.2245526508166007
Ni 6.031321267201219 6.865643665353131 9.307599815442128 0.8971185710072549 -0.04556431889336024 0.879323451807363
Ni 2.136028873060299 5.0141110784815695 1.1758023340166206 -0.7181672198785954 0.15478992339110761 1.4675648585263823
Ni 8.344499245030061 5.1308727052324645 5.6768758397441195 -0.9375293707241337 -0.11693891398160505 0.6862713996112633
Ni 7.2271152321392105 6.895940550675341 2.663215306929405 -0.2862355156293199 -1.7947783592299607 0.6776067819577297
P 8.20542050683786 5.793409606911812 9.404094129306788 -1.615806953496643 -0.030248257361580162 -0.7607578008556124
P 1.6461964077363955 3.7513751561572435 9.825148632866119 1.1709888802030028 -2.2384260663645836 0.3297118416453999
P 2.5327671020861877 6.033946809723725 7.306077485809833 -1.0144068979084788 -1.2139371016297547 -1.3894429174119747
P 3.1376920992716784 9.335247715897879 12.269437765025112 0.29600082254619986 -1.1823806669797121 1.3301386232247028
P 0.7823826032004287 9.087358994022946 8.219594685684365 -0.17513094894130485 0.22064384577143933 0.5943575469190862
P 6.9992462719983894 4.18925001034826 11.19125872815783 0.4728502968405082 -1.089795242141807 0.6832585809268684
P 8.834913080483949 9.0941197660184 11.998002615192085 -0.8144272653546102 -0.8833068619351432 -1.0699152153884282
P 1.699251120566187 7.589983962624765 1.8885180417698562 -0.5044090454833958 0.754728563942397 -3.30081951945467
Ni 9.054089619487756 6.572201780712713 1.2090735839393258 -0.12727500580029047 -1.4907631510197163 -0.4756255455928002
Ni 8.478983283807874 1.6335656728156236 8.096626463949017 -0.5181253666282237 1.2929607286228249 -1.123442240772291
Ni 2.3847990270677872 2.7416665175018986 12.232122241923989 -0.7420311709803866 0.5290921500523726 -0.14011432365680385
Ni 9.183800797037156 1.1017620348819381 4.568724359594911 1.18092902213485 -1.255800831743076 -0.8732204242334187
Ni 1.0673017892740406 5.995004387952406 5.513147945734374 1.395289863111055 0.4733642603624493 -0.21780406232979907
Ni 4.121501636330013 7.575721640565007 0.13591027098378936 -0.5096921482592061 -0.9032902470356057 0.2526548514603972
Ni 8.352685311537734 7.957888108590985 7.991555065279582 -0.17872817937425994 -0.27471363103264945 -0.48395489139410197
Ni 6.139268572626556 8.626379365633873 1.8717745820263292 -1.1785597505717251 1.5767416120640652 -0.6515190837317425
Ni 3.6695707527060066 5.508350704468251 5.131727881939795 0.03971737319427998 -0.9140438860076839 1.2899435390630558
Ni 6.603370721229896 1.6709608998861798 1.5686913301657628 -1.7725252042587152 -0.23803761576785454 -2.0123019142048633
Ni 8.777751268993951 3.4108610448633154 9.608363212945306 -0.5839232389596395 0.4602549766740009 0.4778881163747318
Ni 4.321783646109354 7.773921970201504 11.090482904593967 -0.45224676165754374 0.3820019092983679 -0.08948878819045235
Ni 4.063524031270521 0.6058580024747384 0.7387498372514034 -0.5510306019966769 0.6109936128138703 -0.38372377708548105
Ni 6.930063226530344 3.5262630156650547 13.570331259445279 0.13128386984936746 -0.2486930385991717 -2.4897102627296994
Ni 4.666733048878803 7.60268971304618 4.77822202362825 0.7531673901028642 0.9732476500613497 0.8117569176112988
Ni 1.490351705150476 8.815268396253051 10.652931554749475 0.4342678085816198 0.3385759769042491 1.60290387228173
Ni 6.88287847662587 4.721034894406785 3.9966899086663616 -2.2129464340362404 -0.08067838898767396 -0.6864099820716566
Ni 3.8327294666046225 3.332141653876023 0.3787054403650591 0.817873829142314 -0.11047258953097101 0.044774218891897075
Ni 3.094801986779019 9.139513520845021 8.631412905727021 0.5064062784190827 -0.12926581097807416 -0.07987697613230113
Ni 5.430090783422398 4.742920666719392 9.892410343823943 -0.8551962197418562 1.8466436806406843 -2.0768124351834234
Ni 9.116427500522125 3.3908694139419446 12.313231814300519 -0.2690572040778205 -0.7998115723239644 -1.836261823185728
Ni 5.112362630448794 9.141698347301249 7.087054728582344 -0.6863799001646695 0.2674991155620812 -0.5252113269407277
Ni 7.454693507215039 0.890843764805171 6.091207079058317 -0.502628042323573 -0.7957669699409456 -0.08233417942354208
Ni 5.596737718100916 0.7775637949778713 11.33945184967816 -1.84568028828615 0.11134187950980179 -3.0383402257046837
P 3.127818183999538 2.336864122156883 6.908723191984915 1.4088087235330964 0.04802769283218825 -1.459798327207086
P 1.7738634128932729 1.3824794152257818 1.0930677383574094 1.305595643778016 1.145646544783472 2.8085167703165053
P 4.109780464354538 7.12748527034767 8.371891155089868 0.3968986239045422 1.0088132058707853 0.5758265779944342
P 0.06777650483098843 3.9885085306274797 0.537959597455205 0.5542804763925422 1.5410660130393266 1.4113304615136855
P 5.676694864848818 3.5218371011271157 2.3954859228281467 0.11491828400715046 -0.3644883258946368 0.23880868960592422
P 7.929119664094377 7.001196675015109 4.724643139987715 0.18201482054533166 -0.0014436744250620299 -0.1868397527378008
P 3.465547344832093 5.434507321022757 13.257119977304145 0.3684102866568623 -0.26126650438880805 -1.3681991775418503
P 5.845292202544055 5.345145105881733 5.849786568726332 -0.6643753708691204 -0.2052560504614594 0.8551638238420239
