# total energy = -340892.11398997536 ev
CRYSTAL
PRIMVEC
9.06460073723763 0.00000000000000 0.00000000000000

0.00000000000000 9.06460073723763 0.00000000000000

0.00000000000000 0.00000000000000 13.26695944283236

PRIMCOORD
 96 1
Ni 6.624573418331254 2.0503855043338763 11.521399481078866 -0.871379514369938 -1.7980416033622648 -0.9456609986923327
Ni 4.529417850707834 0.3683609015825455 6.037368579315934 -0.4195197037381678 0.05103305531741534 -0.8090534026372067
Ni 2.6850344638710584 1.6429407635357958 4.839733581147518 0.23947537665564567 0.33906782893900317 -0.22518801349869605
Ni 3.224550438143255 4.393158771669886 4.787793418635048 0.7233739608905155 -0.2130441790473105 0.37518411504558613
Ni 5.286928409319016 4.511560587156427 2.9794807977120366 -0.9663483518383552 0.10864299252139999 -0.7424368910592375
Ni 7.264633944538584 6.005506507547813 2.5265997454665294 -0.02172916414697548 0.6967704993703742 0.4218897466322412
Ni 4.964881272540128 4.441255543448449 11.538115511391126 0.22658746494938398 1.88168987361154 -0.8335246483056935
Ni 5.681818678026385 7.8375892311159285 12.348753695217942 -0.06954936895404797 0.644388129113916 0.5678654141658285
Ni 1.8358264036933603 6.531461839041885 0.1794047658663696 0.9507463836350399 -0.28278303830434526 1.8304974098981248
Ni 2.860760814737854 1.2768668607319407 0.47283042565867345 -0.14202542463658765 0.3807101870701379 0.35504826352765956
Ni 0.56965486543061 0.13141767575733587 4.571913605659791 0.03345210901085852 0.18996261463749867 0.4849349959191842
Ni 8.593431903182207 2.5111119685609786 1.3464902464606978 0.3602087246826764 -0.472344046628051 -0.3364195926828787
Ni 6.8212571262187875 0.5337028457871619 5.063215874803265 0.08951115678795551 0.7731304634883525 -1.5195998727457507
Ni 0.8770345716752167 7.3937591827567575 2.5378897057473817 0.001622108984455271 -0.1705618415133837 0.027823449970171436
Ni 7.429954133701311 3.9395026960570463 3.8666423413870668 0.9284793447067236 -1.7149324934459111 -0.3048564731646169
Ni 7.448047076873194 3.9929657115018182 12.434789447132575 1.7646488868344319 0.5189679171341771 0.3012985806100295
Ni 7.787842701994038 8.747240049344787 7.071143695508493 0.5254324418125983 0.3488614179906573 -0.0762532633367848
Ni 6.919055104115304 0.7310845279353343 0.27477886951230357 0.09613586119332476 0.1832183539351296 0.3571861358062687
Ni 1.4731426615840362 6.636167042738488 9.127761112883785 0.8138605942178627 0.1287014538341719 0.20463744304085404
Ni 0.12315982443990833 4.848664025843378 1.2976175448547238 0.2424807391408727 -0.2823454365462944 0.8029794285289849
Ni 6.436773019215487 1.8374670964359006 7.155003943234123 -0.5573323758449885 0.39227115243485994 -0.45273347148597515
Ni 3.6310705896610087 4.396884322593555 0.6844453439634044 -0.9032298261113155 0.009721341052821967 0.3094165817314736
Ni 6.184604889907565 5.6142511437562375 4.986187616691185 -0.6504500190372798 1.2199768800659312 -0.24343076175896783
Ni 5.301322995369591 2.506942252198721 9.284669352515698 -0.48363684593305095 0.8515557947757914 0.6215837296248907
P 0.25975701308723115 5.3376811091283205 12.502981532396985 0.5787180406096162 0.8082231934264273 -1.1398836741577658
P 4.154451574531426 6.126609574069034 12.82518276738926 -0.42320460878892274 0.8937463121009124 -1.722620606118788
P 2.5655539608908033 8.329760795474927 1.4879823195332795 -0.6911269279313517 1.0296545680961686 -0.43565569006808197
P 6.203368613537725 7.633137160353494 5.791545670559273 1.3391796503810485 0.40985261296204895 0.6200392679559064
P 4.819466946706789 1.130527945618274 12.603638485381882 0.19082316286558101 -1.5314264330670333 0.3782833227962001
P 4.0790612897816505 6.187695918776107 8.038623040921392 -0.8302128103236412 1.3626988165489111 2.3747523837338647
P 4.724524318058339 1.1159158091487973 3.713846711132452 0.5113060297135452 -2.081892677919808 -0.3213411010832014
P 0.02981256553006311 5.476106627754485 3.612819015975344 1.156913375946543 0.07677802549200326 -0.37708750271588604
Ni 1.3144668247985594 1.2557735346993897 2.4974516151741915 0.966056274519233 -0.16098473934790986 0.13369350773212457
Ni 1.6872122737820265 6.4922846344382386 4.776357518281516 0.8885190022637021 -0.38761077084471307 -0.3920564653208925
Ni 5.857245897067194 5.768041160717242 9.51698691255904 0.44155740026449763 0.3142070611415814 -0.8418686493950146
Ni 8.683035481966808 2.4318239054725717 10.330026309134466 0.582966531473325 0.2478682287050312 -0.46369871224822723
Ni 2.28579318678568 5.370522157781493 7.0111904258998585 -0.7017877500793075 0.07241074966224305 -0.0142595952428077
Ni 0.6673286582963368 0.14324154102457243 9.138533484459671 -0.16391271162798224 -0.9445857633502829 0.3389511008554808
Ni 1.6550691993894928 1.0010129295662378 11.444609621967498 -0.5774322319186571 0.06772105749605756 -0.2039005648748295
Ni 4.046845698582817 6.671546179612165 1.7555367022179322 0.4879426723972564 0.7903578831102324 -0.34157079786651495
Ni 5.472743660862316 7.9644211253348605 7.8268821246657145 -0.019781553502301416 0.05667945496991529 1.381185562499189
Ni 5.034787473813456 2.7040066733193306 4.928582985146598 0.9509695553894396 1.5947089951757634 1.2018585731986655
Ni 0.5621040529746087 7.38955320799135 6.706169328780163 0.5515453368495662 -0.34425322979468453 1.2812727507619353
Ni 4.958381953775478 4.725820555970954 6.984496989500779 0.9488573941424433 -0.49059065154306486 -0.7415071801561165
Ni 8.217024355480582 7.265313789597648 9.342009297717292 0.001866106674461302 0.0034416786916972985 -0.5496368069729437
Ni 4.856840295753719 0.3007562024491684 10.511557630345589 -1.284262943738511 0.3478262918579235 -0.4322698043149846
Ni 8.374249856140057 7.2046988041315245 4.696954334763109 -1.7738639776747969 0.1449423411730665 -0.19607669795503652
Ni 7.309358684824192 6.248573777665069 7.269431837735417 -0.4730094481261918 -0.5065757141174114 -0.6138573075149105
Ni 2.297205519177164 5.188958204007537 2.6838524399283665 -0.6436178266067948 -0.23780441671112593 -0.2614477671616787
Ni 2.5078940352814105 5.1612930424040355 11.405313671093534 -1.1483690859209577 -0.8234459239134527 1.5335900163772556
Ni 1.023284653701166 3.255542308235774 4.00614382812671 -0.7692542683623979 0.5457112466662923 -1.3979599537440506
Ni 3.8080297262349063 2.6610948531912273 2.585863198955234 -0.8280721098315545 0.2312524745252211 -0.3367078133472588
Ni 1.2836018591170657 3.3914569324437966 8.21722287023783 -1.4513121441129457 0.5061393979109412 -0.0582506561117771
Ni 3.696381038335065 2.915003385850353 7.198612831162786 -1.2921120074692845 -1.630077604483044 -0.43166765195461143
Ni 3.957785995845467 7.012175748005461 5.963511118559328 0.5175173007305797 -0.7477914705029315 -1.030997198166992
Ni 1.0305272697303915 7.382093041543223 11.467190448989282 -0.6910328255556486 0.43074565436097423 -1.022021477030943
P 0.08078553513850481 5.416352779363176 8.100779008521393 0.05587752789391022 1.0312900468170627 -0.9547444490508394
P 8.630696477019688 1.69731023905932 8.16045399488585 -0.38736908714755225 -0.010595001907026915 -1.1081655171188785
P 1.8691206823859081 3.274759261905309 10.376288405713636 0.23302062216923738 -0.172000116621807 0.6881009966208343
P 4.135143974854015 6.218696853469415 3.8550070198162105 -0.478310548624131 -0.7592382788872925 0.3200658339152036
P 6.6424034880803 3.842538661432982 10.343545254748967 1.339300492229629 0.8078375279522345 -0.6576241681882158
P 6.339799919990635 7.841332911241174 10.255240633257218 0.3548903977935566 -1.1927105881508104 0.02675438527570876
P 2.2887573112431983 8.408523111717656 5.727360138842947 -0.7083728594959929 1.4543925828104822 0.7418151983148386
P 6.937247757895849 4.073287139080002 1.4359623885338797 -0.3481188833976779 0.07662633040548739 0.08425659325723554
Ni 5.378072970237494 3.0759816312358588 0.060711976694549454 0.8912531133654134 -0.709620872970481 1.9239256423522997
Ni 1.5050500563560942 1.1932005954631633 6.925976833276652 -0.3711765365480898 0.015378025117967065 0.021848463333659147
Ni 6.996176727615494 0.5276939219251172 9.133266951402124 -0.19836292288605192 0.44546701973154895 0.8301513609580864
Ni 2.621953906990731 1.6727633001267252 9.154480836625149 1.4129759675369085 -1.3484114533919618 0.42595028985486
Ni 6.311463977928859 2.132701144085314 2.2484977933055226 0.1975291141308469 -0.27998593517518233 1.2422801715488219
Ni 3.6548107791235145 6.6852065329989525 10.265561587713885 1.4996625103918753 1.5141123672686183 -0.13310703910103527
Ni 8.288843187520076 7.088717237055251 0.5285650300607976 0.5617029941088585 0.16397596076574986 -0.39964507630142787
Ni 7.5757219789653645 3.811383628526287 8.215949293827183 0.140026649039004 -0.1641487388981883 0.2969403036413337
Ni 3.1749036196300264 8.302648574519464 12.392733325318813 0.8549277965718179 -0.34123886844839296 -0.04088259714697475
Ni 0.27918154611480034 4.9111825774748805 10.208076608899692 -0.5799827662546527 -0.8685096490213107 0.9329476648907223
Ni 8.444708998061424 2.2893737040967497 5.8138473078768 0.586895434214086 0.27043660092385036 0.2999004147109222
Ni 3.5510845523119627 2.738778481940244 11.85840683499747 -0.5395552543672257 -0.7144925992404856 -1.1371529054901641
Ni 1.3401740326319562 3.106329914672464 12.568308297352457 -1.5446475597429978 0.9754945371139974 1.1074777470232346
Ni 2.831563735601263 8.099374901859406 7.911393210727888 0.7042110148088194 0.9224089701429274 0.10330203992446081
Ni 5.835001366734627 7.819759161366885 3.6515982846044186 -0.7237642543503987 0.16976917040875922 -0.85372426318202
Ni 3.1697730555842925 8.531094643566457 3.7247251385375506 0.3754391684791857 -0.6948797101055646 -0.7277183539021403
Ni 3.4879224140245473 4.421458455328512 9.28115319387022 0.2851821346641411 -0.32985196676768996 -0.36805367464839195
Ni 7.654475230607307 6.3251152667148585 11.531216443731747 -0.6364380210289039 0.0891198348868078 -0.4247369862730491
Ni 0.5840421998005563 -0.0941159370566266 0.31732085392827614 0.7723208231028634 0.5749955974527066 -0.18043976274872794
Ni 4.855154280007241 0.1531980985295806 1.6311332145499768 -1.409249924835573 0.3154504466303793 -0.18980886266845373
Ni 6.227725195853782 5.837602907160645 0.28876736144759907 -0.9030153961076642 -0.3979625463926824 0.37787606005545243
Ni 7.995349543221867 8.900023895618379 11.412861764169302 0.5618266641709162 -0.6960045677386271 -0.10251451102615892
Ni 8.81318502007397 4.812858852732688 5.728726174181626 0.2543309536112394 0.4836461019044316 1.0353637026658038
Ni 8.241480648405302 9.056723649432177 2.4266724928450265 -0.8008251011901434 -0.05164163543569171 0.2613058422671758
P 8.357833864113866 1.7867869134328955 3.6273323482962367 -0.25689254369082853 -0.17334763178863694 -0.07890741313018024
P 1.914253329706953 3.2486894700404116 1.5832793740725195 -0.5844626564028773 -0.42350877029290285 -0.09700103740709747
P 4.49990351054368 0.9616181745436909 8.09146513121222 -0.06464241857073383 -0.09425278523799896 0.08960294517081342
P 8.687594976162929 1.6272408749718172 12.450153039007336 -0.03151041190345542 -0.0596652770711166 0.37330746684816357
P 6.571327953305383 8.009988873493706 1.4542973565467894 0.13524131183521867 -1.807227126516275 -0.0010004162400563416
P 1.6026576776360724 3.5021900956640986 6.023863230602613 1.1799987970110968 -1.4208481711961336 0.3615647244899386
P 6.710696190413449 3.860214632968639 6.111092790440963 0.8721637008341302 -0.9918369830277627 -0.20921503510920747
P 2.5932191224943035 8.547583152398948 10.167506175155005 -0.9652664316280861 0.5590344461377598 0.031232732762036537
