# total energy = -340891.1955114825 ev
CRYSTAL
PRIMVEC
9.10063402522612 0.00000000000000 0.00000000000000

0.00000000000000 9.10063402522612 0.00000000000000

0.00000000000000 0.00000000000000 13.31969780210035

PRIMCOORD
 96 1
Ni 6.635190380997903 2.1525456702198915 11.62531283830762 -0.19975697502010112 -0.0005736131152828831 -0.07449128634035558
Ni 4.768613934567767 9.328331915125094 6.1061095493555415 -0.6964493685855295 -0.03703596970737492 -0.9935393104308502
Ni 2.751476598395159 1.4871983147392223 5.003291074781753 0.2982525946948541 -0.7900282676849555 0.017727756297066244
Ni 3.4080600432845563 4.415391025139902 4.976426003062714 0.1337649844000083 -0.8359419994979346 0.17845332844631845
Ni 5.076470183250574 4.24725681104463 2.9420284043486657 0.2578741908778075 0.19529842502811529 -0.7480390677373633
Ni 7.05334631438083 6.054779243116755 2.702220326656634 0.760253093305052 -0.2651100465046144 -0.5532731181739504
Ni 4.975644258597718 5.04736635555495 11.384172427790498 -0.46990098440419714 -0.6118770438600882 -0.6852028491374329
Ni 5.6608036944077735 8.064836285997558 12.51512187227984 -0.010892221432471563 -0.07397140928114357 0.48182190421149923
Ni 1.964881495450819 6.826203589097803 0.22489941898941374 -0.12374308138763204 0.028832350850660025 0.4558524767309311
Ni 2.9648045611885165 1.8242311961900648 0.40460326915393213 0.32807841980703495 -1.0983104787016698 0.037768734108341404
Ni 0.4780735979123919 -0.10999390339600003 4.737563481248597 0.2831882441625639 0.5676941786952867 -0.42420502502897905
Ni 8.630659107494687 2.675722920553262 1.433105966065908 1.3302954605175412 -0.5406047786776624 0.16484087986920642
Ni 7.033880058145388 0.658307104978688 4.950811358462304 -0.38881610400672395 -0.8828211805479762 -1.552243626922701
Ni 1.0714449487458029 7.620479627181327 2.3772193934848365 -0.1436174517140559 -0.887149375609685 0.4262439098358788
Ni 8.015428943733783 3.8078964003224884 3.646120799238765 -1.5356854654537038 0.05872759574819564 -0.39408120906040517
Ni 7.699782552303178 4.1208308028058465 12.90056648662926 1.4149256350641117 -0.7781757392217437 -0.8140487989692691
Ni 7.807379348690102 8.748885444453371 7.250404163617514 0.008481812218766038 -0.311508945484128 -0.2787273801777329
Ni 7.042707673175017 0.988365260492718 0.6912404794830438 -0.5925624026918763 -1.1207214994070183 -2.2399931537413877
Ni 1.6659529687722041 6.300223343476675 9.21239620775709 0.5087760642028399 0.6191684353151788 -0.7583106248667005
Ni 9.51016258346737 5.079382386146948 1.6588217119297113 -0.5142448006268949 -0.7416545043672581 -1.8067473586663787
Ni 6.514370363334637 1.615189632034806 7.002564776375329 0.782285133404427 2.193010357233945 0.8217484816063718
Ni 3.5547076603850285 4.460994302370289 0.12883585613553192 -0.9150329893938306 -0.7434506770357325 0.06968075232558968
Ni 5.705788128522682 5.6414375451468945 4.937705535365223 1.1637396548397572 0.026331438805677235 0.18096375357299804
Ni 5.4094623831827 2.9171354400285145 9.24762658229596 -0.42051112111715966 -1.0412335311830196 0.3413964770721798
P 0.3388329868661631 5.67858633334375 12.556638964821257 -0.6147901037418251 0.0611212927913528 -0.3902417807096569
P 3.9464080505812187 6.460931440186196 12.727623497501353 0.8734860191899796 0.5132559543510644 -0.5294143092784818
P 2.7720531319848427 8.76481155404291 1.2586768433974447 -0.31860287621643196 -0.8730134504289351 -0.04463152266644571
P 6.33065586374377 7.734155647114428 5.899227565660624 -1.8269845116488599 -0.31403839677420115 0.7273123767129732
P 4.894557609201839 1.1570273113629579 12.624356782795974 0.5669858397743526 -0.5307713375270084 0.3647176682966235
P 3.7127037681473034 6.073426442287593 8.013969202031976 0.7520219636445113 0.7176213746774545 0.24669683410474935
P 4.746417488116976 0.8448182294134778 3.931841575718924 0.7331012154806085 0.6612013440165129 -0.18225933245597
P 0.186622152170214 5.895818468145057 3.517679000557649 -0.6755727822468365 0.789361323524918 1.0086059749559855
Ni 1.4600147208283925 0.9233867333674002 2.269143903746822 -1.278755126546404 1.5855736085333982 1.6210597172551502
Ni 1.7024192094152222 6.555323216564879 4.982925675902055 0.4443115659708671 0.5734997296334704 -0.9852878690553353
Ni 5.739815399239988 5.412811416513529 8.939475473069892 -0.12738299213306448 0.967907983015991 1.1784337665168219
Ni 8.866674950977599 2.518154542591392 10.437941282827861 -0.3799475978725005 -0.11557288687201386 0.3650215726902875
Ni 2.0191758782000693 5.109787604511889 7.005481529588727 0.320308546053629 0.29201586975652294 -0.08771395567821667
Ni 0.409132654721197 -0.16385600602781977 9.232269262334619 1.0124366615559854 1.1224454240766604 -0.14579954696703923
Ni 1.6412356466892402 1.2239442735411739 11.387156525695875 -0.33013555944637984 1.0141978672214662 -0.1765417132459024
Ni 4.163603782846321 7.004439506989869 1.613908262760402 1.5717816969556286 1.0278329415063976 -0.6598839107566701
Ni 5.346913725349045 7.759537315483127 7.984399421872932 0.8073875848990095 0.2869245712765446 0.7059184844182294
Ni 5.259647745432423 2.749874886802154 4.982672678275433 -0.3358210398669313 -0.6137891732811365 -0.3695641977556474
Ni 0.5899167501475887 7.422422528325824 7.208220904663555 0.8990481839297999 0.30294305819198797 -1.095491521195636
Ni 5.2101675980962385 4.1325797213659 7.01347370641246 0.10201983077792752 0.2301348159810101 -0.3126931956002163
Ni 8.256086110582789 6.981424003474474 9.169573174229331 -1.7217813980469443 0.3705219336832264 0.5573958820930723
Ni 4.885447874516623 0.35968162941397686 10.439259964701876 -0.7579247022821914 0.3489493497187732 -0.3737324702007241
Ni 8.020516198168385 7.216720896867343 4.951624045083074 1.5076342157434421 -0.8799883390848716 -1.0816060214627952
Ni 7.098631069419427 5.827663819735883 7.020372897086649 0.4402255688269515 0.24819013082082417 -0.5978470481295833
Ni 2.7032796404601895 5.469754083771668 2.293824823293581 -1.4173501853452042 -1.6698957649212467 0.6071927510105415
Ni 2.3861407450451932 5.703804190299528 11.388501599408636 -0.9420789377680291 -1.3031189001027492 0.42923050326802853
Ni 1.172926119050343 3.170296878063821 3.7440336109318433 0.7599859556865944 -0.3417340629172566 -0.794906164602547
Ni 3.4077142191906122 2.3916830311823527 2.9914976309239885 0.8707624496112293 0.6729366301755701 -0.9934585777915858
Ni 1.064619473207429 3.3092453587570074 8.447711791354333 -0.4188607299979303 0.08272524421437366 -0.014663515549445715
Ni 3.3724674635104503 2.6549552736485036 7.309716635982577 1.0307783972879667 0.3946373386741913 -0.8236863220590329
Ni 3.8882367977261723 7.061200161566985 5.9745507835119005 0.5329444339189273 -0.8339429667900348 -0.1175356670253395
Ni 0.5715116278425126 7.608930922570399 11.225161599331518 2.067368516161704 -1.8450040881547323 0.32901584401963985
P -0.02544173255343673 5.48835577977225 7.832049347475999 0.5154509051198541 -1.6174897405157045 0.6326785539864717
P 8.567345996400732 1.5447416238447382 8.154478441464937 0.7886262451311064 1.3201426883542555 -0.3213835242853626
P 1.909922766415834 3.5895448875328877 10.767217693876896 -0.2557095791263209 -0.6993775979759181 -1.6248549226315243
P 3.9380991716925053 6.097597726327487 3.8490330863605644 0.34486026725106417 1.7940203980180136 -0.43302082354839616
P 6.791939701895167 4.152746726423282 10.52068333755765 1.2715313551044551 -0.29849093595790527 0.18113576037448806
P 6.4309539516216585 7.85806988035509 10.357943069264502 -0.20896229566845304 -1.2752666537771715 -0.5602536632568417
P 2.2746943804546276 8.536094419069032 5.9047015970424 -0.4090033775878763 0.3878097742293966 -0.027713663865184528
P 7.014941638684914 4.054942212275412 1.637790146637469 -1.1368711125836872 0.23401538198233893 0.8955941639429286
Ni 5.370038436473053 2.844221160010581 0.6688156071175683 -0.40031253468209765 0.18965382514782822 -0.20376763884139099
Ni 1.5105232398123578 1.1791691540094422 7.039113832788212 -1.3327079266137758 -0.4794891423132646 0.8097748541842634
Ni 7.109924956276922 0.6848099714624907 9.516111667946616 -0.5176281152768311 0.5266087215088867 -0.911570741876843
Ni 3.0033912495654556 1.9242562650464188 9.412857694128908 -0.3688419748776422 -1.5738126113427282 0.44882462334987216
Ni 6.425420766118551 1.8973092876209194 2.691738216356502 0.3939202580025086 0.7575886590990114 1.7396315388544876
Ni 3.9897634712009684 7.060936243179501 10.227622899715225 0.46729671401213063 0.5377089451871061 -0.43183194544661757
Ni 8.459012048655666 7.263889483154531 0.4616524138304699 0.0001956609505738566 -0.08435223829483537 -0.3137733160382725
Ni 7.491041309071608 3.6724334624708983 8.341541064323227 1.2141515316334057 0.003237790211007327 -0.25198636463846286
Ni 3.209365900045472 8.660818608740247 12.257066113251819 0.5962511643973731 -0.45070435687108834 0.7321398800086036
Ni 9.055777025926755 5.010363177502913 10.29399564397718 -0.14372235272303635 -0.8208714783180573 0.6616872825139959
Ni 8.676817523402196 2.2571392573699303 5.742068716231056 0.5702146311242954 0.38602825684894165 0.12947715565793183
Ni 3.8089975770426796 2.672574101171559 11.567904218586062 0.38608070735343186 1.033986619812619 -0.3440331433640785
Ni 1.1015771480892098 3.3412249868128012 12.834714298635031 -0.14197837344873615 0.44902182696234283 -0.3232486025185594
Ni 2.905741446196456 8.222013336695227 8.027848579023408 -0.0013544571453654093 0.5214138075715083 0.7083589755389219
Ni 5.6859123437549375 7.927635127042195 3.436868100373519 -0.009302508347848496 0.028680398653828026 1.0598526889461037
Ni 3.128534068403025 8.394242836113524 3.6944442559870456 0.18370634931514168 -0.4952795723783019 0.0746982601448391
Ni 3.4567757373604424 4.364263663040457 9.222811883428646 -0.662347284695498 -0.17115422368174393 0.9214314367210066
Ni 7.213289957830054 6.116845567345701 11.69324270105573 0.40573164881513996 0.9167707980205437 -0.9831235144141649
Ni 0.9621918369615675 9.237325574613445 0.022455814521249506 -0.41468937222906 -1.3707846788808393 0.4342433831015876
Ni 4.767103229315274 0.4201808244593112 1.7436814842032038 0.014594352874407123 -0.14677810883022466 -0.9718227446893651
Ni 5.807596921653064 5.273535312994501 0.30414956043376834 -0.5126136927813753 1.7682597441141419 1.0206168833739324
Ni 7.98431387591285 8.880071084300914 11.558660704580292 -1.0397160660972287 1.3458992284930693 1.1996723641806242
Ni 0.19612139399281997 4.785113384102529 5.388963204982451 -0.9080200484111071 -0.15956651884414452 1.6312721390117777
Ni 8.01884168150297 8.725059984507421 2.379950493763591 0.48755726403337973 0.14966777167319384 1.5597131958268686
P 8.602456242570126 1.5210890759457605 3.3851082442075184 0.011792878869870013 -0.12669213671362697 1.0347006151605083
P 2.086811790468327 3.413484021179051 1.5343760016604613 -0.419915910735322 0.6652603445772349 0.8293599754050428
P 4.833374046475857 1.0093058194444484 8.12075331179813 -0.8534373280692206 0.2741814126782633 1.8653805949285553
P 8.71418472681628 1.6072811810443437 12.692526902283037 -0.8677863977020409 1.1651846148163998 -1.0104491988123114
P 6.480343092617331 7.747360667122669 1.2437572639339651 -0.7941464036183871 -0.19263990435934567 0.3828583437613923
P 1.8309383634857734 3.2352663045550876 5.912800251284532 -1.5112101060201586 -0.575148320980487 0.14711106668961116
P 7.021221076180217 3.7579703219177976 5.72479298261173 0.01569015704174717 0.7077267412715618 0.6110103249844187
P 2.423735464310556 8.721092108061113 10.228901538799414 -0.1626770394486682 -0.49699141286308596 -1.2156281161789322
