# total energy = -381173.8326021436 ev
CRYSTAL
PRIMVEC
9.20594296727334 0.00000000000000 0.00000000000000

0.00000000000000 9.20594296727334 0.00000000000000

0.00000000000000 0.00000000000000 13.47382808358099

PRIMCOORD
 96 1
Ni 2.2804593666542394 0.1787140501175624 10.449653887887946 1.0661356937413382 -0.6411876198987474 -0.2650681375230854
Ni 8.722290336144319 7.332874188734955 13.293804189207203 -0.7702960793633508 -1.2034056059708114 -0.5637336513856421
Ni 4.272422892780574 4.795357276766378 13.41509524950803 0.6385733222043518 -0.09638834352376302 -0.20041183499528067
Ni 0.7944903688702285 3.9643275996876066 5.879264080460662 -0.8986710030960394 -1.596623952810289 2.733278835618112
Ni 5.315677172951112 1.0091830852699772 7.828401559930037 0.726731821619155 -0.01648514213921677 -0.31181310698810816
Ni 6.326581769554892 0.32264436534934277 5.432553063007597 0.8029694012266558 0.4678957810487103 1.5095504589295488
Ni 7.592454162420746 7.058021555676011 3.870438028611724 0.38872097318975635 1.3404975978615234 0.7682055153829093
Ni 4.5658439127928885 7.110891286103983 12.538340574333716 0.3549893852652661 -0.31874968620694133 -0.9067612363033415
Ni 4.916829694143547 0.3871872314525128 9.999129768860222 0.45509708662214526 -0.21880396434922314 1.440663406149848
Ni 8.88764748361902 2.0973071314349316 11.029298721705265 0.6725581637902288 -0.9810812871731556 -0.9399449221441618
Ni 7.4967860031647 4.584430711632184 3.679352111748184 -0.31610479238492656 -1.6615599913620416 0.54279921522582
Ni 4.8097277537293 3.8803601939356436 3.7916029360608046 0.7681468942308318 0.752021449423879 2.3553089302972725
Ni 2.358065465819797 1.1011320435695726 1.0501651815517463 1.240694829339573 -0.5156056855301636 -0.10202754408741137
Ni 7.570590047887151 0.5744572849585058 3.422244854341855 -0.9365035005627806 0.3189921412350506 3.760679060462465
Ni 6.848475881986046 8.40664616982291 12.190944190143753 -0.5024125838786574 -0.6699029855555688 0.1971838149762862
Ni 7.672260481954106 1.1478706159851757 7.7459282787207275 0.13930545460226332 -0.06416419338273464 0.8413122626709124
Ni 0.7293159750798985 3.9641434808283766 12.00227023033613 -0.7436725632385515 -0.24798315701634066 1.4009092661803615
Ni 1.0444326408696119 4.857101536209248 9.948117797721885 -1.8069242505638752 -1.204572886806035 -0.9520213936927218
Ni 1.9115404084145537 1.267538668541888 4.641141161463699 0.973460280292788 -0.9851073776134132 1.1088355466027096
Ni 0.8507902336456594 4.2652974929283625 2.179755556598245 -0.026709905191018516 -0.7047527462449024 1.1135964583264628
Ni -0.04218899540402335 5.616195974986754 4.812124060682182 0.47935595916950996 1.6950249558887065 -1.8294576557797007
Ni -0.10618686968387182 8.450309957289367 11.116783718262822 0.5405790676460496 0.899122231700845 0.15365812377950955
Ni 3.2443400066106096 4.4826037765348845 9.170354627212726 1.1963535842200363 -0.09321508800210397 -0.7106269456374922
Ni 5.716467105723557 6.084649588526322 2.8511560239129667 -1.278061442913489 0.14398151992169397 0.6317228749414217
P 6.77581337419082 3.2712489778871134 8.149159627566565 1.380205715084423 0.07503558887959981 -1.0518218482218271
Ni 4.383023091520195 1.6724988934758982 4.6152439233186655 -1.4176432911055907 -1.3819229548858458 0.468853002755657
P 7.485389045778346 0.15215950764507713 10.022304809671537 0.08175722387414952 0.0694976897805061 -1.1491386170971305
Ni 7.596072098004622 3.9191540375754608 10.04616661382778 -0.1036519670647118 -0.17383022785201033 0.6792983107275398
P 2.395745390361271 7.939601065556452 12.317503811601453 0.29731157093782346 0.2876280251014724 0.5707283375359203
P -0.05241403625137622 8.031605259513817 2.8299354047923826 1.6417095322950175 -1.4826114684468594 1.0141927250151435
P 0.5868475635904066 2.7250143522657186 3.9426577305505006 -0.48603182852778876 1.394364008862676 -0.3574594440723134
Ni 2.7601534365498153 2.9083138825724113 12.940062148533867 -0.36406563653492136 1.3852131956013434 1.9057538565392795
Ni 5.384399537158809 5.140497284336475 10.946973656177635 -0.2737528097812769 0.12555133824096443 -0.5646245386310276
Ni 6.570704965008303 5.863716163392962 12.938768713547775 0.7702546846024542 -1.2268910906872612 0.42203861350527955
Ni 1.557452224285866 6.549384001109439 2.693741764025458 0.12290978685305927 -0.6315051025036608 0.4829004819876587
Ni 1.344758118103062 8.137685340259335 0.8824236948500116 0.11679236110141175 0.551812988688656 -0.308785633015694
Ni 5.836954487203844 6.669300614126111 5.235310211491397 -0.5558030836846557 -0.46389848696385916 1.4878279796507925
Ni 2.9730132497059265 6.591501190158362 6.877823507553054 1.7669883336008858 -1.4701624440502292 -0.1868559506877169
Ni 2.036032375083099 8.704670161315981 7.042770069971673 -1.1098824998099854 0.8978240817147118 0.02996055091783227
Ni 1.3889650562042488 1.8641850378205291 6.874387849639817 -0.6998450245306398 -0.7026418705494867 0.45160475719817067
Ni 3.628062121132409 6.933676884094852 4.119488244738137 -0.1192433937450656 -0.40327213153105385 -0.026174087292206532
Ni 6.117477981127078 7.498884958159925 10.12471908392978 0.16712273392484767 0.9423782141760028 0.6708026145517028
Ni 5.585834775099682 2.696319428054682 6.295471205910754 1.1877007936410449 -0.18842020985104324 -1.0022859462752285
Ni 5.292929287893212 1.7786802395939931 2.447561040320149 -0.7043262002304451 -0.531956358974045 -2.368344166214676
Ni 8.217151039903118 5.971287606898247 1.9105213105287142 0.10940532460872125 0.2967729248255341 -1.3100937887586857
Ni 5.613848459531567 8.443230587151964 3.5322853317494163 -0.5388836822214977 -0.14341999099126912 0.10496168701507085
Ni 1.6259812636913713 1.0583244087985355 12.322866273376537 -0.850203394512955 -0.3335247876335869 0.558477030972393
Ni 0.41351622832244095 2.359658093952139 0.6762013665691512 1.0695277501420226 0.6875273835055514 -1.4616243246722311
Ni 2.8429885113175124 5.162057602752339 11.38821450232297 1.903564047976812 -0.7510081776680163 1.3589110673717049
Ni 4.052713858061097 8.2603545302215 8.200656751898975 -0.8620811197871476 -0.7936465811638331 2.3785563308609876
Ni 3.280731099137472 1.5282509732119456 8.811641377340173 -1.7473793011207064 1.4568778111261813 0.2635311320532688
Ni 6.336910837557711 4.260584050132068 1.76606809773672 -0.8209707229000829 -1.4793297123717941 -2.52514263539538
Ni 2.888916960752502 2.4666771808797314 2.7585368729657738 -0.748382310009395 0.00017406368401905506 0.49673584520885417
Ni 1.7271637827813646 5.5564309932806095 0.2833534007896038 -0.32283696890243757 -0.28504509486564455 -0.23371816245689425
Ni 6.263125204721181 7.912581622964412 7.636696083105187 1.022683021874342 0.33186565476360913 -0.7426101834123081
Ni 8.682051159459544 0.5581572423508502 13.041075278273368 -0.6688200369040352 0.6425541612289709 -0.5131626233063098
P 4.422875618600586 8.878634865459698 1.9028822190592505 0.49060350705887124 0.33607712174179544 -2.0958522254236938
Ni 9.18736536861701 3.0434755371333497 8.263956815702342 -0.6567034561461593 0.7594141423435243 0.3846645437321956
P 4.917133490261277 6.266991700765017 8.912425279099933 -1.0920696399982803 -0.6827423034120822 -0.36845270985902345
Ni 1.0181404677715298 6.425407567246738 11.484094398267132 -0.6463444815093384 1.8522803101011711 0.9255498297647544
P 6.395414605078128 2.521489365272582 3.9951380495912 2.86796633183239 -0.17838545132286052 2.245746768395713
P 1.3818948920098064 4.922739909524838 7.94107033405311 0.679071025208082 -1.0287192007660928 -1.3080965558229989
P 7.785291049635567 6.831187121104323 6.4184193359446535 -0.32237159923024483 -0.4718773914042776 -0.07403183020543379
Ni 4.199143586806928 2.469669112342223 11.364446598784935 -0.13738484054078273 -0.6574079384123518 0.9591893721960705
Ni 6.016921466158468 7.4009337250494225 1.0359033347157698 -0.07241537764793335 1.3539758348536164 0.07410227843205303
Ni 5.263009973268295 2.8953519148826 9.603713344994413 1.0716813061499155 0.6126751142813512 -1.8669520531807333
Ni 4.265665730646823 8.496219994838434 6.045747114759559 0.07656282415740362 0.6029892544521551 -2.3832465372478056
Ni 3.636043673680041 4.563146571505166 2.2131979855945345 -1.8589466663777532 2.166496112993501 -2.5078108289851517
Ni 6.088267524110196 0.6878883111587925 0.42551065140699673 -0.3698714445834211 0.6957898806246597 0.027520574017771957
Ni 0.7472841345521803 0.5060147814168385 8.930049136305454 -1.554189180684846 0.32736339601788134 -1.0859365305173492
Ni 7.469195792109044 4.579772504493658 6.141290073191329 -0.3305405081942823 0.19501406101847704 1.0276632486977526
Ni 1.2471290929962127 7.88903282086886 4.881056320389402 0.23898095351773038 0.2750733283649134 -1.3202046519404422
Ni 2.2688598785227327 4.401646714131337 4.341981156609177 1.1677138089961567 0.6107421589246965 -1.6632422641604712
Ni 7.815348453404907 6.11846301702396 11.036304444298978 0.9562120347353015 -0.14961403561712297 0.12130644692168141
Ni 0.778081696135627 6.513232263099575 6.71105785080524 -1.598205438364796 0.9059284559894011 1.1465803694516512
Ni 0.5779978906215038 0.8757291331283992 2.7294470138016877 0.8295602643413069 0.4662664729754034 -0.7826175770431812
Ni 7.92437443589811 2.354171351947077 2.0947764177148116 -0.9056998849183627 1.210904742561334 0.32403690274780966
Ni 8.210633232286368 2.238029175544624 5.585521773038991 -0.17233590269467094 -0.2503079484947754 -0.7720631985661026
Ni 8.776494928301707 7.379069610515828 9.079406354913047 -0.2770353371872906 0.46268312649951926 -0.604234696823482
Ni 4.159871034133111 0.2689525442149085 12.629625784145787 -0.7346803870422701 0.3859464957684128 -0.553790167019685
Ni 6.544716588027951 1.482221258404379 11.429767367068353 -0.5981249843813182 -0.290880470600499 -0.398117841023624
Ni 1.8993885637053562 7.0778327449291885 8.975065276792959 -1.410115872380294 -0.32693762133437243 -0.9814656670957679
Ni 7.355437954933624 2.921441557235529 12.923166481416601 0.15259163018820815 1.0505509519292036 1.2207268708580783
Ni 8.705719638813594 8.808108136431544 6.27152838945645 0.07081872258477481 0.07138719349373514 0.1234839141889744
Ni 2.6448213831279763 8.786225610012028 2.9542984882594663 -0.3682069123968046 0.3368463958076522 0.49716650498836956
Ni 3.5044631309311307 6.995991912001336 1.0724361987642392 -0.009175238741364843 0.0059814143944155055 1.4086811968162967
Ni 3.4892180893868647 7.434719535718177 10.39857471336599 2.0127078913940304 -0.8291306330030559 1.2432775024650846
Ni 5.184418838205855 4.665986160328231 7.2795183845186155 0.10148658398227682 2.110910919529029 1.2736072637968774
P 5.01910772044596 2.6282875095690983 13.728888100699876 -0.070877086626536 0.7377721385937166 -0.6485168065703089
Ni 3.112602962831354 3.695026150234457 6.7938680695269404 -0.7066821020571313 -0.36721935167255465 -0.4433306901148365
P 8.684877383948727 4.454387561357847 0.3545613695969095 0.06794242947824428 0.4179577585676867 0.21969382315334424
Ni 7.925580414426069 9.033939123220428 1.5109014531066776 -0.09194856258485455 -1.3323412873029763 -2.4249462309794363
P 3.445186064201946 1.3056052426877456 6.682843476816794 0.4205633145113338 -0.00995196900638931 -1.4209412451305723
P 2.1320595661146444 2.7830486166950994 10.47704617116993 -0.3523082388886771 0.02054825646499687 0.5511167339525799
P 3.990481683641266 5.289790061343336 5.448749078459787 0.709328795651359 -0.7048738452037989 -0.23769231661329385
Ni 7.085731443990167 5.890441015810236 8.659399936802739 0.01399682849972428 -1.7911230218655605 -1.1516996929560874
