# total energy = -381163.43361424544 ev
CRYSTAL
PRIMVEC
9.29417119527802 0.00000000000000 0.00000000000000

0.00000000000000 9.29417119527802 0.00000000000000

0.00000000000000 0.00000000000000 13.60295901351045

PRIMCOORD
 96 1
Ni 4.824659977809465 1.5256288902410025 4.906736802704642 1.66722310318509 -0.37556026743808224 0.3648202553127588
Ni 4.773653566867927 9.347891398830303 6.739613330253675 2.609509271867919 -0.5701452113389407 -1.5868959268892477
Ni 6.719239577807439 5.95157822246354 7.284915359939425 -0.45085039553064926 -0.2869551674041639 1.0731326938844614
Ni 1.8011081213465427 3.947364580288745 6.871453005998558 -1.3524136325728193 0.5746389854442362 0.825137709793579
Ni 4.117178380272866 8.280186318190179 9.884603755594739 0.16659334378393892 -0.42932511986436384 -1.109486035702515
Ni 0.217331179098499 3.550141002076205 8.816363330699833 -0.9983030503680806 0.4647456654555029 0.6064535588516717
Ni 1.9116715806323563 8.026436859092895 8.765106906555975 -0.04014674742221473 -0.21776806688554107 0.14222468513158731
Ni 8.442481133762545 2.4717383305115685 2.384082214711107 -0.36242167317359514 0.16237827726132678 0.3613644355536745
Ni 7.373484163340917 0.9669934427096396 0.6432068279470766 -0.3282234300253315 -0.06437270984911495 -1.1084138856842587
Ni 5.658876892328358 3.015326515048334 7.795950710233709 0.7843070489304622 -0.8125719573134262 0.13053696438101392
Ni 8.141684580608032 7.832541861814764 12.890299650559687 -0.2756515694658866 1.1449739441964797 -0.4926619322497967
Ni 9.041369636284397 0.8131172873105322 4.470530682689606 0.7107449592725953 0.5223738574919325 0.0544204837324095
Ni 0.9824124725478344 7.9013094337091605 0.32680443211546345 1.6698078331931308 0.30354161100793525 -1.3214277257142661
Ni 6.603517853566715 0.32386189754839145 11.81163953045586 -0.6496920578253327 -2.114790199978777 1.8404100410261466
Ni 2.877466075271395 5.562449867270329 13.144811231686344 1.183294437043233 -1.3196426087893853 0.21491079994240406
Ni 0.05620185258080977 1.220752195978012 12.448162919972168 1.1839487827977802 -1.8777229185439919 -0.14644540808115425
Ni 1.9935904046190036 7.871735381301002 11.401292582664338 -1.6841731007758671 1.607962774861876 0.7857332398540274
Ni 3.7105305125751356 2.5861216941153433 6.613839959979192 -0.33398552932008935 -0.8857568661375327 -0.17819184725481568
Ni 5.513255819691327 4.879207467936268 12.932999860798155 0.36929474614434465 -1.680673829373357 -0.43244746754342944
Ni 0.8193257935986058 1.784360025042488 0.8702243921555012 0.09573913997553835 -0.5867725354829766 1.7617864776849723
Ni 6.859228382763972 6.717492273642532 2.970437527518188 -0.8630301139639781 0.8725439669916843 0.24071773370317898
Ni 6.1784396445976535 3.566312859772684 5.634250127191368 0.2980193956381254 -0.5588115314936764 -0.3960041371147309
Ni 0.3464067683612359 0.5034280712571758 9.833796239914525 -0.045988550914972406 0.7312723898019857 0.22583310328186265
Ni 1.9945291158990868 5.8105019994894835 4.176503074339892 -1.5557125593079077 0.4397339739025136 -1.5259918923150235
P 6.19619151137942 2.4415973336669237 12.492495186654027 -0.6266390326606112 0.2753510075063323 0.6639120580794565
Ni 7.094315146312675 3.6194755184070866 9.705793197995567 0.3583642152747699 1.6631378773721228 -0.4546911094329782
P 5.599357020668442 6.027111950911404 11.118664275156423 -0.2500030156598469 -2.3323602919208994 -3.7789961136040984
Ni 4.212787518274981 1.0857357725545917 8.604306593694869 -0.08789496134077121 0.3309693682015848 1.1703103660787393
P 6.054315989691632 8.033695606714131 1.1409989138553185 1.6630440321067357 0.4941698842538908 0.7707439655340468
P 9.020169632028265 8.008136636216822 10.884951190094812 -0.20389773666135202 -1.1085838356032198 0.2513731565344961
P -0.2879798912214967 7.461685846984357 4.0981225412871805 0.5558804738898103 0.7668857681302212 -1.1422339195574973
Ni 4.505014845684575 0.16537211562024248 1.4237266689938957 0.5677286314776481 0.8051527820312199 0.10763280608933076
Ni 6.927679952841311 8.829927243988477 4.773550401568828 -0.1638594897925436 -0.8619330242450575 -0.6807846654650792
Ni 7.830971146900566 1.822094359667606 11.012819466532969 2.44749969079992 2.780372189561489 -1.2970176723010178
Ni 2.7239542513790127 0.5549084849243009 -0.08497567685812563 -1.3284496655580542 1.1951083989590257 0.665964569733111
Ni 5.166639003063458 5.0742270599162795 8.616400169117087 0.12686080108100733 1.1026489581760235 2.038971195965934
Ni 8.15017015881314 6.9933432715916695 5.978310117352398 1.013689817236796 0.23668315862248915 -0.18960728818060893
Ni 8.574374715699747 8.009140406694534 8.667737452549428 -0.18540944804917744 0.5450353036451903 -0.9782967824494828
Ni 5.897188733245265 3.4619764951171246 1.2157398495092127 -0.00020568825290287156 -1.02177927911315 -1.048547805456246
Ni 4.412351959917968 5.593520281223967 3.839000121882809 -0.20533395488724637 -0.43236467802163603 -0.2530500300162868
Ni 1.4382636819956558 2.60525839238951 3.5383476283801922 -1.0070468579989817 -0.6016011158553768 -0.1693009725230891
Ni 7.241404697981915 1.492681053727199 8.554302094396824 1.120359230971593 -1.208903395860589 0.9192516554608684
Ni 2.3965670747362107 1.9180659703422283 11.640690912181658 -0.08132913519779542 -0.261328210864679 -1.3186913006197096
Ni 9.642609564092002 1.389980463183467 7.300218212638995 -1.5338715521734165 0.8916094682635677 1.3495735920208627
Ni 4.8575055784412795 6.207716283530934 0.9842871068566734 0.348449013043587 -1.272186472189951 2.7452560625846463
Ni 3.422820152315247 7.754963415727115 0.3313093168427527 -0.8042750074119568 -0.03196498294237076 -1.1839804073666642
Ni 4.729924491889803 3.883606566611822 10.86155497321013 0.33113674701738455 1.1597125359582352 0.7634988539358593
Ni 2.7920340546127536 3.8435301008720417 4.783181021652215 1.6458927171384299 -0.28494944982804477 0.1833494801963552
Ni 3.6754171341973785 3.4388433032742873 8.941265837143192 -0.28368086752826627 1.3629397289151237 -0.4203200881522761
Ni 5.776541098326878 7.1674881553036975 12.705299175014622 0.37888264694309587 3.432849523441443 1.1248396353404497
Ni 6.196516807367568 1.377005800341924 2.7587748633674374 -0.5875610928225429 -0.8854578468398749 -0.5194960217235053
Ni 2.049848022226353 2.121664082238246 8.902742427392537 -1.4386875133703996 -1.5804455432782136 -0.07052021750774952
Ni 6.32191376371291 5.86859986297264 5.252156530096127 0.027575338515107347 1.0817248064288467 -3.9000287380391025
Ni 1.0037611835414046 8.71044138045633 2.421626018828881 0.6850007604289557 0.6077802480828952 0.7648707945827214
Ni 0.8593037411248329 6.492099330540628 7.227374217304556 -0.006078602093912111 -1.4056817478683405 0.616883238825428
Ni 0.374476094469935 8.685914062950005 6.329810091470915 -0.07716857606220259 -0.7573117512885409 0.1696699258267336
P 7.774815765175206 4.462540483803593 1.749830320609178 1.019864064368308 1.1054596881519414 -0.9996821901037944
Ni 0.716575014530988 4.378753531427869 1.2274969759379748 -1.1098033098326177 1.1043885665749498 2.5863338621927197
P 1.621321675782927 1.7870832171718378 5.754813185152838 1.0301502767856645 0.691851464802202 -1.6641570626652566
Ni 8.24384610922855 3.246147254066758 -0.32560269579353546 -0.8366629368243592 -0.6702045759563876 0.04389181628694376
P 8.654685648087838 4.581069047713476 7.000789761468922 0.22931463407255992 1.6158547760154431 1.2431314638055238
P 2.6558930364874516 1.75067794901258 2.026201792139352 0.9060235868063686 0.3191518067413665 -1.6035219654817028
P 7.296147365701606 2.1966866312761653 4.257155102806982 -0.37346430414100196 -0.12469696066046909 1.8032843398184426
Ni 6.405988835392421 4.447995106047851 3.3032748060881247 -0.20516400496828538 -1.0419454696483799 0.9677305768978623
Ni 8.69707636242901 5.0335743555689225 3.824200083839204 0.316771479434648 2.3881030940091583 -1.4724700091374836
Ni 2.620807540622964 0.15416148645156832 6.927769176883774 -1.451658728819087 0.2747930781203332 -0.29975154783788377
Ni 5.758510406412412 1.9178429102360701 10.290543407455417 -2.6462251392317135 -1.0169774868491324 -0.15027198091609603
Ni 1.3658620892050972 3.441306258613119 13.036232077928231 1.4339361147283431 -0.04589753386306289 -1.3057650794763447
Ni 2.9176261885509844 6.848475026812923 5.915287272608688 0.02051148968979048 0.7794147538351673 0.8686402610619041
Ni 3.420273549436606 4.068978809000486 1.4874837532537097 -1.240043054688187 0.3873804000014619 -0.064832680204669
Ni 0.67779787390958 5.872131647986814 12.560917944800986 -0.08347754899936591 0.03500531243059132 -0.6612962177231643
Ni 4.514011603299628 3.032938969263752 3.1761008042303875 -0.8167713401067546 -0.258796959802393 0.40053082134049084
Ni 4.4608024738097765 5.251913022813571 6.224944888480338 -0.7252876329734605 -2.0371359425294076 0.7124526859923214
Ni 7.875322931341715 5.792833780247527 11.225011898435843 -0.4434646445895395 0.1467498266954505 0.22911434513629575
Ni 7.887489001298434 5.853459658267143 9.062604028973562 1.1856220567351452 -1.1142271499319263 -0.6104459678405164
Ni 2.3055306689103414 4.3398760137586905 10.901220636587736 0.15919602287860327 -1.8753420770166411 -0.025771966757781425
Ni 3.4583238858787815 0.44901534661117765 3.4843159647488813 -0.3642744101116178 0.4059165111324364 -0.10692575271997715
Ni 6.44489423557487 7.838146246981993 10.052477862072392 0.8467354905690126 -0.9517023197904061 2.009908988492654
Ni 3.3599172023785973 7.362154568782292 2.7434311163150706 -1.4494329248123619 0.10641770273530705 -1.2718604563090998
Ni 7.857654712099758 5.538666083451197 13.434730816414309 -1.101750100510838 -0.37052579033796834 1.3697914617296345
Ni 8.812463496510498 3.4213237907697684 5.250619274197852 0.8951799592236455 -2.1441162026364045 1.1024412130405918
Ni 7.179802931997855 1.1326341598743812 6.359356261365805 -0.002243544618538072 0.625509032821226 -0.682113925799464
Ni 0.8144305536855394 5.882494648752086 10.045893871272284 -0.2531348764206092 1.2267339962841066 -0.4221980219012793
Ni 1.9849375313342783 8.402023607008077 4.6115799525675 -1.0494122103390702 0.019867171237572236 -0.025700490089897676
Ni 3.9370201678656525 3.060812188362454 13.000959769224835 0.5441163913753467 -0.5498988023850787 0.26522883147066584
Ni 8.601773932072863 6.971399733648345 1.4671611187484679 0.4765912519401792 -1.3243410427063191 1.0716823345911801
Ni 4.474706553760313 7.17926387007464 7.6807615419964375 0.29064984264693167 0.922427996306321 0.4370841949844924
Ni 8.006426508736276 8.969414163706155 2.5404343372885716 -0.9170556762508141 0.02219581937074887 0.2676533817517584
P 0.3099057702397518 3.5533010202467814 11.214143294763279 -1.384580704223667 -0.007804840756399461 -0.9143591032552576
Ni 4.285598054593496 9.117191484036049 11.958742093964625 -0.22312290343955118 0.4630006577399381 0.44794196363460276
P 2.0729161548715607 6.049929140937184 1.4698406282736947 0.2230169739893062 1.0098840703374607 0.4502464433980633
Ni 4.793924154015065 7.989622647405681 4.284156528657448 0.6284544886027952 0.017471931532518296 1.680733736077015
P 2.5158391723332887 0.40716369419322057 10.17958401648117 0.8894859941626616 -0.3726598059618357 -0.5396125899677223
P 3.0164604039213057 5.573073104826119 7.9605058682151455 -0.8665687232448559 -0.2796501491023184 0.13247634749557186
P 6.2494099350403625 8.480819589508508 8.135793934971234 0.2093572171140265 1.0591800883591111 -1.3833398898380305
Ni 3.3916103257952606 6.261399415746373 11.051737878554944 2.041759300234032 -0.26941073076249733 -1.1162768333721031
