# total energy = -340894.6893115355 ev
CRYSTAL
PRIMVEC
9.02340368501530 0.00000000000000 0.00000000000000

0.00000000000000 9.02340368501530 0.00000000000000

0.00000000000000 0.00000000000000 13.20666339264935

PRIMCOORD
 96 1
Ni 6.307232937402253 1.8262737678575165 11.189438511306085 0.5081019209539508 0.5000607958170291 1.5836488807068596
Ni 4.759980862240086 0.5455549945139677 6.028155299603264 -0.7425376783031599 -0.5474703954492443 -0.18044259096220536
Ni 2.797002526620635 1.7906493696050996 4.7125601681833675 1.1633457618354481 -1.2961342412548 0.34642684040723565
Ni 3.4989421326119694 4.336196702178087 4.99667557233097 -1.2168167371703948 -0.05542167130341423 -0.38913440657809106
Ni 4.769545670281516 4.577464473321231 2.5408037291886676 0.7749045246696397 -0.6009807086625585 -0.16345788347875076
Ni 7.182530177442583 5.944636478593962 2.6082762311979004 -0.01785039791785958 -0.4485191762943115 0.1967690960363708
Ni 5.116450429859575 4.582138596496193 11.538503473756899 0.22338027086599596 -0.39970344034318905 -0.36623847581652413
Ni 5.411163821785158 7.721182268039859 12.458334820974276 -0.22769406775000142 0.200204604080481 0.005653855851667682
Ni 1.7237227835265336 6.38329120813924 0.5042675080287194 0.7440782833174024 -0.6491896642676175 -1.2809565050730973
Ni 2.7965242862185633 1.5945076409291135 0.23526901228848135 -0.6683171291256877 -0.40735890000591773 1.8833505491434144
Ni 0.7007557354111119 8.587167355345516 4.441929338693418 0.13025311459200792 1.0890694197193762 0.579041485387306
Ni 8.58298951938025 2.124208514944222 1.4489159227520805 0.12225518398819589 0.7592292800262279 -0.06028002783698006
Ni 6.83767373053 0.9999284935009151 4.886782244317618 0.023250742997824474 -1.2288315022430836 0.5356345791565807
Ni 0.5464122178761712 7.145696643079269 2.306160941124786 -0.3067225798390782 0.384865346889092 1.2603210882109326
Ni 7.6813890572259895 3.6823969555273424 3.852595495901524 -0.32683323454602425 -0.1500963745701802 -0.5307291714351634
Ni 7.41474747456162 3.74287180787985 12.463378903705557 0.7122343993339282 0.07903545406761227 0.17542611158422047
Ni 7.849630421313202 9.029539727261614 7.0100577393076104 1.323479208926656 0.03589671389660915 -0.039014176479668296
Ni 6.745707198871277 0.4652900129195144 0.3148121215779211 0.5672740604387326 0.7458831977366251 -0.21985605976282135
Ni 1.9007258727158485 6.644888708072327 9.25048859769939 0.16093434572594864 0.4772800504770877 -0.18350168950350332
Ni -0.10817076022551342 4.678941672598507 1.3074370720328619 0.03310860962851072 -0.24432113478372114 0.5233004830712601
Ni 6.387532207931194 2.265090918671423 7.1704658865450455 -0.10884919499493512 -0.7883465091071583 0.1103599752125067
Ni 3.1827530396122343 4.104439598653497 0.40010765079793736 0.9259146693033409 0.7150340735662524 -0.6274959813442677
Ni 5.9552119078624095 5.615444660700171 4.684799666353691 -0.2121985432175636 -0.41569518778575504 0.8165957337608388
Ni 5.280739543076841 3.1491679306214806 9.417605645671545 1.335869097950577 -0.4646417928877869 -0.3615166448608226
P -0.049542096293077875 5.572060135168859 12.465426314030653 1.1489563258829953 -2.1964759471850432 -0.9806786524180982
P 3.9569701101430472 6.003252509761059 12.689371856874615 -0.5832187566934472 0.4145425622385506 -0.155122624140178
P 2.24679145573933 8.374972991286793 1.4516635492130383 0.7387255036459213 -0.2612767888014532 -0.20807783618097067
P 6.480473267201685 7.840327291982341 5.874191667368836 -0.9776745754844518 -0.1357071957280437 -1.8002200990708221
P 4.6237364880725975 0.8929316781114299 12.649620153718283 1.26050723607981 -0.3166339254155192 -0.4094036983500885
P 3.8940499153573063 6.309362460702043 8.28221600945408 0.055917379992910146 -0.24243085973954379 -2.0913329973971013
P 4.7734708509400265 0.9966078808978529 3.7636084921817448 0.2911440086745309 -0.305440627802861 0.5764235881484847
P 0.09744012841148746 5.4067604007245755 3.5405481452518046 1.1306122761581687 -0.7462624354529148 0.07963503532482413
Ni 1.5681232081808691 1.0519123228657012 2.6250353990991706 -0.4185115741886276 0.8760512088139946 -0.04959092355425007
Ni 1.795702475740194 6.343696512209248 4.7853555761016935 -0.3043180841626436 0.3996995836884471 -0.7152623875269746
Ni 5.975018279231218 5.705074130771412 8.926542084441904 0.54652628636842 -0.30048636912137927 0.6090213195788479
Ni 8.800282106593132 2.3972837845270236 10.248542930228414 -0.10197097981786309 0.6309068067980296 0.007907684882850896
Ni 2.30030926375227 5.404414315733282 6.990855033653869 -0.8565283082897184 -0.8561012480546288 0.6591007527337422
Ni 0.6303930371606815 0.06182655824364545 9.072779878331923 0.018794249888367632 0.4897362739625694 0.04196323180566321
Ni 1.5282397633288722 0.9910043471301854 11.611285346569504 -1.6596707447591288 0.9935364822173726 -1.090179622064419
Ni 4.062679285808465 6.792962764638226 1.6074354715715244 -0.35026112655166125 0.21522036076302287 -0.26152335759462053
Ni 5.72406839579708 8.133398424414018 7.839964551149071 -0.6770231415401178 -0.5718470245213958 1.151246407468753
Ni 5.287200300206711 2.9519885105070376 4.8623107731776605 0.44970214085881904 -0.4873464335741543 -0.36470584122208155
Ni 0.921939214348017 7.61614082425658 6.930685172350229 -0.07427094279943337 0.34097790147752244 -0.400937055639974
Ni 4.908921165572001 4.7226690874747 7.001050577621803 1.1635501645367703 0.5547625582352833 -0.13458130965371662
Ni 8.081928929066553 7.251450935763749 9.117669507619189 0.09309424615352355 0.3910568204117846 0.05450224481293839
Ni 4.493871660400666 0.34509646945400074 10.525327721118602 0.44445709040979586 -1.243961930126619 -0.09693855960027821
Ni 8.124555488677602 6.923414113557981 4.690043166309233 -0.31721705161249886 1.051113252190577 0.23295557325925687
Ni 7.326841474618599 6.122171948608225 6.944222082749995 -0.7830436088370063 0.07603240557523035 -0.4521243771470665
Ni 2.209037534187123 5.073264419212142 2.5879248462388063 0.003975182597664122 0.5331848320645076 0.3156268243072435
Ni 2.2601009763630167 5.248516968061799 11.403451993573444 0.5693808223690904 -0.10117805160292251 0.6292864975857871
Ni 1.119064494039584 3.2615363783006477 3.9666080077553594 -0.9443448509840704 0.3656370947870993 -1.1454051181966274
Ni 3.882743590380032 2.3403100128538314 2.3812013719117036 -0.1479160790894098 0.7315750086440692 0.12456994816430159
Ni 1.4089774351368263 3.3213795923862683 8.270211273021705 -0.9818343632890961 0.15228824001517643 0.0026474649251760855
Ni 3.8216370997606375 2.769878174759752 7.006451987144067 -1.4057187717538628 -0.7223398631990463 0.19936488178800504
Ni 3.9544796506907507 6.688480771891331 5.830280175054864 0.884822013028089 2.012451038188218 0.9085196137553451
Ni 0.7163896848569422 7.345366522646008 11.476472084246705 0.6940466726813079 -0.18461420584139174 -0.646975430225118
P 0.20397945722767033 5.820727097438391 7.93465615075922 1.0683856661177793 -0.8066820741915526 0.2181359917479211
P 8.572901353917686 1.8683859934512428 8.068769196946157 0.3131601079343058 -0.9755009648719005 0.41624231853847665
P 1.8972428388441585 3.233257030751743 10.45969057944487 -1.2915059984541692 0.7719071326042125 0.8209488685232119
P 3.8847558094302577 6.1078337599498935 3.768310587908527 0.02602496330885195 0.533923510002745 -0.5568459231268733
P 7.111949112819886 4.17216926767139 10.297644684415433 -0.9219171181081735 -0.5504307636291488 -0.2825099871486167
P 6.182330981827288 7.863589627011401 10.119685114421975 0.8115468584830217 0.4385728637148769 -0.11421945816791296
P 2.618979792800488 8.666961315260947 5.757787953504644 -0.8327774857270238 -0.4340654627628266 -0.22653912820995178
P 6.742287328826276 3.789658156648539 1.6231389012267123 0.6520199346275609 0.0218219809710979 0.28687032099984144
Ni 5.316436128559759 2.7716377385032227 0.27566949817894426 -0.03096199559915313 0.25600859842397844 0.3449831659821736
Ni 1.598965202412572 1.1982087688805036 6.943614807673403 -0.3054635106209965 -0.22174016415941167 0.43960104786907517
Ni 6.960707841515742 0.81484855555888 9.174405061431727 -0.5218922898698237 -0.21966451257730557 -0.020081858351539607
Ni 2.9945519062913974 1.6639246864599762 9.440598180926607 -1.9921454938616463 -0.16500080248583843 -1.4676309358776272
Ni 6.5369597750689925 1.790333550471656 2.6724479720924585 -1.1953138301016124 0.8799495154271362 -1.0130362428131972
Ni 4.352113986503635 6.807219742662242 10.251936632402359 -1.50661425911936 0.22642394278832617 1.9965289676413231
Ni 8.151905425633801 7.188648045227573 0.17290195215645704 -1.0201044625138882 0.726376238051949 0.7336102939065431
Ni 7.825204067192308 4.020079796408854 8.155511177797344 0.37714972341238917 -0.08840198288417678 0.19993695224139116
Ni 2.8615379106888437 8.20223797210087 12.437969900909463 1.2808053242072135 -0.4264334001388656 0.6167528838951507
Ni 0.25334018310411355 5.052492543635378 10.105540928945615 -1.0297970072113038 -0.6420695082830684 0.016125444806952875
Ni 8.686758663225945 2.4067583585303263 5.961065389915689 -0.583858190049659 -0.32104850954344705 -0.59244593171867
Ni 3.661940899084022 2.6468982041968863 11.487050220536295 0.7192763937823742 0.36251757532151113 0.37290457498279
Ni 0.8903284261114749 3.256483272165553 12.717832574840154 0.14071776156875765 0.11278015461822513 -0.6724514630090355
Ni 3.24913822146204 8.596831420828885 7.861821039864118 0.018175385357446117 -0.647009368786847 1.0080290194065928
Ni 5.583971028201582 7.85323978283827 3.5467553447345397 0.009953254557969957 0.05564921393318803 0.9489707797918561
Ni 3.0152515946376597 8.318892536591054 3.57863593274508 0.9973291164905855 -0.5384206265421502 0.10375044031578905
Ni 3.417343491934003 4.341637814677127 9.272821522135745 -0.6049564054808548 1.173108754759483 -0.21366407201949653
Ni 7.0369916973480455 6.172305980191413 11.202552224067038 0.6289139447377169 -0.4087660647660896 0.7887825682033125
Ni 0.42537949785607937 0.08152194174555807 0.547787384617222 0.21315010849755547 0.09849921921917874 -0.7826569149215489
Ni 4.6779761683905505 0.15899057049846524 1.6063400303486661 -0.5109545599113975 -0.3387281862113973 -0.30688044557318117
Ni 6.064349976976642 5.599743938066127 0.48102502448804657 -0.4036865933606531 -0.41170226457627807 -0.7233328232399349
Ni 7.8804453453334675 8.660518604938702 11.239610441185288 -0.43914544838889535 0.7946071453048895 0.20313720434624372
Ni 0.041551872216959475 4.86094372750004 5.759861531700794 0.31818250084956173 -0.3330702165946715 0.45243213819547246
Ni 7.760154349106776 8.743028609401748 2.517652382026503 1.3072879438787743 0.037933541820979834 0.5937530805658678
P 8.579524532316185 1.3811312109709297 3.728729427084254 0.8581306197798316 0.9979541516690942 -0.25674959035506106
P 1.92375359924578 3.1189305044452267 1.7587705862753211 -1.7748595088188466 -0.9934377518559794 -0.23025051562326795
P 4.755243575238436 1.284616883790622 8.359633204805254 1.1833360889144457 -0.9096377865201882 -0.9102435384249872
P 8.316014070774813 1.5324897865246396 12.264803563021294 0.4221342585428795 0.4353656696314889 1.0369027650181497
P 6.400742471112942 7.5566314761120275 1.4251970034900985 -1.8707441732333137 0.33854435233536534 -0.5433512310745481
P 1.7065061290519612 3.2202903994729373 6.051583665262477 1.6818297973546712 0.930721603773681 0.13429463165123323
P 6.958632458638828 3.9056630360642117 5.96476318079812 -0.5975626841199451 1.8765353259937942 -0.2952747430134528
P 2.337783459786284 8.545795048864429 10.300761368092328 0.5754974767897896 -0.48390604043403757 -0.7281459283578622
