# total energy = -340892.729018272 ev
CRYSTAL
PRIMVEC
9.06549623641576 0.00000000000000 0.00000000000000
0.00000000000000 9.06549623641576 0.00000000000000
0.00000000000000 0.00000000000000 13.26827009639968
PRIMCOORD
 96 1
Ni 6.2404337194526995 1.8451366944836307 11.5696790089874 1.0538687034485268 1.0261630100031423 -0.5782444434073074
Ni 4.69418643321106 0.07347403323990552 6.0214330895301424 -1.2184879542252305 1.7289028395830741 -1.1890956171060425
Ni 2.723818974837382 1.289421780160488 4.598079482269699 -0.04363907684618936 1.3132996972904931 2.0729131001290173
Ni 3.4870702926450226 4.454712286771254 4.8471775594280295 0.4622936043705845 -0.19100391141781944 -0.2264087732796746
Ni 4.91859372504067 4.638796251701852 2.3539766478362893 1.1519822571935128 1.67510096327127 0.3837857406716681
Ni 7.3734031669641045 6.248429487061721 2.480596245737337 -0.5550852316820246 -0.24055986796907605 -0.05586030150272961
Ni 4.895576430302229 4.716315309326276 11.372048473151857 0.42797580492532106 -0.4687866682940959 -0.18422391238150854
Ni 5.7109724819954595 8.307675069742482 12.451979328856751 0.36680360429137476 -0.2040178071789841 0.22530679846474747
Ni 1.8771741578966485 6.56240388090622 0.30761132209305575 -0.06320131524883309 -0.27887136195476486 -0.2044536091648221
Ni 2.6602789122845123 1.5781578327084829 0.49503954855536486 0.924213370341518 -0.9898068399716116 0.2968212615649662
Ni 0.4331965468827773 0.06869561021641891 4.6987318729833545 0.5048422763660726 -0.7028174768954025 0.6170256779405632
Ni 8.788137300480038 2.537196670983284 1.4939810747075675 0.7163738754235984 0.0521730824591295 -0.0018308825611516855
Ni 6.758735331142701 0.7539990724314872 4.849632495786898 0.19601267748632048 -0.0281037002147516 0.13589951424450789
Ni 0.8220256490316411 7.432791232277823 2.479932651418765 -0.48923542306675094 -0.5557604033721782 0.333982958216928
Ni 7.646782269024932 3.7847811863868173 4.1497571550517165 0.9496433803788484 -0.11633830428312865 -2.0327874357527254
Ni 7.711645894016484 3.7598329409672857 12.823504211944277 0.16643830626331335 -0.2814342375859347 -0.6568566938945719
Ni 8.169099895511755 8.641094952840211 7.010197689698346 -1.1261025612132733 -0.07523819180870914 -1.2179860748881475
Ni 7.0528018954300435 1.0271479108899684 0.5271232459987748 0.3344097613417015 -1.0156603106996056 -1.4246004391497142
Ni 1.780644754834449 6.395725668593898 9.159710230697188 0.5569456819295311 0.21757112038338658 0.21224790839826024
Ni 0.1194551362894718 5.037922850933582 1.3600637524014612 0.22589969485373998 -0.5031926565777916 0.2887302570267156
Ni 6.546294494238157 1.9447755627271162 7.073513834496179 -0.1264224279920081 -0.32984836722326416 0.7120515938991608
Ni 3.439104752487049 4.214848323996766 0.2942088925769818 -0.17954219063512303 0.5909904302190659 0.25829148092088416
Ni 6.297174659889055 5.594997589680029 4.714853044796419 -1.9480209927386063 1.5012241984520405 -0.3691345664173965
Ni 5.1283239785947625 2.8682685905767777 9.332967273569448 0.6475919807631944 -0.5359443970875156 0.20187942067974265
P 0.16812415894910027 5.581625982850882 12.469308024757709 0.6388453449188158 -0.9121692946927903 -0.8635484483612935
P 3.9027595533525816 6.181825286808343 12.57773589152381 -0.394288697085521 0.7713867413243684 0.5614597677498007
P 2.3908886285320405 8.48865863498795 1.3733456108186688 0.32831856084229905 0.49610823892718425 0.11712840428459183
P 6.373877822859498 7.728625568315459 5.6053531059382875 -0.07117276349008388 -0.06926989004041618 1.043383487646487
P 4.634073128204913 1.3066190263671926 12.78639279033311 -0.7412930072627815 -1.3770113765168415 -0.31268162563599056
P 4.051596869231169 6.299758326293331 8.310925956663791 0.17351501060443666 -0.24149883484357765 -0.49979648641204893
P 4.76158839712611 1.0919390119122767 3.8105942801395694 0.28923470746695995 -0.07529295630604452 0.21588576226116368
P 0.24040607944457684 5.584826102993722 3.6637803830028575 0.6575655470361385 -0.6641465426877659 -0.5708638346725201
Ni 1.4230290624980813 0.9679502209955129 2.685046754330552 -0.6991644535238475 0.5183284837779655 -1.2755268494170935
Ni 1.9830591529911723 6.294554731500158 4.963460678612742 -1.0108868005703624 1.4221679184488216 -1.168582070533723
Ni 5.980743516586457 5.714127274657522 9.136517065333333 0.11584928046185208 0.13222772181987552 0.6720076906033975
Ni 8.407368330962898 2.2202669253921403 10.211924238456707 0.7483144328859371 0.4469610877785722 -0.07921671684048293
Ni 2.522836925073204 5.097319981743456 6.969131898664212 -1.4067456703564805 0.3500976043906035 1.415936078606497
Ni 0.5080766385763781 8.868629840843418 9.078641124778327 0.2967374436019083 0.06051168423181191 0.618742917741986
Ni 1.5409167745022925 1.0483702373896497 11.479760165721684 0.35967239256323214 0.26866948172109856 -1.4638982083080725
Ni 4.074460050534969 7.010429766399923 1.4818269640120856 0.3406608844577359 0.16491569897119984 0.4985176196996253
Ni 5.711806507641752 8.01918378559068 7.7432962607436675 0.1714319028231628 -0.5981509525232472 1.5058953786754645
Ni 4.979958068516255 2.661557147242417 5.447235441645466 -0.28994690304263615 -0.2557046940303145 -0.6130970323101183
Ni 0.909541229266573 7.241699638819135 7.11171311564599 0.1748956930020472 -0.040222080744840405 -0.9273166918571901
Ni 4.855787967676384 4.860121274838643 6.919403119504023 1.7266657227224393 -1.4562242367025822 0.3784787266364579
Ni 8.194401695281345 6.975164986355599 9.151364534936569 -0.4489655198031106 -0.06619973575552471 0.2528679959124677
Ni 4.447768116716253 0.6032308058718104 10.52072948639342 0.11568524408016206 -0.7271046315775413 -0.5094903166610452
Ni 8.245476700620603 7.123431175976399 4.723318405106287 0.5683881194385179 0.46571111469256565 -0.039180783964519614
Ni 7.388633200505097 6.302922184451549 6.9313305927956215 -0.2093890987932265 -1.4079299204725686 0.284254223533233
Ni 2.367236749062725 5.266482140002344 2.605649325902739 0.01913723505008317 -0.10780507000113691 -0.12370554328147726
Ni 2.277234503232379 5.3668009204574805 11.30672885370369 -0.9600326940329723 -0.6197533612843713 0.92169420346409
Ni 1.2084034410200974 3.306703181138118 3.834729350553966 -0.49569609109043017 0.10336606039317682 -0.19419207933781393
Ni 3.7953152929193377 2.897305374762374 3.109604789926894 -0.9145555355367797 -1.1491285897948016 -0.9134340203378267
Ni 0.9383513760482851 3.230489554960065 8.071115480316621 -0.3834939204628621 0.3114503243320507 0.21843423971463025
Ni 3.455168811674335 2.8490225422389632 7.565315187824852 -0.027431356738075334 -0.25483797515464496 -0.5068983875641528
Ni 4.055576622043368 6.822755864991804 5.9594704233083045 0.5263600958331903 0.7145306515672727 -0.36615002986777584
Ni 0.6582076007563336 7.37071978010212 11.133551587197598 -0.011288171319309592 -0.15185423780155138 0.7493462165845611
P 0.19692795988350356 5.351697803862662 7.991943782743076 0.25994855690833296 0.6411531671163861 0.1170903519578048
P 8.53567229804961 1.384065560022374 7.911524672898554 0.1654088365575345 1.8108037881239394 1.1150920690353827
P 1.6975413515783275 3.2211339629277407 10.264651883745087 0.40455691178074843 0.08864752323607959 0.060046571669935295
P 4.202990655025565 6.244703568141872 3.793531203275964 -0.45157904616655775 0.16394279353496927 -1.092284584222564
P 6.722500543009755 3.8044623785400886 10.535537067813575 1.0535943667412178 0.307102074665684 -0.5452327643679771
P 6.563582395406416 7.783236117155306 10.479784266458156 -1.0229352470944642 -1.039780343676261 -1.4169683765257532
P 2.288339736022687 8.539017466130936 5.829082298655477 0.3927354936657882 -0.8235626519969752 -0.036401164336853434
P 7.0011557638329975 4.188540254153932 1.652364358037741 0.08447128037120291 -0.1779239383054097 0.1457625230815167
Ni 5.410396891468573 2.864941553487763 0.7039357764631655 -0.39954043240276355 0.9127827599070731 -0.5514993141029793
Ni 1.61017716512919 1.1105051480384398 7.1962588393404285 -0.5010211028477694 -0.3798462964079458 -2.1325444386384045
Ni 6.824034099949709 0.6488610742201645 9.304944918403637 -0.6324849499184269 -0.3956079301175767 -0.3808693383558215
Ni 2.4020210578108143 1.343424940757926 9.31305219161537 1.3099778320061117 0.6087390124517388 -0.162686552530365
Ni 6.639034519907419 2.0773040510222227 2.5235721368114032 -1.358155677262919 0.44335768669803 1.5357479432605228
Ni 4.133820919360221 7.068448941794183 10.465838813722376 0.9191868636612041 -0.3234915717673009 -0.24467646124061085
Ni 8.31202650789705 7.233604150752406 0.1813742881297643 -0.9627562636117225 0.5969813576951783 0.46174698783849505
Ni 7.570051909566024 3.978746542126751 8.21022007952282 -0.6909891168019068 -0.4948167738092704 -0.33453137452123033
Ni 3.296740200863385 8.396489735576475 12.483345945554273 -0.5967152485179853 0.22457351984314874 0.5528871955894414
Ni 9.054644756455108 4.667162189171953 10.142650249585577 0.2981914024396155 0.16564692071026957 0.45834901790053967
Ni 8.603980811580197 2.1772148841503687 5.680013812624929 0.9642595876301264 0.6659681692775369 1.4664320304735197
Ni 3.4996803977971185 2.7644052011248976 11.532912982779749 0.3602138668889989 -0.1521727974832347 -0.6579432420905313
Ni 1.4175172408356267 3.1760693815394805 12.599841197349022 -1.982541652223295 1.6603664852745725 0.14785180151037763
Ni 3.138647013410183 8.142429205822706 7.933257386831782 -0.22397085326214328 1.7264011562071426 0.4533441084867806
Ni 5.703402792705741 8.105369457539622 3.5333931648996457 -0.7776998280265897 -0.9922275335979622 -0.507422635498739
Ni 2.8665370808111055 8.241968353608483 3.6280097482730653 1.5058712103057486 -1.1321281985820633 -0.4618153791825853
Ni 3.4928087517113613 4.564722082616463 9.406380567985112 -0.48378879812988285 -0.6222804985815993 -0.15318478368751684
Ni 7.256159105186923 5.764594891754373 11.449866692149406 -0.14865475702764722 1.0571581728330761 -0.3204856950614416
Ni 0.740753475998901 0.0339983302314206 0.005806450287503638 -0.4706705155803701 -1.3217264879016075 2.05448343266892
Ni 4.657661549201142 0.43262088787691233 1.6900459993570816 -0.012383975486649641 0.041071573229329264 -0.5020652278415676
Ni 5.805190183538044 5.733989776733901 0.22455052666886435 1.0515300280130213 0.03522796996435869 0.6747921953270701
Ni 7.998151834510262 9.042261288706895 11.394790176807176 0.5870484148521825 0.08935431949511707 0.5289322274357408
Ni 9.369280931518945 4.831347390041552 5.811356534022915 -0.967110169705044 -0.7805866626560815 0.2452032802783583
Ni 7.943559416662725 8.827862304632795 2.457827345593552 0.5331431801932947 0.13656311597043577 0.5663916578337794
P 8.376065172738464 1.5894987683988295 3.6226756103352558 1.5294636529137078 0.7389242499202887 -0.6139820060182329
P 1.9103720048175514 3.2241890351320945 1.6438989977278722 -0.05144648870575011 0.7230821406817095 0.689797924707283
P 4.623049484880005 1.064651868484664 8.065913698622678 0.470238570249274 -0.49389966131163976 0.5758638589902728
P 8.76632571673026 1.723024461271025 12.459980535763467 -1.1327624897319524 0.874116967905759 0.6574565322620999
P 6.392761251351097 7.972097598559777 1.2623975361213802 -0.4628129672091642 -0.8583008268091089 0.052801460071747776
P 1.9388648592338262 3.225104650243785 5.941292290417591 -0.05498689775884079 -1.1953223147420446 0.023917944268178164
P 6.701196627044675 3.973624536798977 6.02310476702119 0.39114500925021667 -0.7246399720871326 1.5786840805024165
P 2.469386759741243 8.409670966986358 10.363753168066559 -1.0184628131454072 0.5561807787390486 -0.6719891786606362
