# total energy = -340869.6822938492 ev
CRYSTAL
PRIMVEC
9.29273096795955 0.00000000000000 0.00000000000000
0.00000000000000 9.29273096795955 0.00000000000000
0.00000000000000 0.00000000000000 13.60085109524887
PRIMCOORD
 96 1
Ni 4.149585245920174 8.838650678131529 1.3626423495515048 -0.7870023363744382 -0.613502238168337 1.1979173291627305
Ni 9.223685680694466 6.034931615085085 2.383114275299595 -0.05447267712658361 -1.3964360609003563 0.6733891443319564
Ni 8.281151887072054 1.979044972506179 4.41053813294462 -1.0910283432179597 -0.9824992505666047 0.8017828371177224
Ni 0.47858585148655886 5.9696687675927 5.0790748335017115 -0.7554011645293893 -0.14740417244999773 0.5558704465874813
Ni 8.787800855907644 1.7567907330820887 10.085792748917887 -0.44840321954173745 -0.321930140817452 -0.9993227498818467
Ni 3.467619620272487 2.074425560098639 12.064662088814412 0.5348269956536209 2.221739606847838 0.7101795736874286
Ni 5.93730218667059 4.124532044035015 12.332680238966931 -0.10160819716180566 0.479635952303774 0.4574617301995799
Ni 7.865051285880745 1.9087268795295478 7.430525987590883 -0.07612856483346245 2.099162263633533 0.07554389597458602
Ni 4.137040059516256 5.3055358920999165 2.9237746383858103 -0.3334988194916579 0.4707147385547442 0.18060637023357926
Ni 6.568826870243854 9.237039334666637 4.139296334522827 -0.473115891797069 -0.627814541025951 -1.6856805385593292
Ni 5.383994417143091 -0.006293037209432375 6.6196831973792065 -0.374238206192549 0.06881249078802341 -0.5968278628364495
Ni 2.4736784405860175 8.346777151060552 7.561665002799846 2.196515542173727 -0.027920637669668045 -0.6529540164060562
Ni 5.014933618601143 6.524119542992556 11.744266391515934 -0.1905855929334782 0.05525969180425322 1.3575563531160233
Ni 8.46572410363104 3.459265455400544 12.144933625611221 0.10759166843875019 -0.5952062680726266 -0.07641370017404904
Ni 0.8856901601166564 5.200277131805704 12.44845093619456 -0.42268061796465267 0.5524629635678292 -1.3751244439067738
Ni 7.595543511001895 5.94505232404901 12.077460037492544 -0.04781969058644023 -0.39573288573121523 0.2457547819064542
Ni 1.804731930606397 6.696109402224946 9.370333334117872 -3.1219185619479717 1.5979688968739578 -2.7691665506536567
Ni 7.948946058365618 6.160337015470923 8.608821933938671 1.4168033117027987 1.5033659273853914 1.1619799918361728
Ni 1.792196036933148 8.76048022773911 13.39817079844375 0.4279308106199985 -1.5382997631480992 0.29623556426482534
Ni 1.8639266249715538 7.792382132044714 4.717305111443109 0.37604029239829434 0.851832702586262 0.5758944551178921
Ni 9.58480119451393 8.092249258021047 6.773237208236238 -0.06994968971626017 0.0012181886778172568 0.5566991131363638
Ni 5.7940175724765 8.763035728673243 10.739489887868746 2.55167513446827 -1.3414910721230446 -0.12658569304274972
Ni 4.253431511152612 0.9083802205925438 10.29113793561563 -1.8388686646809556 0.9762825802329316 -1.9532668145185783
Ni 2.9126856228778135 5.226705657829959 10.439808616505804 0.6336036369039023 -1.881036299187941 0.41432299002857675
P 0.5389235517240728 5.22713312344076 10.26626222488626 -1.1385767824208843 -1.0711503733471102 0.33707985197469686
P 7.854773525760202 0.6380407463187666 11.670957897809833 -0.6041231109462822 -0.21114130559764283 -0.622959784036811
P 4.692475864367086 -0.36599977305939124 8.525448483644363 -0.5781595970029849 0.24586148268764754 1.6211561336236984
P 8.895875313594736 8.859754469482121 4.510341131062727 0.8661822864397146 0.06428580656226347 -0.024062954486474688
P 2.6596538594761094 3.710801089164448 3.9093737337502077 -0.047556152512408426 -0.8901357119315186 0.022741664571889867
P 1.761251243803482 3.293780507636853 12.952185704692177 -0.9684340307227901 1.0158659989525085 -0.4066132800891449
P 5.684744352533033 5.857737826677736 6.191691618023118 -0.48499721661568734 -1.1337150834532088 0.34672534548426087
P 0.4979268118291336 1.0558307659458017 2.00144695833131 -0.12829907618943068 0.5016757057126328 -0.9888210790195743
Ni 3.728921913970108 2.259025654849635 5.220183090172989 0.26619530914899314 -0.4217802176375704 -0.3198596314416685
Ni 5.842553504763661 2.2618134740505056 3.323517245779475 0.4987413056746572 -0.3317216729865771 1.5993225826883748
Ni 1.6235701462031422 0.5824070263461887 3.736466682000732 -0.5694692683178386 1.4619696238267919 0.05795883590297114
Ni 3.8370707135025564 2.315125869901825 2.2692746075051025 -0.7366745346541635 -1.0847479095258867 1.361262855433333
Ni 7.156127448560638 9.403407091843938 8.566414557528093 -1.066009452576119 -1.2739466494141671 0.5720200597641504
Ni 7.602271448006664 0.092919872511158 6.132133577888782 1.3107152243927687 0.33515563836879053 0.8536494440800265
Ni 8.708626790602914 9.219002144437002 0.4319335557061198 1.072395815718437 1.118810912647867 0.7923911114901773
Ni 3.707046825973942 7.689632409031285 10.088485782265929 0.8789246737070477 0.7565923566240131 -1.0316636281063973
Ni 5.796814684408041 6.390387855926783 0.7592012273347459 -0.42258728691989805 -0.4115500552691299 0.26203372157213584
Ni 1.8430086882343533 6.3975897221957 0.8423618740967221 0.057166421908662834 -1.1597261628049897 -1.0669278506253301
Ni 1.1070058337431203 8.020500084521302 2.1891387445760713 -0.30473151755097844 2.0712822493938137 0.7840291126787272
Ni 0.7682700031951787 4.316928739817779 8.204563988712664 -1.3458776312265144 1.3415216682506639 1.0012148246982369
Ni 8.747544746647069 3.820957118521523 6.122205224441413 0.4284087786976815 -0.09756462322005133 -1.0901096880584322
Ni 4.8404254293573 3.8540485324358595 6.873584760371582 -0.944442038683567 0.10249471353181704 -0.3939295139738893
Ni 3.704909497919941 1.687448376825762 7.764072757332937 0.11277449819127028 -0.4636339204485629 -0.22260276927002307
Ni 1.7162837200934358 2.8689354468854806 10.36354875153905 -0.20319428283642427 0.33143113832935184 0.2989555342991496
Ni -0.006448225811614183 4.2654841828310435 0.6730148674667578 -0.3174206829828727 -0.4815251989066869 1.413372688754695
Ni 6.495953276333092 6.450892825316349 4.294006361075152 0.9231710451199328 -0.6796762628922488 -1.5195114267970025
Ni -0.2171878426630413 7.768694961567981 11.378009209816994 0.15683240774243312 0.7324003327588419 -0.14492922854694396
Ni 6.918493739878411 1.8894258779288522 13.133239693419663 -0.9505178125640016 -0.12264367767586619 1.114192697149565
Ni 1.4064454941086542 0.62020892543693 8.732616904099475 0.7672665485084077 0.8601216820679316 1.2763087218884406
Ni 2.206103553686437 1.654858770367582 0.5314168838891946 -0.13430620161545903 -0.4149017453501822 1.6457492495820303
Ni 4.416286616136815 7.288651080639367 5.067337185392979 0.20529127457476903 1.2157209330030547 -0.33812603385102413
Ni 4.591519638372884 3.9511947388555377 0.8814099283702527 1.366957077604633 0.30822796074001113 -0.4284866831234685
P 5.438793649901541 7.590701998323049 2.8246379290567107 -0.18308722767390403 0.9318438903035822 -0.5930365141148174
P 5.856074427887884 3.0540094709006245 8.641123465746094 0.2697791698455096 -1.4862742620104274 0.6526884214494953
P 6.048108707174534 1.8320432660442612 5.57033689889463 0.7045524573086382 0.6301606726606244 -0.7045162047540642
P 3.7130127590638056 7.115090749923819 13.68095974399555 -0.16831315468852304 -1.4122396035915161 -0.6355126810011572
P 9.062150143465342 8.62021575101263 9.084837416122028 -0.1312833556287352 -0.7971026580332337 0.11440920558121588
P 0.7086041673850746 2.2749719806786155 7.647867160309973 -0.0904023011436572 0.961571499275002 -0.09166342724426793
P 2.5526573585466874 9.532204338924169 11.494948932562856 -0.9965112485749805 -1.4192900826803945 -0.7982326578726189
P 1.5703506776585183 6.266785245290841 7.088613901700082 -0.8257095231366489 -0.4650457131944249 -0.9539983149134343
Ni 1.4171135489173194 0.9601528109719156 6.103884605926357 0.3817735953376457 0.02490550499242808 -0.028795069854821376
Ni 6.181626661434907 0.6518887735625588 1.7054511839519189 0.2577762318473625 -0.20510718358842098 -0.7832760365627865
Ni 0.5596946633166942 1.1755397224311943 12.306171795458917 0.831948047847193 1.1672808352237962 -0.8664003159877918
Ni 0.504931672207855 3.009599511030752 3.108311542568253 1.0461260833886306 0.8652865140983228 -0.15657529742630455
Ni 2.8938399650799265 5.574644079559976 5.216837707131943 0.8893620669902876 0.3538771260376938 -0.17794862089575805
Ni 6.133639000257252 2.2973767543229475 10.862903856072094 0.6312829591905257 -0.6689128537281576 -1.271484818137236
Ni 7.768917987104051 2.593248006111366 1.8261321600653482 0.4826883659768526 -1.2015922069111564 0.4614196864060634
Ni 7.104608549728546 4.351172452335143 7.545248464798985 -0.25587387261832706 0.6243677201279312 -0.1453588598851948
Ni 5.0681995507991155 5.118352418222781 9.313413500220628 1.4274312237302902 0.6861981231711666 -1.204950581860428
Ni 7.594214650516147 7.807389892076069 1.9300286060434015 -0.65710454823932 -0.3732007660669702 0.38421022980359637
Ni 2.139186600134868 6.954800438604418 11.635296114592295 0.19998580320145556 2.057424517575115 2.0254304811670214
Ni 6.891358966323267 8.464450999529308 12.935197663755137 -0.8628305963586624 -1.0648807382883145 -0.0871169455241661
Ni 6.453494789903829 3.9787755634828197 5.031376176247879 0.3198213220045653 -0.09577796363327375 0.4462355224664573
Ni 4.035582026065898 9.507671529956506 3.5872244981743804 0.9609354083529 -0.1934225481616411 -0.52540775922225
Ni 6.357398662049812 4.4546841792634755 2.6908328294186483 0.8181630782479588 0.5978403632613639 -0.64138868016596
Ni 7.623365946626586 7.08832768559546 6.235296827417006 -0.4502893808208568 -1.1349163028501617 0.26252608782752207
Ni 3.42288441482918 5.021661555605911 12.6822764838484 -0.5653079378512974 -0.6662982989234462 1.1658155635321794
Ni 3.5759542744183266 6.204904951762178 7.731036170529551 0.8371445044464679 -0.5688300920719429 -0.764078123478097
Ni 4.399206577166146 8.868879930999638 12.76186872203326 -0.05995992549339995 1.3623895128386083 -2.329851923676749
Ni 5.78969645271515 7.019217647605873 7.972097967555784 0.45525083859119014 1.5261201903627717 0.9142218063464448
Ni 2.252204790538171 4.053033774263349 1.7327755292127207 -0.03952248357465451 0.7382825025712317 -0.2869379410129833
Ni 1.8051408107558582 3.861027373168706 6.0525552787999235 0.060342762754115424 -2.1538925652968772 0.48454290268708805
Ni 3.0188086071242957 3.966388353500284 8.45608382483443 0.6462233825504419 -0.99365886672785 -0.2523614885896944
Ni 7.642992193800716 4.093419981753297 10.021378327735635 0.019650170130759707 0.798866691912192 -0.3855307483872328
P 8.80410030550207 7.054976075222376 13.57556623910663 0.4732927836945655 0.055236037655169386 0.9385984354185963
P 3.4961947670814126 0.007812398673906966 5.5601232586157066 -2.2383597319030226 0.03884216967817826 1.1462175867955937
P 7.073663756598879 4.2168646159678564 0.6551774709465195 -0.45872054230734544 0.17665792710879252 -1.341460218885109
P 6.434156617380454 6.560324021681199 10.256034645511333 1.5014255158295693 0.5321633327785286 -1.1030238250169393
P 8.333395618896374 4.735529085559201 4.0497209157796465 -0.5182724337290493 -0.9317101929391953 -0.531951988098671
P 4.426573668988028 3.709992621596195 10.636872121630825 -1.2143543916728312 -1.7983213393862125 2.022162609049027
P 2.0980476814606845 6.202637525478804 3.227835573713321 -0.6618006681634087 0.6490184287970757 -0.9579763257245758
P 4.568436495389674 1.6558623852798957 0.30611184098628447 1.138833892737013 -0.37090040006856767 0.8129437388305483
