# total energy = -340887.61679844203 ev
CRYSTAL
PRIMVEC
9.12429095334323 0.00000000000000 0.00000000000000
0.00000000000000 9.12429095334323 0.00000000000000
0.00000000000000 0.00000000000000 13.35432210768508
PRIMCOORD
 96 1
Ni 6.75570711450122 2.009469961802122 11.313995735862267 -0.7623981646725129 0.46038121783922 0.3687653560034359
Ni 5.010868962201521 0.29251655497773 5.795228594270109 -1.4349038779582513 -0.09038636030405725 1.600948805437888
Ni 2.824743603930882 2.1093626987752807 4.52676784595481 2.4224170367996796 -0.019008679892018876 0.7017581823929526
Ni 3.3809603783082793 4.799678124607373 4.793707188630461 0.5496154668167049 -0.5308919222652728 -0.3207633742028605
Ni 4.212009919434719 2.6626505757679153 2.183017624783878 0.10323004903594481 -0.7471096139445584 0.506003129443393
Ni 5.093662777993852 4.8104721607636804 2.5847957386496407 0.42076720299202375 -0.4049209799883865 -0.31000433591414356
Ni 5.581803217830078 3.056892937764283 0.06100774636679121 0.8536029071128074 0.8757807287614272 1.1984654883567167
Ni 5.8483328798434995 7.891927689679931 12.77733491446804 0.32546540766422016 1.5973955408689908 -0.7994991832898682
Ni 2.1743732715679145 6.923201722887801 0.20444798660555025 -0.4136578456407521 -1.3898098138330903 -0.6303483631913983
Ni 0.9589264783459146 9.542639656866815 13.51577564006137 -0.6579946641537572 -1.164375231541227 -0.016312878227410618
Ni 8.12903151348195 -0.2321310852515644 7.147446683498708 -0.434823938195406 0.927726525701099 -1.2334422615422176
Ni -0.1647728324056612 2.452198805738147 1.2455879758413944 -0.3423331299538363 0.46143588435597954 0.6412624390007408
Ni 7.0607960299352275 0.9300480975896077 4.985368393943156 0.23527393697978832 0.2786664450328104 -0.9094480391068852
Ni 0.9158871980844614 7.628062320614643 2.106831620474554 -0.5284012946329351 -0.09017167319008985 0.7695298906212876
Ni 7.782518317279022 3.9738111807225085 3.554212414264284 0.6865056271092564 -1.322285445728871 1.071764095671709
Ni 7.929921237063583 4.028438310450157 12.586074265526658 1.118537861492138 -1.1986572926525485 0.2561595221795459
Ni 8.467624825167823 7.501298546887195 9.070055220617137 -0.8454054589036796 -1.006563233494344 0.5513558465465795
Ni 7.118005333992746 0.9075631074797289 0.08418891987373373 0.013027522607919497 -0.11264748569510279 -0.23749074212544904
Ni 2.3796880658107 6.898411024462876 8.925281009046127 -0.33797613853672115 -0.2830272931046674 0.10448037650327814
Ni 0.2896606519203132 4.929416417174174 1.2266149253059553 -0.08763630836274586 0.32050934921052543 0.7686845119018568
Ni 6.3140001911480415 2.1824117718669056 6.858326189600756 2.678084706944472 0.8224653051677384 0.25628473490350057
Ni 3.4920486202381484 4.552710942322711 -0.023290664997961688 0.6293692871075807 -0.09101885168173357 1.1423722449075744
Ni 6.0422240618566185 5.8191533974868905 4.762885333908565 0.699315634389731 -0.41489943135733703 0.3427977282950806
Ni 5.743567771519988 3.121803143356816 9.333349409070943 -0.39586581176465374 -0.3007074839932498 -0.27269325816851103
P 0.5299260425255103 5.6267312263116125 12.504786870164931 0.3560977878380964 0.9097887102757557 -0.4026182999971389
P 4.297504525338856 6.386784659803037 12.573708114045134 -1.6625136135245626 1.3338952620536577 0.9056865151819241
P 2.674968368507572 8.70721045609961 1.348172378635441 1.4141671596315322 -0.3127315050373195 -0.18915503113453874
P 6.710797354601524 7.826853246850869 5.7309534393254875 -0.6059254542623436 1.140597926615971 -0.49840500538116095
P 4.9957682607317935 1.0789291525029279 12.75380519304802 1.1417682927749884 -1.3757337953559985 -0.438425025283103
P 4.341985443565394 6.1755664493361335 8.04639281063523 -1.7088297229822829 0.21598320707097643 -0.9402339141394904
P 4.9370716972545985 1.2594441240298706 3.880031718664587 0.5971651915712103 0.9277635495866215 -1.4814747837392552
P 0.4093275521715344 5.8930692782157506 3.381421154999652 0.07815639389676862 0.0450477842682579 0.17327409823822418
Ni 1.0847869472724536 0.6621890263893955 4.78652272196142 -1.3757044847799598 -1.4367805261556739 -0.3697516311761051
Ni 2.0481387067137264 6.964434393547437 4.5128660763117425 -0.24501944640232642 0.20242243766740622 0.1726349219923285
Ni 6.113402655309999 6.012807347936135 9.112655622485422 2.1635097766716673 -1.4140072370149002 3.0425100408116568
Ni -0.41856772158446076 2.7550248970244238 10.111211633576634 0.26366637207955235 -0.4123476114697608 0.7330595636093955
Ni 2.5163334466026273 5.424390950908181 7.000682464078427 -0.11566801768898144 -0.21010772212680587 -0.05866717482390542
Ni 0.6051092872629171 0.3112624106693042 8.900134463275391 0.6261502659496507 0.764262214464445 0.6170717006871501
Ni 1.5765314820213947 1.385806428956914 11.283961307446617 1.4202807287284378 -0.091793525064229 -1.0510769996360028
Ni 4.536195975760652 7.019125393311514 1.3986652921480243 -0.2079701069585128 0.24195906230944778 0.06601590187949277
Ni 5.75528336105904 7.831789488237651 7.945180701195289 -0.24141964486621004 2.719062949129046 -1.013517810435306
Ni 5.394691383969231 3.139622883520186 4.949925998300249 -0.10182545537893431 0.5104675929726499 -1.0363605193614345
Ni 1.1488029723549966 7.7696256942115145 6.998906877065732 -0.026854915409315037 0.3359251695449634 -0.3971585624341483
Ni 5.826407208766911 4.6537442156606526 7.25425472055882 -1.5355682231495489 -0.6219084599541612 -1.73044652992111
Ni 1.0253239433581247 7.455704465168629 10.896672567559056 -0.7923054937549066 0.9075521076357531 0.7322208697581841
Ni 4.748572971174174 0.5378358903225537 10.249882606952417 0.06950283198682869 -0.06710450695798122 0.40666444504205446
Ni 8.288086152769134 8.161212887550668 4.193190156986707 0.9803089277835052 -0.9556808448221799 -0.14121835535426003
Ni 7.5275308832772065 6.40006962738003 7.064036065640303 0.9581735293370466 -0.8448395590978804 -0.6370342598520061
Ni 2.5559967392243226 5.5172214867106035 2.3036206772833134 -0.17962009506091 0.03074422316139221 0.5724046967970787
Ni 2.50233678433401 5.695218153944105 11.179704422127251 -0.0902248950255285 -1.1383335560618266 1.0595127891081817
Ni 1.2291788510539876 3.6742515855849702 3.82191363523161 -0.5501127181680977 0.623603588268397 -0.8154184256232859
Ni 1.912186772031587 1.1792233582764902 2.4604936986119412 -0.8813168280883079 0.8838372805173165 0.23461547746018305
Ni 1.3523932756142298 3.4010429426193793 8.548341952347156 -0.8199343112157685 1.336019764595828 -1.9107484815403928
Ni 3.8560713307132244 3.0797584108054537 7.137056853430082 -0.3384299382446881 0.9121371559032743 -0.8036723408309515
Ni 4.322203980854598 7.1155144025720585 5.8575529758164055 -0.5827140491428867 -0.3236910893726167 0.47071036767936997
Ni 8.595656875332908 7.713118960554703 -0.29954773355934455 -0.3291446562880202 -0.1533526767239488 1.1749036418763765
P 0.46070187218682207 5.844509801948747 7.824804843539719 0.17179288570700735 0.08335439315794031 0.8844029232127995
P 8.715130340616662 2.137985599385876 7.94734407057201 -0.7883387957976746 -1.4425505958702318 0.1081403418533686
P 2.054005625774171 3.584213082803537 10.54174130055494 0.31356814200600186 -0.028722050525040854 0.9543932363590079
P 4.20942774510485 6.500181347335227 3.610367862720742 -0.6148052732504766 -1.1535208053252262 0.26463953462609907
P 7.025220419644915 4.350361542628362 10.581604415147746 1.2064194530964707 -0.7986676885275084 -0.6860950219343991
P 6.410443946154096 8.048628261910203 10.476839306824234 1.1355786190245087 0.016071451640565868 -0.854430030999793
P 2.7225880428099942 8.817824234901728 5.855643261727214 0.23400998266570022 -0.09368148611556125 -0.13107612471393557
P 7.022711239642392 4.293727068898694 1.4672261265369546 0.359899935193006 -1.775540851156587 -0.31565664910391444
Ni 2.9507683100939497 1.6105194656919297 13.442326923027526 0.3761665335635134 -0.5896750538417521 2.795240107812257
Ni 1.6455749913999016 1.5272603110627672 6.991654890643895 0.34169138260477927 -0.142827865933225 -0.03139856891593947
Ni 7.03191764917892 0.8525080485080133 9.074154764526714 -0.25600397043828815 0.12558424836142887 -0.41860130568895654
Ni 2.98488403383734 2.014816796280225 9.222468288544919 0.6916113237669379 -0.5233418778321568 1.183666732780987
Ni 6.511176117891735 2.1718823401472283 2.421686264478379 1.1582804314973987 -0.026280016742451517 0.1464865457317348
Ni 4.327733301151065 7.131509284551776 10.36788158682378 0.19208197497334661 1.0475260490599507 0.21856382331395904
Ni 7.803175711917973 6.210348246316558 11.423086670510127 -0.603051218038342 0.8462914610530586 -1.043789464835654
Ni 7.822437090046429 4.223488277409896 8.308912346790072 0.8918352111211286 -0.4059339946339332 -0.08832125024491241
Ni 3.260775218332901 8.57336623261959 12.319402264574913 0.6764179038559512 0.39379478816823793 -0.9356588931742983
Ni 0.2630441828826442 5.133554177888504 9.911190752924627 0.6265302749968888 0.4947810354753286 0.7271524540963413
Ni 8.870507890663786 2.542584031574474 5.764713315723066 -0.39472501329199117 0.8973821090812868 -0.39906529253855794
Ni 3.980389794474577 2.6102953944789142 11.813914722844881 -0.43834095020972896 2.177558027234618 -3.7636245162440343
Ni 1.4909365089171565 3.3558047082466245 12.954306923831421 -0.8643064095732406 0.8143876703659264 -0.7982123461576447
Ni 3.419008671437442 9.161700511029277 8.087083498414321 -0.41505832553270455 -2.2065420731717933 -2.0785026784016525
Ni 5.842265226382854 7.979904102713836 3.4892438132098738 2.114273922463991 0.12617817319168592 0.009443661911403091
Ni 3.6869069770886025 -0.5722089190698394 3.6224529860419827 -2.6166721081649453 1.894814583918956 -0.02718247395206286
Ni 3.707692111800409 4.436193747296475 9.30279398364386 -0.0657518495848287 0.5444822593551978 -0.17486021177842143
Ni 5.159832135733105 5.073717078046526 11.287807196068664 -0.40140885307007 -2.2669336868859733 -1.0467130662403523
Ni 8.328935603210203 0.19380085153302753 1.9203913344252903 0.6007521375915202 0.11694791284266956 0.910613005949264
Ni 4.951816551378514 0.38395837370239205 1.5881759020912838 -0.22062353405646523 -0.319572696328869 -0.30964129614777
Ni 6.3404880076837635 5.640335544070745 -0.04303836783236132 -0.3868294125939983 0.48135344921551293 1.2579325333740978
Ni 8.33952890496631 0.09310243967178622 10.999127405422064 -0.16289095523168723 -0.2202224419633046 0.7411636807737688
Ni 0.3978701800654698 5.364708964011815 5.591761468938273 -0.15068567141474692 -0.490455154406465 0.09276540205919508
Ni 7.420037611969133 6.060417897947637 2.6627180955207104 0.07220840384344983 1.93417637354603 -0.7733664907585583
P 8.575437446658034 1.612873532748842 3.5681415567801062 0.3168023326725834 0.5073557868165456 -0.37946345914723034
P 2.3380995478052506 3.3902854036267454 1.842456203546935 -1.7574765374557089 -0.03211796358046727 -1.1281352753725862
P 4.901176736782146 1.4630435515800222 8.040182818236257 0.3130760328609318 -0.9527287041723915 1.9848417611113816
P 8.971039328001224 1.8829434196385497 12.316597457546637 -2.5842767225533754 0.4310037931183674 0.8288087308872629
P 6.861129171770848 7.884591759781646 1.4488105701766218 -0.6744363546495481 -0.3607391432648497 -0.666160230683685
P 1.9119769133404672 3.5109632753117106 6.079341677312118 0.14434301702617075 0.05694222171299871 -0.9661429206957685
P 7.462438191866307 4.3913843545968785 5.752294243354217 -0.921674148859432 -0.445561122107252 0.3960938686150598
P 2.5082310762672084 8.857816001996481 9.98345057485182 0.20835525821207343 0.025091395750989044 1.5152179416279712
