# total energy = -340867.9961766391 ev
CRYSTAL
PRIMVEC
9.28869902337965 0.00000000000000 0.00000000000000

0.00000000000000 9.28869902337965 0.00000000000000

0.00000000000000 0.00000000000000 13.59494993680126

PRIMCOORD
 96 1
Ni 5.211489521018515 2.508506016405214 12.392802758356364 -2.2385836749883707 1.017906683531621 -0.8286806899498308
Ni 7.155075449644226 0.3131573359101018 4.805528794714039 -0.8129036296212322 -0.2262737903637071 -0.3128196938757516
Ni 0.8046251796478074 7.609822280145411 8.438983557854147 0.12249043992745356 2.053319494267806 0.3489706898750119
Ni 1.0277202201996063 8.580407713605373 11.189201025083246 -0.9443903595100251 0.3347697157842815 -0.5263878637473322
Ni 8.435587609547854 2.1838195474596307 4.086750698878046 0.4302820844609944 -0.19703751920640905 -0.052276440806213194
Ni 4.473400220235079 6.605491003696484 0.8511903559450783 -0.7590536736803121 -0.10855814611707756 0.33297842821181367
Ni 0.6555657134267417 9.211166098964227 4.941940768555866 -0.21962646025051852 0.1174078831982236 0.7499907921470955
Ni 5.813267165907903 4.2776780463786235 0.7939951926627888 0.38490237077461453 1.0297748957241168 -1.4744489872407252
Ni 2.968909664517266 1.0559299986629946 11.563700928320385 -0.591408234482775 0.1703083307416809 1.0046642166994182
Ni 3.6793836635648924 9.018444174842273 7.638798376265445 0.35760651117313896 -1.4080643891679039 0.7771598963627196
Ni 7.359278205567548 6.380658047586404 1.8023364004132127 0.04431939074266561 -0.4006699180215164 -0.6045681689035007
Ni 4.196559839160721 5.152441262311975 12.503166433961484 -0.5325438560463991 -0.6150014484216828 -1.0184995799206138
Ni 6.595793602077856 0.8880646327129278 12.924895655464987 0.3910532208673588 -3.2957814428101306 0.05318841109752131
Ni 8.181616005087543 7.3956248842396715 4.035878352915489 1.704033072924588 -1.844162051869411 1.0850595272290346
Ni 2.6291011938138964 4.553691733253692 0.8256501495364736 1.0465847681926042 0.6092066961167766 -0.26506376664771125
Ni 8.045304349193495 1.801840383893639 6.476524850867582 1.6730242832478994 0.7194926235582384 0.46672412933811236
Ni 0.1911642093217219 5.40527035681147 8.529362597843862 -0.8247571865257087 -0.892545606924592 -0.2815643354058957
Ni 3.9941498021190047 2.260507045317297 9.94958607742738 1.0817428041509758 -0.02042612906483579 -0.0870117874048695
Ni 3.137453105484727 2.9800468144605006 4.758925534751408 -0.0942018773954055 0.1819844815280285 1.5222807620120233
Ni 7.652559583639007 5.071062971525757 10.144728636474445 2.071610836377826 1.1650635158575031 0.5311747436130142
Ni 2.7703451488070745 1.7548581450171763 0.8451554882902665 -0.45453632902266883 -0.37953647847701083 -0.9442114107299998
Ni 8.241778907658293 8.206537584151512 9.91868536290181 0.2449507979479201 -1.2697344111050326 -2.215696485977552
Ni 6.740065672902138 5.032245498954635 3.703210105032274 -0.14897665914344022 -0.10439630142990408 -1.1305330861808014
Ni 4.259834455852391 9.205007691614467 13.428873518838678 -0.28588250316527536 0.39572851485584104 -0.3791726673796889
P 0.9225052703772514 6.330155391838811 4.475185508157589 -0.6927197263397683 2.0783232154009945 0.7856393945886404
P 6.367709601363828 2.4240438775946807 9.822908659999655 -0.9499552551923124 1.3612973082156943 -0.6234680911317972
P 5.613820223805211 8.780987876970011 8.594387205402343 0.2867245394505965 0.14090802320269283 -0.23881897401856933
P 3.947065387554989 5.4427131019500665 10.0540904417863 1.0364749334521117 -0.26954622789909705 1.8788310640065062
P 7.3344309360945275 6.177142655379345 8.310973212138807 -0.4350095718436508 0.09202492434874474 -0.9180614918075093
P 5.455420042002064 8.037158160285893 11.990840816914742 -1.2802643641020792 -0.4444077252290991 -0.22063561824132322
P 8.015153232666608 4.705757022428578 0.08821198654371397 1.1867481999197884 0.7327389470451833 0.1149949028813568
P 4.8438335311076255 4.887889829840536 2.5434380262396767 -1.4202048811851797 0.9571702848835126 1.2253805675800058
Ni 8.009877251709346 3.727517701101039 2.0096870963830415 1.7155428733364004 0.19245581337299758 -0.14672771520826342
Ni 6.330759157265258 6.546712117257129 5.310894389698673 -2.2907937813330226 0.3431319717060478 -0.4185596538177436
Ni 8.347790827843557 6.176380982072136 6.173752280292373 0.751183526903616 -0.24999530235036296 0.9938072193802561
Ni 3.465046937176126 2.0210443884894573 7.614722068798502 0.6156776485531009 1.615137438233444 0.00930893610575171
Ni 0.7868187439170483 1.7467955543993885 12.348074886695265 0.6321918441580402 -0.9565696751850364 -0.40620987400313907
Ni 6.369474454148827 8.021163020834475 0.37538232962964013 0.032836844024362793 0.19926100922028908 1.6141079685276654
Ni 2.506889782802109 6.841516841943009 10.907282512337524 0.12564492639603522 -1.1199823072481485 1.0591636332988792
Ni 1.2199219771849306 2.7970594467526473 2.6666767673463116 -0.654977474593988 0.9990160172747052 0.7694663843732038
Ni 4.034258403832838 8.769377003384488 10.20058994259923 -0.3442388316169813 -1.1505154428399993 -0.35266485089714744
Ni 5.864429319275154 1.4292520948836194 6.974127880207878 -1.3177016830129307 -0.7755948658684448 -0.14986497528566448
Ni 1.964940647324207 7.309713708405664 6.442170598102735 -0.11341290310621757 -0.06239270330460867 -0.5103472653447018
Ni 0.5841885647121502 5.3594956487879015 1.6951541041705267 -0.5492755669787831 0.8146059570243196 0.49267478776560314
Ni 6.252167476139565 2.7826991183020717 2.9228191407321713 -2.570828824578585 1.8850505625536569 2.4039716856102986
Ni 4.240764757075526 5.222700980552696 4.899170954616231 0.27193324007403497 0.9778198428130642 -0.23600413027759357
Ni 4.793275143166821 6.620993842107875 7.36245401171066 0.43762618353089144 -0.6176579122079233 0.5399023532939993
Ni 2.21654363357307 4.91835676212895 3.7531303593608176 0.4152984665679686 -0.4111499916172338 -1.6117602942310951
Ni 3.5619745098680773 3.072720163070716 2.5842228452311304 1.6653353992440738 0.4494458018736388 -0.8003970125137893
Ni 7.947903052859255 2.5438866703950214 13.020318458940253 -0.051501510313401624 1.839151486028697 0.998023571454449
Ni 7.543045823980347 8.02348519555158 11.962100653745967 1.1048315676496392 -0.14711235224119182 1.1263277898502022
Ni 0.8743768060604257 4.236027520652633 11.67652518025575 0.6621269411545758 -0.3915936667518611 -1.449503373038981
Ni 2.4312147531211 4.018207532188209 8.748078016879203 -2.3298570658830715 -1.6058542131593052 0.4773792950591133
Ni 7.464593473337682 0.9286813262548632 8.81597097464825 1.0682134022059733 0.0046657809067855134 -1.6578809998485575
Ni 0.18722951648105965 6.272751232831981 12.64777568455469 -0.0004715403197798331 0.7186513586038656 0.6733030123760534
Ni 2.895733294831862 7.440229216205819 4.2730151195466775 -0.7474081190215837 0.4864807431397493 -1.1377576289536986
P 0.38602532079307456 6.29014896581253 10.394698669462242 -0.15770478304505745 0.702138705660823 1.4313799239653928
P 2.021453091239668 0.009439175790087307 9.413809282347541 1.176133914739052 0.1031328613364482 -0.7142642852797634
P 8.47802767467766 0.5455717280365854 11.365310111279035 -0.1566997388193108 1.167702239031931 0.14927362155856871
P 6.933121990183356 8.419759666676068 2.7923212814598672 -2.7089243180331475 0.20157808738923996 -1.5876487458948723
P 7.270255315612621 4.155884626815915 5.52913422735195 0.4936088695440982 -0.44035978041197066 1.3188545656704511
P 4.368029220271734 7.938187073842888 5.7241532467040654 0.2716823004054934 -0.38457969732787317 -0.3962285944207111
P 2.467115574247539 6.631954506772609 13.181894446886513 -0.2198167218844537 -0.12326459908931675 0.46606541270819085
P 3.363567902038649 4.646495123648065 6.87376999102382 -0.5049402353965176 0.5354785131946908 -0.7615622990347787
Ni 0.9804221655616171 4.8631075812595945 6.437874574876091 2.5702572683458316 -0.8644056541552662 -0.2851618229491669
Ni 4.912607057529399 0.805820635192173 2.9755130005428247 -0.38557085759654885 -1.1657086056406698 -0.6262374263468182
Ni 8.79268234884535 0.03934878614639623 2.840338281390272 2.9639731236470177 0.9190649933713589 -0.4058445202439204
Ni 6.795091924998651 5.949402336523451 12.484894634417417 -1.0412558997805228 -0.7183132585381565 0.19831021527124557
Ni 9.132221447281536 4.418643340405749 4.345992711076297 -0.3550379791150144 0.32755365765181654 -0.7098083063909388
Ni 6.873377079061686 8.087326422874222 6.806256941038491 0.9175596124704263 1.5055349100122524 1.7448357087632465
Ni 8.468952615883214 2.664519002599178 10.761952458712127 -1.8520226855644102 0.4613834338514893 -1.0561901524928519
Ni 5.244037121853454 3.671766930492789 6.378206759955028 1.0230324347939608 -0.8495385072354465 -0.8704562312247203
Ni 7.145071520962939 1.2018183030903822 1.8035606509240705 1.969104295771467 -2.4799986918688903 -1.2211289913925034
Ni 2.2697864554868477 0.6450852744935045 3.2004146930245314 0.5641357719200671 0.02613886317889692 -0.3591324608993621
Ni 4.961734985844466 6.9943159383285 3.276994441975324 0.8869629706304918 0.6322142127555433 -0.7880433760444427
Ni 1.723183681875868 8.97632921417286 13.282727917452636 1.5778212182814892 -1.1693112353902635 2.0424211021877468
Ni 0.6403443225910636 3.4544949752616017 0.25464410625838363 0.3112451502997801 0.5419877750681182 1.2124638595183377
Ni 1.1127861244365869 1.9460474338258429 9.822949530274677 1.3336656625413548 0.24705344611321967 -0.9206696188543176
Ni 8.863666585597809 8.54335509381925 0.4129030998387315 -0.7193347578241354 0.455030495050268 0.5818511869219593
Ni 1.660066973064961 0.6731278563772614 7.035291175646757 -1.5102721675869215 0.2035120711871592 0.7197600182870121
Ni 5.760563088528493 6.774071599459418 9.914198921348364 0.17869578347442774 0.40326956042789264 0.19033131083082702
Ni 5.841672007047528 4.161671486210939 10.86952952465672 -1.901862234794357 0.453574993550664 0.4210847342324426
Ni 7.408173916410905 3.88895528743416 7.983104434960902 -0.0017784320566614532 -0.38954346909105175 -0.4981404388658647
Ni 6.159865675484086 0.3960283206044749 10.620945365540093 -0.01234566604954648 -0.06635451616583411 0.6310070798213198
Ni 4.666317207033271 4.0806461659817215 8.60193241549316 2.3750891982479936 0.16507587869814797 0.1307465092886587
Ni 2.676984436480596 6.2276731772235445 8.554200578618016 0.16693272940122864 1.3182557557441879 -1.2775541642597676
Ni 1.4226106751927 7.795568391417185 2.210470682252898 0.10865893336099995 -0.29114220890231796 -0.07458975959143282
Ni 3.4507423409187608 0.7469061337493391 5.450976328463413 0.32222761745321277 -1.3992619603849257 -0.40030302160040093
P 8.960696333977312 9.220872789281726 7.342564120823715 -1.413529268937217 -0.7434406497334035 -0.3841025005811385
P 0.4097783815393954 3.287465592209693 8.065258332102633 -0.7203094630325789 -0.9263353017805273 0.3201072286761003
P 3.601915915002279 8.620767110188654 1.7876955532568108 -0.9500948660939702 -0.6031293795744451 1.1570583861648396
P 5.1970177281815175 1.9208193276992171 4.8103830687426745 0.513055408304484 0.21032600878519905 0.8202418151538583
P 2.793631916870201 3.0778753909426886 12.558443480927444 -0.11953521395387157 0.5410544646205715 0.09961250688801554
P 5.6758780209451185 2.199907573899732 0.8165435091658758 -1.6322599568463438 -0.8914354045795486 0.3369353559770326
P 0.44599037407792663 1.4530683187822453 1.2308854284593254 -0.4839497491877794 -1.6043701724146113 -0.702018892253507
P 1.2376633920236106 2.150352365436717 5.302669246850688 -0.7821038706315563 -0.7283079078570233 -0.9681321832116553
