# total energy = -340861.514689633 ev
CRYSTAL
PRIMVEC
9.35095030928415 0.00000000000000 0.00000000000000

0.00000000000000 9.35095030928415 0.00000000000000

0.00000000000000 0.00000000000000 13.68606098618208

PRIMCOORD
 96 1
Ni 9.372737930860488 1.8348247496508967 9.241006419680541 -1.1816512450128553 -0.44484866942125967 -0.7376196721762522
Ni 2.4152475805613167 4.484210772692051 9.54835438650316 1.4310101993308 -0.526411517896416 0.2710480092556042
Ni 5.920656990254265 7.335792392272266 5.461107347131981 0.4330267370856671 0.2553082299228442 -0.6833866218643004
Ni 5.464115547816744 1.725848775823666 13.69112456297696 0.9814515260283807 -0.370459198766091 0.15431812596101166
Ni 3.4036804222837804 2.627598309035882 7.0758303656735615 0.27204482595123464 -1.4072328944055443 -0.7873910871724247
Ni 7.575560106782651 2.7228190350941186 7.4751075240780835 2.3378161728291484 -0.9265685008372558 -0.7745656532729822
Ni 6.378470161921279 3.0535995480651548 11.10378864028979 -2.261456980042118 -0.9082203373473713 -0.8551149728819595
Ni 1.1237971970616598 1.2641456088664398 1.9830148683075313 -0.08622065896214183 0.3125481853819198 0.2950356304194532
Ni 4.618078975996551 2.635303492014571 9.343843494690406 -2.14363900588967 0.544594616563346 -0.6930627115014838
Ni 8.518220047193608 2.292927800774634 0.5987927726114322 -0.20388565247649404 -0.7121786063953283 0.21373143492232224
Ni 0.2265183531481224 5.369988882933878 11.67906844858094 0.9788367141133528 -1.9396129711805692 2.016465815774566
Ni 9.220027562869026 7.739865653043014 3.759711306125391 -0.7275118943182891 -1.1647619254566843 0.38179570682483277
Ni 5.205645932872648 5.577954015756739 1.9411216762409984 0.3365558611504268 -0.1020339718453146 0.3514086098925432
Ni 8.675241203235041 2.607213237563138 3.0439577832965554 -0.6281852941018085 -0.521562931554863 0.8566545494549375
Ni 5.759745838922621 0.8625924291791346 2.442044598597759 -0.5666994188821853 2.6999578528684793 -0.8939599707736153
Ni 7.430798046475514 9.566676638358064 10.008876528447997 0.524737986848735 0.5919949602241804 -0.6693183166966925
Ni 1.290468533726887 2.976977861988243 13.434018316574482 -0.15136495686995866 -0.2852314998448378 -0.002850582074917671
Ni 3.8553500196583212 6.98059654828502 3.6187859406922316 1.0505872044837778 0.4974241295251305 -0.4738833660907129
Ni 4.331874442709263 3.74569142646526 0.39547412695132755 3.5958093842378527 -1.414194413325042 -0.17598172697737435
Ni 4.704762284506798 9.345928756588764 4.152337133640664 -1.403191377346319 -0.38552483484996186 1.8849127514242119
Ni 4.999017985930798 5.059668249037321 12.130078803965192 -0.5655678763809033 -0.982973876210178 1.1430756987325024
Ni 7.464498871057061 4.173282327031399 9.245686570264077 0.3051169259148551 0.5488407934342096 -1.0165239442514817
Ni 6.639679605278913 9.00503051548309 0.8279191057750356 1.158383018513534 -0.5925174083865538 -1.8554003437873918
Ni -0.025028753350434668 5.7806919674083765 6.185388001463567 0.6936293826382313 0.5943099815106023 1.090894902963889
P 2.0218811577888682 8.298781298454667 3.5098857095617566 -0.24060486227439853 0.2447764771535849 0.328122385671093
P 0.293084027361828 4.305738536853152 2.20712348158477 0.2296779309492496 -0.25365809591393085 -1.4030918756539772
P 2.9316257534364953 7.48609021510778 9.03301884457716 1.2844398356360074 -1.5723691940279823 1.7484846183697436
P 9.79764510871439 4.278620781224273 9.158739564957713 -3.3671791778268267 0.2607106318853381 1.7442834358042025
P 8.10257966100461 5.963203813740956 13.00121052088236 0.8611755772537427 1.0626760173275116 2.177997171654565
P 3.155524905428877 1.8432219029456327 1.0440083441462993 0.3843213014601639 0.9515670797641224 -1.234754552595738
P 2.0073684830523093 7.1550572264808885 12.76787626012117 0.2977951954424613 -0.1445996131216671 -0.6636318078348764
P 6.776474656001288 6.281528861023142 9.333852004383695 0.523058542263783 -0.04745639370975052 -0.23388888370680366
Ni 9.13657968313381 5.051392658095405 4.090735878897087 -2.422009774058932 -0.7900719764386974 -0.49617020251337135
Ni 5.613861664589463 3.5876977716012743 7.363292601765016 -1.0538316795630045 0.8608169083627433 0.7540374514126433
Ni 5.450276141495797 6.963802241695549 11.000636438257617 0.02458026044252541 2.790610836570362 -0.07907556327692832
Ni 7.044080149307251 3.0435472765820357 5.031050600993657 2.199657430236818 0.8516010461914301 2.4172977132952433
Ni 1.9899850665991754 8.528066597771957 7.549135256564839 -0.17598429808053562 2.569309559720582 1.17788200777841
Ni 8.137776637620853 6.731103845549106 1.6285315667268103 -0.5142645981212369 -0.6534193860782489 -0.5139038723477085
Ni 4.045978490779131 0.32965185327986196 7.395372906673981 0.48569655667555706 0.025060542513053615 0.3918412639862929
Ni 3.697524681898239 1.937750658687822 12.10518376920286 -0.06106087186706258 -0.6657156869470987 0.3083840267019012
Ni 7.958958416623931 0.401101528791831 7.7266162916807515 -1.2368731416006375 -1.3679875757516762 -0.2556026212348114
Ni 1.4967411445604966 2.489718548088352 4.166885341988047 -0.36413505632027604 1.5290252798247086 0.3753748909001535
Ni 7.137954338534261 5.214491931777793 11.27126509376869 0.00884768019861702 0.5070914774115654 -0.369275462870635
Ni 6.801451044030508 8.322280236349624 3.055837230452048 0.5263634382672999 0.335124528020539 1.4661394389337652
Ni 3.306767174236293 4.870152540992317 7.335906473864912 1.7204482810578177 -0.5174905612577024 0.1788773033576145
Ni 3.0406391310645935 6.126181525070526 11.073980616283523 -0.052931300781392715 1.6139860982378205 0.0021514991253640367
Ni 1.9884982655146954 4.757557749431163 5.445929819835004 0.03157160415869401 -2.0126037617159986 1.9171525852945241
Ni 2.5988160842684014 4.2874574291792005 1.4717170666851702 -2.0282244989723908 -0.8360363589839537 4.3977644852673805
Ni 8.075359044923346 7.304513463796885 10.880487014016268 -0.9237063487981124 1.430374365519014 0.3171751426309699
Ni 0.08799431173065096 1.2005217435909568 12.008094723291295 -0.3811498457107178 -0.437819273378304 -0.07892309685946408
Ni 4.168326323416466 8.749356834653835 13.285428912343589 -0.3646639322405526 0.12462111311721118 -0.8157053607360855
Ni 7.282361062733155 4.068317910847199 1.8896203828266467 -0.7685212468511151 0.9114280456513916 1.114802562819422
Ni 3.014746349914122 9.057311678145528 1.7828830264813311 1.995547834674976 0.0588011292986084 0.5330827592690045
Ni 5.681450332756892 1.5783188342523413 6.078540303905692 -0.9138104298406391 -0.8985218791126849 0.7470031702736812
Ni 4.718695200329913 5.3200267559252215 9.432378291343591 0.6925744590111557 -0.2389393016465175 -0.6527105329366824
Ni 7.973648759414611 7.165418079321164 7.626324545319915 -1.0556882731557689 -0.7984658569293475 0.9914939978660472
P 6.013409065455252 2.739781658787494 3.443536042298061 -1.6280428334412027 0.15148965537328102 -3.6564977032568446
P 5.233595923070828 5.402090695028343 6.4475035518972135 -1.943328986579576 0.6343279166644366 0.06766140790271573
P 8.427169844932088 0.40231715232002213 2.0603406809357723 0.020580138144196816 -0.27752384678793496 0.2010790362656343
P 9.125171523869247 3.2568331000782864 5.48329247652147 1.0270731805222377 0.2132958900468004 0.332805135858743
P 6.724417916144055 9.306458395723418 5.173166342389424 0.6654529202040151 -0.1395293976876113 -0.07683073310680961
P 4.329256176648544 9.264556787801691 11.13300848952742 1.4062970128548362 -0.15076126184768873 -0.06660725560658852
P 3.0882915733696876 1.4379143167462602 5.009399410861551 1.3849198327306407 -0.7328425625025831 1.5554418221450244
P 6.905106327184348 6.3039150358422935 3.540214581495105 0.30326007521177445 -2.134508247232995 0.32946835817602615
Ni 0.3094079811553921 1.3221495530615925 6.53454687199081 1.0432600746947451 0.8612398548327749 -0.1682887292084908
Ni 0.8065447037693478 6.701994337524036 10.24342828292742 2.198688124345013 2.6438221862171756 -2.969735737162408
Ni 3.7437464288201543 2.2590493081389673 3.0859332637249968 0.25643411599717125 0.6564188350262049 -0.47257158925782483
Ni 0.9004946356931139 7.966289561593946 1.588143877645191 -0.7816716681901441 0.39475946607435236 -0.21333368526327132
Ni 0.07662823174206343 0.6315285791305988 4.163490947059329 -0.24564833823557694 -0.5901733336344094 0.27496637047340383
Ni 1.905517933290322 0.5979680188023055 13.520527697410696 -0.11936269293174927 -0.5185804518877715 -0.6166608384019766
Ni 1.7153476587301375 6.12524643004884 3.8187532057946147 -0.7806128879083266 2.119136135652299 -2.145496113703066
Ni 2.882467808146487 6.601191094186337 0.9307028803686647 1.7478930075323316 1.0731383503114162 0.7613843786960178
Ni 1.4724286739966728 6.043883812211983 7.982504109269973 -0.7112319262113428 0.6361256319948076 0.4130641779208112
Ni 6.509991276721349 9.264341715946703 12.00934026986018 -0.9289490852542904 -0.17276424848134117 0.9292113377767416
Ni 1.214136727106698 3.4676783255679378 7.413903684718723 -1.0221160936272784 0.5089647831748783 -1.357646084616352
Ni 5.9422202814543335 8.060425577427027 8.542715796381682 -0.8607919686620787 0.9826437465642688 -0.2784874962527849
Ni 9.412479469282124 8.307907825866318 6.438990446819789 -0.5450941819075839 0.24112988153993312 -2.3062157723150474
Ni 3.9331499254625566 7.062043324673829 6.827058621199367 -0.3106460832632004 1.60228886440555 0.9095742802721045
Ni 6.984785773982171 4.013035093165151 13.310707336064812 -0.5661823700364508 -0.28778126284988503 0.22661369020162908
Ni 0.7722070794780339 5.6221372555313796 0.6278854489261121 -1.0935056011138589 0.14943560105772974 -1.0915790735151072
Ni 4.470698649628695 3.5821994128737633 5.0850149346951286 0.4278428788918825 0.18726012810467105 0.24555423585987385
Ni 8.74146463267081 3.303718764465598 11.112287718941891 0.6297950617910896 -0.287481215110963 -0.010047614043989147
Ni 7.1406474121967145 5.293675778214124 5.828058270636834 0.9990160172747052 -0.3439660375715689 -0.9744704667248573
Ni 2.1920684517356332 9.314200982502975 11.24227808319146 -0.5852607268241404 -1.0463482267017656 -0.3404886205459297
Ni 6.143405975369973 6.733684707808959 13.401582675557277 0.6672622054986121 -0.23190682027976836 -0.8701443564112563
Ni 1.794129414307143 2.3607689445979183 10.66406955729239 0.7501142050988372 0.22103233945910966 0.2343768790868157
Ni 0.1999878371928608 8.228219028118277 12.914317751087255 -0.7726854055311337 -0.5378657824799448 -0.2801857098908142
Ni 2.759025914333782 4.729224370274092 13.028869696528796 -1.23471855715148 1.5923824039251155 -3.3261597979916715
P 3.2594139623381384 4.660738010885844 3.727809604365568 0.903900626926095 0.18451393281810158 -2.022518192616233
P 7.412002636539636 1.9220504132737222 12.477950983742598 0.38469925362487295 -1.2420269178874352 0.4634644847502341
P 3.9777820108476063 3.7037711166430984 10.94533117829505 -1.4632662311510283 1.1240824454594511 1.4232637226161617
P 1.856631165556603 7.112613263446583 6.050320071246245 -0.42548132063824134 -1.859861464882539 -1.9137219623464201
P 0.2890275851577562 8.881223934611928 9.56028806916991 -1.1112300149768155 0.06059884462897951 0.5653148798298329
P 5.959098746595757 1.4039797184092926 8.582748149355062 2.6734232969130605 -2.6822570931546066 -1.748795978962575
P 1.9614366155871163 1.6775137141527414 8.347621311437301 0.8969902729595068 -1.5351339638256076 0.23216521614747754
P 4.985646127120695 7.608868191455088 1.1894614396744605 -0.7778227267576991 0.28015331399098203 2.40817749616153
