# total energy = -381171.1292911591 ev
CRYSTAL
PRIMVEC
9.22849873973113 0.00000000000000 0.00000000000000
0.00000000000000 9.22849873973113 0.00000000000000
0.00000000000000 0.00000000000000 13.50684073654128
PRIMCOORD
 96 1
Ni 4.893642100864351 9.011933433941572 11.268541285256372 -0.11822806510667382 1.1142690589134554 -0.5434214221908511
Ni 6.767138060848649 8.343264110095777 3.252258569390373 -0.2688661711129369 -0.8757516752957046 -0.5330863588134304
Ni 0.04137135927240561 4.7264678485289435 12.44244783679925 -0.0003398998379219953 -1.3623056948755505 -0.9624670145060777
Ni 3.4826508057596315 4.285188730454302 11.73740346282896 -0.11781257483581 0.05679721149470218 0.16131486899381894
Ni 4.923930033305134 4.936840702861702 3.3359056807990464 -1.109158220049451 2.1888400279063402 -0.028720250752827952
Ni 2.1115450816509727 0.8484395539351388 0.9304458382908047 -0.05594566212768429 0.5111142254177133 -0.1970665726721316
Ni 8.398875042724713 3.9138985458442876 1.1200711820466682 1.0384297431856375 -0.9190657647023076 0.3293773411241166
Ni 2.6540516009879425 4.236250002321006 3.12293038985803 -0.2298273120429203 -0.6821396368310768 1.328995253648879
Ni 4.321318302515749 4.8780459382120265 0.3763926214919491 -1.2233807635411578 1.2510481475494388 1.0368500574033435
Ni 3.1819955495170036 1.5721947088389105 12.183386346645548 -2.701469661527315 1.2916137276766273 -2.0378383679130714
Ni 7.886601084836862 0.6594971190764776 11.093924248791323 0.8346775309632141 0.42469302040899115 0.5188977260178742
Ni 8.555261180184045 6.586683999012239 5.914402640810163 0.7197337930347669 -0.917499191546136 0.023469029656217645
Ni 8.938788353952036 6.671373930763939 0.0012329274144085185 0.5812685749456118 -0.5402327400502244 2.219816421683196
Ni 1.8203028939914034 5.4397569631581595 1.397296203166229 -0.9532326403920035 -1.0140047773740537 0.3410336944161223
Ni 0.7595700351625895 1.3450813580260839 8.912556346650717 -0.06323962468593625 -1.4224273427577954 1.2041203726496488
Ni -0.02032945958982429 8.899917917803169 1.7486094568333534 -0.3516598066714008 -1.14151118245886 -1.2200658402353117
Ni 4.332807783286248 9.611758158150483 -0.023854746059166015 1.4450080562717889 -0.5056035800121292 1.8955967135006193
Ni 7.753212365915749 4.808121604237676 7.499160104808012 -0.10137525521539316 -1.1222009121660221 -1.1221217221886546
Ni 0.6295515639341558 7.325102315358779 3.7020223690878225 -2.825293475554212 0.9694467882580206 -0.04947136725725028
Ni 1.4406701466371876 3.1550760190691767 11.07405621413204 -0.372000832221598 -1.5523528988070556 -0.20517943158725307
Ni 6.952584740433522 0.501384329527057 7.212139955262903 -0.8707431663375197 0.7978318228897744 0.6074943414113603
Ni 5.326015717779529 6.71938058053754 12.418175962602875 -0.50987186837018 0.41507529481356903 0.021182290504569972
Ni 0.8522850693062767 2.2650703845409432 2.3629136953626757 -0.17293805505504412 0.3960874408571565 -0.5356500057755484
Ni 0.11551311711191188 4.647158131467366 3.11243574123778 0.49750820459850453 0.4885725926717715 0.16741403991302137
P 4.592765360655062 9.649687287441044 8.255029512027654 0.5146456356097395 -4.066662191032358 -0.7120431092587286
Ni 7.746392505442336 1.5480621849715583 1.45957657174122 -0.6534746647962165 -0.10691623963828038 -0.5384918460997178
P 3.699382095635261 6.34771202748448 10.751417751348525 -0.17599509671381303 -0.13155409279161862 0.18258946210187907
Ni 6.997970496601644 2.9622834545900716 11.836408641625797 1.0892751079722789 0.3784306470073418 -0.1183152255038414
P 1.3714840925517036 0.649969617110644 11.109024841068242 0.24936255386237052 0.21874148654240394 0.16992832169444283
P 0.8139018978840619 4.068402069587008 9.024757355611197 -0.1814329798999327 -1.5339067762867262 -1.7059781124661006
P 7.441104542897065 5.70307371402132 11.887937809319158 -0.4833643089979547 0.8418524514450985 -0.8581275344560383
Ni 4.879577868981427 8.302372632751137 6.253315560893898 1.8330122059001788 -1.4161029432016643 1.6658761022388924
Ni 2.6144059709557643 6.650314496933997 3.3467380924684527 3.308107825585967 -1.1081369778737884 -2.45777639013558
Ni 3.0468257303639974 1.1756092095365778 9.529927215268422 -0.3188494450095993 -0.20428674456965462 0.9363852298173616
Ni 8.377547982435056 2.799354311615653 9.881401967661235 0.4317345006368048 1.5748050571629846 -0.5290780089849856
Ni 6.638317448739902 7.853572288308658 10.377494676084837 0.4962805028389904 -0.8760118709356268 -0.8370666000206811
Ni 1.7017536008365244 3.362569581835353 0.0714618018429177 0.7708496378739756 0.32551323018302003 0.2849093406187287
Ni 3.132641538946219 8.218725521342462 4.851211309951419 -1.2826994559061329 1.4922124818717333 0.3739373871226786
Ni 9.00292641929739 0.42301868787336827 3.8057008595811905 -0.7487515204233557 1.5981427034476605 1.1352271492223611
Ni 1.2541529612134557 2.90320260648346 4.715157400631496 -0.6778122131003165 0.29305151010988884 0.5100647011072764
Ni 9.004633691540395 2.4170083856698494 7.16660838881673 -0.5544586538416192 0.19331764715266062 -0.45016596786911506
Ni 7.4674519064310205 8.0828266507992 12.619211422041182 -0.9519843698071991 0.3151550268771476 -0.1721114453886907
Ni 4.9749359451272595 6.707854185772598 8.814442640819687 -1.58748419529255 0.5303923569210349 1.1118802469663045
Ni 5.21327115025087 4.896078424497612 7.354299439263761 -0.0461844689758624 -1.1289276893668945 1.473236969210495
Ni 1.9889444776059337 7.697490691303483 1.0099290511262666 0.18878607783089424 -0.4288417524700421 0.4595376388920021
Ni 2.372979218797521 7.660382898389287 9.556454534525288 0.560490461857996 -0.1469550007277211 1.8965184539839401
Ni 7.510641279929762 8.642433578062061 5.345372493615772 0.9569388855989971 -1.3526319192312122 0.6729181182328088
Ni 0.434258076331513 7.442581102674801 11.132689480056024 -0.9138070874065294 -0.23834614814720884 -1.0926075147796215
Ni 1.4989204298688237 0.6526772586030652 5.793218611301888 -0.23506850583720162 0.2028145308995023 -0.9208480534137109
Ni 2.7815894517897815 5.963778799777613 7.785235256095372 -0.04520205045793505 0.6360047901462272 -0.4626851833820483
Ni 4.020783016755062 1.17892224053787 6.2169958817610675 -0.8980158860105438 1.4265855879005431 -0.4141352994978029
Ni 2.8148212752874247 8.310789023484224 12.337324163423425 -0.20113122965980845 -0.5416285919564866 -1.3360601309154603
Ni 3.531995587831805 2.946438122475256 1.5039730328582595 0.3334196295142903 -1.091686802737565 -0.440480365150235
Ni 9.172278597304954 8.768910151523652 7.196809573370573 0.03810220618836019 -0.2603751029227903 1.1989257158225866
Ni 9.152584981269419 2.0170452558759484 13.010424089452284 -0.17845230000505397 -0.09398616184017362 -0.48469716887676517
Ni 8.159487788759465 3.952907409472318 5.361189217384893 1.8978700829158281 0.7915889273038561 0.4370762245646924
P 4.26763612609648 7.313732805070221 0.824116922996403 -0.16139380186087043 -1.0499822239099272 -1.4000541172689178
Ni 6.858140285650164 7.295211208358261 7.733638720362152 1.5845266553261226 1.3615392490231712 -0.20049128208296438
P 8.457189925446626 8.573312123466852 9.40085558799746 0.13619236289457837 -0.5975760538563838 -1.1137736073342754
Ni 6.558721648221388 1.5330105037372745 9.337265695469592 0.6082332764599138 -1.3406156114966266 0.673738300141259
P 8.17936597476722 1.6941493179811904 5.319830778010543 -0.5224633318819454 -0.2603463065673839 0.5645587183900986
P 6.1477950620778055 3.7410210813673808 8.932721538965268 2.443523222650676 0.9505862039080918 1.191412181054361
P 1.7867942155354353 9.241972218814036 3.3325695785512273 -0.3131698781263187 -0.9334161198867086 -0.9469000133057562
Ni 1.4794482977999466 5.407355704535493 10.3773460972572 0.8589860258015917 1.839201622540342 1.0256791283881885
Ni 3.801181663811461 8.781220968670516 2.1972113885556985 0.46528225468526324 0.21724510450253554 1.8121441042019177
Ni 3.1991051859415047 1.4843578590609143 3.41821650560887 0.46078770924901935 1.9772531501308466 1.3273952561516107
Ni 3.222527115415822 4.143494362783431 9.268083332783553 0.11459458211914458 -0.5337620447242163 -0.35487754227775015
Ni 5.670589398911156 3.1086566710566403 4.349391395289931 -2.53900756630293 0.25510202744930904 0.19677475246332563
Ni 4.801873910678135 2.646641116603436 10.634759377559007 0.08119338095087951 -0.23110926407913746 0.08115070063840217
Ni 5.6252128712416445 5.030408450277032 10.650629626620072 -0.6086739635417582 -0.3338765145460508 0.5072994796573134
Ni 7.4194452566574185 5.779531825012148 9.364670644944349 -0.014675599734303756 0.1424781959032901 3.1666948377223982
Ni 6.479061248212598 2.8096810015611853 6.34880929596931 -0.4199153965146897 -0.67922657694934 2.3372307326393233
Ni 2.1397289164084845 5.970404861780198 12.78304957212877 0.25710748791511207 0.3050032831551263 -1.4132343634046176
Ni 2.587578725494046 8.543734785419103 7.530252762327662 0.3340333518388892 0.6329942854546775 -1.1301841874818148
Ni 7.214609501491165 5.394325064496983 3.957963703861198 0.11703892989457908 0.6814624082583941 -2.285012912985187
Ni 2.188612273550116 2.5175436495363646 7.285886733361866 0.9053733548168795 0.6101420634468524 0.24399229068939265
Ni 5.506986575538145 1.4562847662867324 2.5846957425280186 -0.0836349005128366 -1.134239845608427 -0.6288180425898009
Ni 5.84157502117284 0.757878451367222 4.778679925119507 -0.4445771609274279 0.7537479451966825 -0.1440465688316745
Ni 6.187431463611373 8.789665044899436 1.0469233335075496 0.5056444605523936 -0.24837679291033352 0.048129251407059044
Ni 0.2512957085726776 6.63182981421648 8.597617220258227 0.1688245471073028 0.2675022008858748 -0.7217724207313505
Ni 7.613197584992051 2.8939556508753963 3.4484721383045165 1.6489950102128377 -1.1775935300037137 -1.7002016149936396
Ni 6.290762962556974 6.161222527556581 5.847354829852811 -1.072757827043546 0.732806309948009 -0.8286791472879341
Ni 4.783416913456451 2.3759415668516017 8.308543729772206 -2.7928641513809125 2.9092963009294284 -2.856060581533739
Ni 0.5505879155704844 8.774004282756838 12.911985540470152 0.013146564684287036 1.9520517111645541 0.19101265316856783
Ni 3.999492870459849 5.416196606204679 5.577758085684971 -1.4920967822294755 0.23998316952999957 -1.0747928551957038
Ni 1.4883353419621876 5.5230441631210105 4.907481157381169 0.07755295598481482 -1.0113567982282452 0.42399136635627627
Ni 6.603655207957578 4.869066609063677 13.741319333731262 0.9171330664559689 -0.08921316593156249 -3.4250930194244753
Ni 5.049262272938983 2.7083151728196944 12.95645029247691 -0.5267856134063831 1.048818285508813 1.665229984014461
P 4.918060708188639 7.203766015623425 4.16758997265634 0.9355974438087435 -0.8124470016997879 0.029668987819342456
Ni 0.9445460613183105 4.6663257230820845 6.881465315889067 -0.7832711514667801 -0.6122359698614037 1.3952281566351843
P 8.154236773049897 6.685890359078793 2.223793155954368 1.3837026724940877 0.29766021252649383 0.24313277090257482
Ni 5.859459851480652 3.544389461466166 1.8153868727814078 0.5411100004488553 -0.5104804484884563 0.07886858947244481
P 3.2916485700110303 3.2702292247352656 5.335999107576738 0.5007627069800601 -0.14601629096353563 0.08346135104944981
P 6.444712776383043 1.0595239255107936 12.953627294751856 1.183744122986142 -0.4429303693526243 -0.2805541489738265
P 1.3067277177994236 7.317221177545119 6.1096702886166945 1.1155677231202208 0.4101189792495582 0.9032478238334444
Ni 6.12745545113951 6.382051270815425 1.7069409399056787 -1.1893162177572807 0.6178620577989294 0.9156883635896423
