# total energy = -340885.45151665376 ev
CRYSTAL
PRIMVEC
9.07945332318754 0.00000000000000 0.00000000000000
0.00000000000000 9.07945332318754 0.00000000000000
0.00000000000000 0.00000000000000 13.28869770368939
PRIMCOORD
 96 1
Ni 8.822804300499605 7.729483784006637 11.13483893785311 2.4337761705662406 0.20265152295907682 1.7914752629986566
Ni 5.255214752964109 5.67257905785585 11.538563180196144 -0.9312849324763187 -0.4881216211772819 -0.4184791782887954
Ni 2.3738502786038174 2.3625009620985384 8.017655641310164 0.25948755811151436 1.0478726337660922 0.7431585997166105
Ni 1.9722297455682 3.0785974363156368 12.811659593968695 1.0132007934155196 -0.37109323280566414 0.11798561007856455
Ni 3.1513692537474873 6.598801317578291 8.148389780052455 0.5748737271628616 0.28302420778087384 -0.8896795982307064
Ni 8.269892838722013 4.892118339874012 6.050118157157906 -0.2661248609223739 1.4872803346774386 0.6960246223432851
Ni 5.088416118149322 5.356977264477044 7.02463130463765 -0.18475381674304955 -0.503173887524714 -0.14475130820818297
Ni 3.3170874336309724 6.861951109796297 12.629206165939188 -0.3701478381732593 0.3092520311291513 -0.5819074940811914
Ni 1.6927732553954082 8.424851866558495 9.227392906787683 -0.700846726322277 0.9160889414621707 -0.4504305343844114
Ni 5.419316790177243 0.7935460259397649 1.6809272927998582 0.05500695236349881 0.3223024365552062 -1.1623633433175207
Ni 2.9677736305048863 1.109391148664443 5.803214230558217 -2.3187969514141678 0.33568451428906704 -0.3773487267970727
Ni 3.646953047993612 4.627869933818295 0.53644042571981 0.13994874461321702 -0.5514473778191213 -0.7601499920682844
Ni 0.41437716478755116 0.825748122619184 7.089639281634568 0.6107501293444966 2.6430598541298544 -0.6629802902938066
Ni 8.183910416878017 5.1373634503732895 1.402329718900186 -0.27771179442902494 0.3415800538378956 -0.09187991413044821
Ni 5.38953618366739 0.4106564048644604 5.995714073558199 -0.09088721119987572 -0.029004871872782306 -1.0962386837743054
Ni 1.4221238348307133 8.771641581693807 0.2876897383383814 -0.3006223804786113 -0.9165699948636472 1.5905934303454927
Ni 6.598565251794981 1.7554487208641623 4.0697831837142955 -1.5186413654872233 0.8704071231543398 0.07524436245629623
Ni 4.574273921553763 2.5397318886449787 6.629266514859742 -0.05835967088581562 1.6689506273991577 1.2520588482021404
Ni 4.05371255154282 0.42923841379222405 3.623389143092691 -0.6322111274317498 -0.24371461154797383 -0.22465425248241308
Ni 7.273985775657159 6.301903197800186 12.63357792265702 0.8859874940910999 0.11565619061443953 0.13326747593829952
Ni 6.07007751913675 4.043643437939336 0.6712639501852844 -0.04019534127196303 -0.2742978836514695 -0.8682857059359627
Ni 1.0636942606875868 5.639557086552089 12.208127456741597 -0.8702436009932819 -1.4243947508968113 0.6148870343310056
Ni 5.7047203221988 7.865521231365517 3.851968009290297 0.04285000528599072 0.43784498440991687 -0.23051328236635135
Ni 6.86810697906876 1.8967340921750826 12.957542800382235 -1.0764437605355657 0.04039280199474979 -0.629789919584767
P 5.418308970871574 6.426527772481356 8.955732035136037 -2.487195980948278 -1.8645601559097889 1.100996510174265
P 2.9726765352351667 4.6104010658533685 11.601364850064437 0.31309274503148016 1.0763144340465527 -0.08931086785169134
P 0.28601911894880433 1.9279038550251815 0.4849680975597472 0.7849228281375901 -1.7454859407527357 1.3437901525698663
P 6.492571715088878 3.526459624520364 7.0515409880443265 0.9969511643258767 1.1185028944891446 1.9378641068102627
P 4.631410920567942 2.234008540352369 0.0428513873426527 0.05938245572337515 0.536914988530901 1.2812215858090257
P 2.262064050753419 8.676652342271222 11.43024621141508 -0.11284931729326371 -2.1685069727759427 -0.8767150676502383
P 2.724716668227826 4.6097110274098485 2.5884785649531334 -0.1444936836714221 -0.5206483901603937 0.9078446991755075
P 7.241136313964278 0.2069407133213003 11.489846466083563 0.5313045843226591 0.23959519006296157 -0.26328404903946917
Ni 8.739527555710469 3.2922551291174216 12.353598455979666 0.5831796759253955 1.4718760843072263 -0.3408496034297743
Ni 1.7574734389287041 6.07183893305837 1.299704659332849 1.9237124979002291 0.610914937057135 -0.4960084801245263
Ni 4.223480167555389 2.9538911465556286 2.3939857819748234 2.0592191475816923 1.3254828696202463 0.15762353618516078
Ni 1.0297098673441787 3.6609898826473417 6.416275253923147 1.1771685266511531 -1.3995841196110348 -0.14418000908574524
Ni 0.7573271791627975 3.5883451775603503 1.857348332120482 1.7247744192369976 -0.40845753238673527 -0.49862252070860585
Ni 7.789344618982082 2.3356530189736495 1.9640564217937582 -0.587279299916066 -0.4910393090447091 -0.5063705400851408
Ni 1.4366418805042667 8.162764370365382 4.707241605784295 -0.7627822874848089 0.5639442247345513 -0.14275561793439284
Ni 2.6193950110588347 1.7246058183294155 1.552624631625657 -1.528227980734394 -1.670286572601762 -0.576262379980272
Ni 2.9884203070912903 1.55123365939477 10.757625790921084 -0.08651376472252842 -0.3608792683871398 -1.3300085254047416
Ni 1.3849343945062145 3.275294710531932 10.464968683734671 -1.2197696491511316 0.8266397482604022 -0.8271984489773495
Ni 6.7688957939062115 7.0051340868269 6.010292043622901 -0.4295629469067828 0.20078798738777678 -0.6571497996549586
Ni 6.320225534366308 1.529697196394352 8.147686122429128 0.9559022168043665 1.4757684773830972 0.26607189619725147
Ni 8.510244123944215 5.39561941731422 10.291404948337417 0.2628706156511344 -1.5816616750735017 1.070268484962789
Ni 3.6515200129553365 4.343891875949799 4.94887037007233 -0.15566255580404806 0.7048152240517216 -0.876041952842614
Ni 3.5043874737808967 4.2915669871338595 9.51640824529388 0.2473486087561353 0.052215248550974584 -0.9963253578164197
Ni 8.009421485199253 8.845938747263967 4.701023088284723 0.13036521468984 -0.16720860877043459 0.37078058666125174
Ni 0.6777194414134872 1.0919313601527214 11.767114808034137 -0.7465205742103079 0.040766383284084634 -1.2669344797623923
Ni 6.478725548952436 7.4479934963161 1.5917198491777225 0.9235453977402158 0.5268056680110411 0.13504873620843838
Ni 7.410549831301883 5.891212291013549 3.7452335892027286 -1.7077809700027946 0.4368643656642025 -1.5136189725719675
Ni 8.063407913951565 8.995713407320835 0.27792660230787997 0.06896727119833283 -0.5087572951497625 0.4833756218518643
Ni 3.5918226081375675 0.3699241618996735 8.010998586220826 1.0059178866008613 -0.8792730581854017 0.018359476343794187
Ni 3.6711407113296635 7.947917269193844 5.693701497790156 0.4455572654525101 -1.6940865032348373 0.41258106763680563
Ni 2.2603752724574337 2.550109703657406 3.7804219180410166 0.17115448079206005 0.7225365525908847 -0.007598381172548205
Ni 7.576849096190439 2.215658965426633 10.405037029024234 -0.12467047829790787 -0.13815360038600724 0.672424466425842
P 6.666797342624719 4.092372863286403 2.7474652382310074 0.36913379508644817 -0.9567853907402684 0.1917870694407471
P 4.565394216320033 2.1883570496415334 9.120909987553873 -2.105392560813961 1.2444005603259343 0.1290521523053713
P 8.825918552948654 6.733159066094387 4.916725473948098 0.7683826643907219 0.4270833750180387 0.5017232711211165
P 5.302119208217127 6.155778477931414 0.42375623994751394 -0.8488422524993704 1.0184054775449105 -1.2663698655081739
P 0.12862588970827146 6.856467120060946 0.348517535080076 -2.1027646362728105 1.475942026846484 -1.6418252319372755
P 1.7991027318700683 8.309606367037286 6.851546056424257 3.1427370413552196 -0.8488671922000348 0.832179961352341
P 2.2722330383421494 8.595482030625464 2.6849550188105704 -0.18510965742057153 0.32653961456500535 -1.0670070406026977
P 5.12637731199618 6.073682062058826 4.796076791825057 -0.7887113486457449 0.975401720289875 0.20048228322189987
Ni 7.293070786292436 5.879472558020488 8.134662554752989 0.38640106680732805 -0.31913997966682456 -0.31905076238712793
Ni 5.9192314836017825 8.203712704316429 8.03235346015716 -0.24965514540212486 0.8384346840128012 -0.19066221180768456
Ni 8.927354204146237 7.540104549072947 2.292433005830905 -0.3274868089696231 0.5448231876343843 1.2259644651079338
Ni 0.7594009262746421 5.514533015929934 3.2542421823872996 0.4020624274936689 0.2108127186136305 2.1830987545471885
Ni 3.0593671544290917 6.764664768713044 3.5798686000488873 -0.11943879758532334 -1.030338995757703 0.6954512663383184
Ni 1.512101216084567 5.971501895698497 5.94661239062976 0.7239452600129531 1.2448170790380626 -0.16550525292608273
Ni 4.818347782589697 5.653040074560361 2.486235750365694 0.8414726995081766 -1.110606008239571 0.844902551125332
Ni 8.248274660642757 0.11561230943065809 9.311921708173683 -0.1679668270926978 -0.1833479375344584 -0.9700445697430199
Ni 6.267473911249771 4.257709706135311 5.012828762278841 -1.2024542978011357 -1.4005619101432716 -0.4994884682533269
Ni 4.804510695906461 3.0427608345185666 11.274077800411797 0.19971892269331412 0.46677657984260257 1.3471019905519186
Ni 3.9622007426974526 7.851902051559181 1.5574085955189623 -0.0030166753391367403 0.3625882806584465 -0.6360305011778401
Ni 5.394112228082319 0.763721838054532 10.404718340216766 0.703410373284395 -0.8931284760112553 0.6324679806375624
Ni 8.635050287689468 3.6141580630199575 4.002821308387827 -0.13958441929526283 0.27154808882047426 -1.2435127584043422
Ni 8.793895321497358 7.777423296924937 7.092682714348624 -0.3067503477532201 -2.1884183669878894 -0.7269315963347868
Ni 8.02448429806506 2.508680158686535 5.901285036398314 -1.9859013127241474 -1.5813626557758442 2.148673482989783
Ni 5.551858648052495 8.228508691017163 12.45783511849075 -0.1934657426947507 -0.029344771710704303 0.5171966841663673
Ni 0.48500713920852534 0.6708944164398725 3.0267265201599085 -0.15447702013637912 1.6441165990746136 -0.6827672431127467
Ni 3.426776307791195 0.5171257049184655 12.894661231325745 2.0129817138807073 -0.007755475575702772 0.5171612029427416
Ni 4.100045001243972 7.919480421758216 9.994363373198688 -0.36400855804474086 -0.23716215514143674 0.7668621139811373
Ni 8.267622975420958 3.633379265453298 8.628351467115394 0.3694850077782798 -0.6779795919161162 -1.4222059707756087
Ni 6.7804902556480044 7.460559459550745 10.2180120963064 -1.0855056136275176 -0.40546965340300495 0.39308182126161334
Ni 2.0302837693560045 6.360819769642391 10.3206934484836 0.5852116187537599 -0.07047445187147862 -0.20514420747394344
Ni 1.1399798265094716 5.208046993568169 8.303575794219041 -0.5119650034537828 -0.6218171857919355 0.5100171356987927
Ni 6.075915607547065 4.228047132517113 9.70599812354191 0.23701920180566924 0.5054521420359295 -1.9519645507673868
P 7.338350019421898 0.2858320822127973 6.7259018591482524 0.23032482050462913 -0.30094505392535265 0.20316060138501138
P 2.9622260845971056 4.638483814614032 7.0065059922060575 -0.6186128199220249 -0.7473042464538678 1.2372904316437143
P 7.238684861599138 0.2781526806926652 2.689034417135228 0.9037401900888307 -1.335713803319635 -0.9457813263202809
P 0.6356143851242216 1.9649298651920044 4.948299272465785 1.600001353922954 -1.4641769158907558 -0.5068557072516755
P 8.965769370653307 6.928630614128114 9.023610027290813 0.9482529277892249 1.2900106448555655 0.8320562912902831
P 0.5217544101619787 1.7655359933740544 9.055835730548562 0.05825245588399 1.3875922373564813 1.2515027185883543
P 4.407157505876828 2.316913027560133 4.502981147048881 0.5084906717519372 -0.38464526045848596 0.21079729199466277
P 7.148807354330531 4.306330178043927 11.58858097995289 -2.1805525910865673 0.008214674600308433 -0.10512366651423186
