# total energy = -340886.4105610614 ev
CRYSTAL
PRIMVEC
9.10936512469269 0.00000000000000 0.00000000000000
0.00000000000000 9.10936512469269 0.00000000000000
0.00000000000000 0.00000000000000 13.33247664872690
PRIMCOORD
 96 1
Ni 6.362363071562148 2.5165440505964525 11.497807641033452 1.244495948253218 0.1195048749365684 0.2013492592078855
Ni 4.603290044314245 0.5365170000296622 6.225266218189474 1.6551250343699755 1.0821937756454652 -1.312779820231281
Ni 2.5497567951892974 1.862919787631455 5.2118247726699 1.0283373919466416 -0.062341795462015216 -1.1747079809258028
Ni 3.7304306951956563 4.409880007782353 4.767586550478958 -0.00606060437178311 0.43692324392659593 -0.15774720624721864
Ni 3.750061376654126 2.755209412179702 2.7563699452738133 0.7045707121410835 0.22436397493550395 0.9403483282301676
Ni 5.297068387960882 4.742982155760013 2.717225182228182 -0.4079312275696201 0.09869950815544291 -0.8461209969134654
Ni 5.4197077682278785 3.2858754671045967 0.2270591197056462 1.2344239087291966 -0.2654694867265621 1.7220032842497635
Ni 5.94005291266904 8.39531826527425 12.746073939875075 -1.3860225788765164 -0.9323038606591362 -0.20821230487630593
Ni 2.2961338563648375 5.661725376111229 11.746578021151217 1.5597761878543202 1.5585736829057868 0.14135410960117592
Ni 0.968598774700266 7.844757357307454 11.778816063694848 -0.38904493218807834 0.6644296211458235 -0.7239704568239339
Ni 0.5332321630301614 0.40950330271563273 5.376334437974348 0.8006451239688533 0.07001113908181492 -0.8092770886122386
Ni 9.113099785553402 2.4879953008559217 1.7151831960019395 -0.4864007818314333 0.2319173618027296 -0.026568237406831664
Ni 1.7086709110020972 1.2080384323039197 3.0330987882836133 -0.6109434763022252 1.1122908521411616 -0.21054146723011483
Ni 1.9483929589190747 6.7462134916535605 0.9918959755494707 0.1996965540958109 0.7581280765422492 -1.2980602546329192
Ni 7.7483347293548315 4.200683441799172 3.543919180737314 0.49159492443786307 -0.2110225206315914 0.1962726160159265
Ni 7.762117198518018 4.318932108162232 12.738114176785322 1.7319118016127268 -1.0710593562952007 -1.2417181283977647
Ni 8.19933027846266 -0.29558887219384433 7.367593335519465 -0.3325482826529305 1.77487519254813 0.19239693511060413
Ni 6.931415990369173 1.1720837688623515 0.3804198332527762 1.0316654278786104 0.6367547809383743 0.3757618419259271
Ni 1.7977878282680873 6.7406112322118155 9.49153651005745 1.707750373875175 0.8235600808938139 1.4646574550716
Ni 0.18360744891358124 4.911113704566962 1.6719455952861038 -0.05656504087923807 0.70959439060792 -0.6230721412449591
Ni 6.714950151159144 2.3951617626919943 7.325609183420188 -0.1562978753952018 -0.6983949223476746 -0.8441643874077267
Ni 3.588971366950378 4.570268596385265 0.32057403836752896 -1.333746138070303 1.4258949895914217 0.925662958303851
Ni 5.8999990350018034 5.822569432961437 4.78334575183541 0.3749365178111543 -0.6351874364512544 1.1907318671578848
Ni 5.432123832649175 3.4485596156738816 9.446046163390486 -0.16564794915153408 0.11626451362239977 -0.24073496009435955
P 0.31422207819073505 6.323293005309074 13.03114878304833 -0.6961490637362914 -2.0604743601450317 -0.8337588758036867
P 4.163599217104309 6.646839429458457 12.896491417608175 -1.1316067788609545 0.3868414967788564 -1.0116072236761544
P 2.6262572420051797 8.74308649081485 1.8010708433945986 -0.90679388931349 1.0465901675092426 -1.3318196104715514
P 6.440940453585703 8.183543749011372 6.042291870139635 -0.016460716659184554 -0.9178779150417933 0.4613862620649667
P 4.882574064191377 1.3343762147389615 12.833748844670124 -0.13187496646614708 -0.9237459437867962 -0.37858825563112863
P 3.8147378677701975 6.558387495833521 8.633858828557742 1.4804383720549408 0.10231987851684958 -1.759460657765273
P 5.134356911296759 1.345690046001801 4.0094487216163675 -1.1619177711396698 -0.8972872353746353 0.3167483395061964
P -0.043451670792064974 6.323821348475938 3.4861093289174816 0.24272345127929812 -1.6815166369896264 1.5954885536542651
Ni 1.053798665039508 8.049663412401104 3.164929517781048 -0.3497271084250622 0.32442256822200255 -0.18995387288675028
Ni 1.7964032047963063 6.804467880482753 5.1556682705877535 1.0976893001779031 0.4039118219975818 0.16480154199083874
Ni 6.246255105961381 6.139046989912783 9.253165380961955 -1.1188967874934537 0.030065709037128865 0.658214493474047
Ni 8.720814093522062 2.6031923299620967 10.529456641059713 -0.38869243394466607 0.9856030863029089 0.20947420230786504
Ni 2.882904489991687 5.225013311238611 7.105609821547635 -1.0378954679487222 1.8411757155475772 0.7540179110286175
Ni 0.8734751421889329 -0.059491440588850725 9.080296051446629 -0.11078497856506728 1.274514348992179 0.3223877971801609
Ni 1.3591172499320954 1.2787999792038696 11.44709125169701 0.8523518083145256 0.05277086394412847 0.1764183002941607
Ni 4.236710980160308 7.292748060314256 1.5778449444581981 1.1615035664203868 -0.4633832378903374 1.0448425886905166
Ni 5.967581413535626 8.45673360373968 8.357823208220326 -1.4155169887912074 -0.4582909109690945 -1.7085839255200639
Ni 7.172231162079662 0.9953620889113954 5.007385117061482 -1.7061550043635971 -0.6345742283472877 0.947784987013871
Ni 0.8438314467819019 7.279311747019016 7.323089533076145 0.4699441789373068 -0.010562606007194712 -0.5915146781536523
Ni 5.227773448817227 4.8000249990513995 7.229375119321947 0.4971675334296341 0.2044402394283834 0.3297997733735159
Ni 8.560553036028393 7.342658270852983 9.56803877874632 -1.0235651673689792 -0.4869545974523743 -0.20758726969779734
Ni 4.7767961184392895 0.9692819770712104 10.490779188435809 -1.28766065656615 -1.5461974207286209 0.6671519051729928
Ni 8.482986793513838 7.571276002900877 5.3207509149473 -0.7997915177193065 -0.874852303409887 -1.5128949499217492
Ni 7.429224565934113 6.337913536047284 7.152460196401025 -0.27568267981413813 0.061524184656726294 -0.056197887347806445
Ni 2.132657193045257 5.68899881475933 3.024392057268298 0.21859981875821707 -0.2901903865120099 -0.9492363747484168
Ni 3.377023772753528 4.781870034714169 9.760492331958892 0.0505759131753387 -0.7483810244578143 -0.9369156483995349
Ni 1.1576180973282217 3.8370467025227692 3.852259341982465 -0.6264122613617857 -1.9294308884412448 0.023248429004979317
Ni 0.9505895602021712 0.5721765200469825 0.5427906196679211 0.21228210407030537 -1.1667812698795583 0.14084837360935099
Ni 1.1611160934674571 3.6140858861062948 8.286494147884245 0.15570626455778988 -0.5748636998605325 0.24979449919346658
Ni 5.857813565937223 3.2642133972631857 4.7124703378736355 -0.2589023750320057 -0.007375209418148588 0.8256280191664361
Ni 4.202368674314169 7.214106912736081 6.2587713733970824 0.5179559309298951 -0.486640151535749 0.0601293611917287
Ni 8.261410600569144 7.87689519683668 0.6375362135339985 0.030704371062392283 0.19242058925968797 -0.7941145219391872
P 0.43183946556304226 5.550937279638882 8.499560372096456 -1.8014141193789235 0.18939002996348028 -0.4764632110027472
P 8.780125168684984 1.87600994505875 8.466322121281761 -0.4419926880297033 -0.5444951148710042 -1.0022692341046802
P 2.001455009729091 3.441272123717141 10.90139292273835 -0.774915066192601 0.7400398515819706 -0.24804357794063092
P 3.901203959836923 6.424944408740657 3.7914096950801772 1.7345564383244259 0.16123953567119328 1.1355135701145282
P 7.039471277357742 4.726439549018212 10.718204504612281 -1.0556342799893819 -1.6196065297483915 -0.9871974273732224
P 6.6282654343337155 8.182395969028185 10.326002618738444 -0.17619847097387073 0.5139126140984568 1.0765442906691718
P 2.6030374707580157 8.818302517173358 6.207001030536398 -1.763475692461937 -0.5651577854266783 -1.4742690100194351
P 7.0387698562569065 4.214192630013979 1.299369836188264 0.26966655552704527 -1.0825766129061807 4.1157329804170795
Ni 2.9929911653631978 2.1287401661185092 0.4719616634673714 -0.417662595924771 -1.0184137050750266 -0.31348406693262787
Ni 1.6141885777829572 1.3472022005828246 7.31002305999771 -0.3831691901335917 -0.06546465736171306 0.9096773815088721
Ni 6.80713692441191 1.2176579216868173 9.48392381377214 1.7773465369067585 0.5853921101956822 -0.36811101024888865
Ni 2.9544221141821487 2.1771564408061033 9.42883401832516 -0.5327821973094502 -0.8603695364126795 0.47686790264033363
Ni 6.460607572503956 2.264096219850017 2.5569823434644054 0.837840502072228 0.47342442417642333 -0.4355513032797338
Ni 4.351816915617023 7.37280115945905 10.577533136434825 -0.05651259037474784 0.9731298935365627 0.2344830656473768
Ni 7.450403839433391 6.63017840097236 11.664143734009558 0.029593397386400645 0.8245527838243863 0.7449005221083816
Ni 7.673628827433297 4.209255354213288 8.55975687753212 1.2207379266016718 0.08013537200001038 0.4015047552179859
Ni 3.1212054769771003 8.748515672322622 12.490583581236697 0.9967904703782963 0.1267834108758526 0.6927824612569036
Ni 0.08547499316060882 5.138155516479211 10.858235484434038 0.5310413033589435 0.11701193331138558 -1.2814187894214966
Ni 9.067188586225937 2.699323458236449 6.100648283856223 -0.4849830755483003 0.2900631169055263 -0.31736643270616954
Ni 4.027341336243155 3.079384382510356 11.757137596996532 -1.4955834552264955 -0.6263343569359987 -1.6127640529052611
Ni 1.0703959279709843 4.115274036066174 12.803230650228283 0.24735632206561917 -1.950437572599899 1.7160501519901221
Ni 3.464655863533332 8.906854653812701 8.180180571473336 -0.34560048785119835 -0.9117442913402297 2.0324231104347708
Ni 5.723842135677495 7.9233529580609 3.8495392856096116 0.1952122930722122 1.0656430703756354 -0.06400169966294139
Ni 3.3943862223404624 8.635176953665416 3.822633865305326 0.2233854130723185 0.4529322177603426 1.6318041002558477
Ni 3.4628977560987684 2.9747724354713467 7.262626123247564 0.486732197028923 0.3569323679242498 -0.685153483956736
Ni 4.915058059588547 5.200263166680531 11.567710174819 1.2073388795869466 -0.44335100182981063 -1.2385001356810994
Ni 7.996546705401412 0.11559419741781714 2.624004496054053 0.2634635120401269 0.22356950405866657 0.2507560917757875
Ni 4.669487799376286 0.6740347060628384 1.820136744226421 0.3563083611870057 -0.5792057788793121 -0.20016680886401012
Ni 6.111591363965763 5.722038481418202 0.2101466727470408 -1.3750180002358965 2.3848552764958217 0.5596144870109458
Ni 8.028147092398827 0.2043576713239051 11.65153090730543 0.3502942937824419 0.4319538157364625 -0.1960342747528753
Ni -0.03719718082019248 5.163789269437045 5.659315949083031 0.1704307152521581 0.19262961994670053 -0.1461294195026322
Ni 7.335908231428052 6.284769500952754 2.26385482167895 -0.6466861811194733 -0.09845473913448852 0.960985287754229
P 8.64918715695225 1.8403376719305056 3.850712571814647 1.645108787784554 1.260717809428719 -0.5652400607278395
P 2.1222360795471182 3.6571003073809556 1.7335549632248821 -1.2466348489730916 0.6716441366163918 0.07012298206933085
P 4.768005581266471 1.6432474519604598 8.217631903575521 1.7546223558363654 -0.5925552036030246 0.8149371151114932
P 8.977388466589003 2.18666661780965 12.812296290222468 -1.554009460573872 -0.8136911585195342 -0.10397438340113706
P 6.344381185158891 8.079870066561794 1.7428884185484776 -0.1703677232247066 1.2200118470689247 -1.3329737786806528
P 1.9698546227316753 3.8509931402549813 5.847424335216395 -1.8016156938667682 -0.6152037942404759 0.2735507210727998
P 7.092250937854435 4.285837785313684 6.216653313633102 0.489511302435957 0.3265938648417085 -0.3678132765028117
P 2.5789614192059345 8.92264118326399 10.301204194546152 0.7600417486251942 0.009081650586294036 0.999880936378162
