# total energy = -340856.53685744 ev
CRYSTAL
PRIMVEC
9.34799957598524 0.00000000000000 0.00000000000000
0.00000000000000 9.34799957598524 0.00000000000000
0.00000000000000 0.00000000000000 13.68174228973338
PRIMCOORD
 96 1
Ni 1.4030879886660659 4.862810656771446 10.36301653073729 0.49398219372311697 -2.2476761242079415 -0.2549423619429932
Ni 1.8528108978018514 3.6277249155640328 5.076514339106607 2.190089584042725 -3.613383388565874 0.04741319917664092
Ni 3.9645146424414173 3.923785408512119 10.940194739393164 0.43891379199406344 0.23443344335636399 1.8701037114358372
Ni 0.892828369408007 2.3707461594696757 11.796712674247217 1.9927926405273422 -1.6100955049341628 -2.421185992606056
Ni 4.907213654513967 6.126538668522666 12.485424669632637 -1.3784774195394067 -0.3766085061969385 3.0950145384682766
Ni 7.382423708672628 6.1643232826016705 13.637440347863388 -0.7020618296763006 1.1155034455411885 -2.740202816431455
Ni 2.9515186739428114 1.059876186115184 12.646472005444883 1.312387984109501 -1.4380089992461362 -0.1786207072621182
Ni 8.374844730217278 8.570704016259661 10.838128606582275 1.6477930194849364 -0.19099619810833557 0.3461838711584941
Ni 3.6826257167728396 8.133208290502237 10.684291382803462 -0.02584884274230387 -0.8912999074429487 1.6928114931771554
Ni 6.071348079328592 4.049114038140328 2.4804178246938946 -0.15243042201999554 0.34649600308227424 -1.8081725211486794
Ni 5.0787494457929725 5.6606156762105035 6.494312339824806 -0.3654308923135642 -1.265120309371789 0.5958914670651092
Ni 4.4096476838105545 0.8796635816773136 10.374318262162703 -0.8347461794176204 0.13427817659100102 2.4984923797977037
Ni 7.30535880059066 3.8327639371397115 0.3303237156061208 0.10443203976384596 2.5222483445667208 -0.3556722702649036
Ni 8.058162550317613 1.4275049634246906 11.942436769238506 -0.5747863096553779 2.1584269628321215 -1.06537978941192
Ni 7.045353541809502 1.6009664426057926 5.936083461005537 0.017839599284582182 -0.2547253608361807 0.5927922593144951
Ni 2.0734984705819475 2.97868396056171 -0.13898231773404576 -0.04219283131796604 1.5244096354295682 2.141898369049479
Ni 8.509474619372604 9.073065510719266 6.8557433934494085 -1.088969918027034 -0.5150091895967452 0.4770033997769334
Ni 1.5307629661749844 0.032620779141537715 11.04020805150842 -0.11517590854391133 0.504865159184208 -2.378370697212743
Ni 0.16890245981288568 6.306805491357779 2.9972182392194147 0.7627046401693381 -1.5555107277097469 2.2568986712474746
Ni 6.405024922364238 4.394195440596157 11.493183129678863 0.4974446983504207 -0.8886084766537149 0.7032879887739177
Ni 3.2315566957054904 4.293461397717543 1.684660017150755 -0.722423424051788 -0.3352016611153776 0.4360986911427715
Ni 6.900235197187415 6.849363383773773 6.278893299576854 -0.1616064320923088 1.5434296281754967 -0.3362768964574273
Ni 0.7018197603190128 1.3601806708475026 6.752760221885143 1.1526461160297568 0.687054557634191 1.6453427581722309
Ni 4.79793554006974 2.6161311469941384 13.035019736090856 0.3191196679518504 0.48161338774511897 0.12759639369545123
P 1.1494019775636326 4.874832184160263 7.607582429625408 0.44711124020319126 2.3405366570841046 -0.54692609291
P 1.3054013936325177 2.837987219714827 2.1612088805226914 1.0267448506485415 -1.3658167933526024 0.16363606092782784
P 6.076807311051041 2.010567737781388 11.267612161947042 0.4730647268441594 1.3491910118704638 0.09303228256733656
P 2.736028588898472 2.062766967127544 10.67855918949489 -1.6414243969544313 0.5108398887104041 0.34945122905585624
P 6.279743032733653 9.286414903872439 7.297006363015304 -0.07666643961480345 -0.48306143304555516 0.2819091203398242
P 1.3679955984501864 7.5259341973764595 5.383259595511473 0.1043649339713364 4.885888934658141 -0.4310472447617931
P 2.5139201201906154 5.500213352365465 3.3892415560886864 -0.1536681510818386 -0.5230829677438151 -0.5193044745379896
P 2.873846145891735 5.653548588569798 11.573536663993634 0.1489298650659048 1.9079295240343594 1.453556460062432
Ni 9.33860478521907 6.578626621538211 9.315131958412445 0.5951563886712975 0.34847112453077406 0.1413870197216404
Ni 2.185814684871716 6.1120025292616935 0.13141978611852995 1.325911986737865 -1.4106262363578093 0.5111939296157131
Ni 4.155204484746617 7.708210840109392 0.8439775934916132 0.26052396979582876 0.3100704132653886 -1.8793794803108084
Ni -0.05739765188186489 1.4289352073519759 10.014666132847658 -0.3587840764210079 -0.8567663924424533 -2.236599554678806
Ni 0.2556004814051001 5.422363212323418 12.6793489197734 0.46858329403403814 -0.93594634250773 -0.7999370421582352
Ni 0.5312440085911984 4.627727164723248 1.3675010892753277 -0.16947992130311457 -0.1969606432218866 -1.022715160663858
Ni 5.352374739881679 9.733043625165536 0.7729571019023426 -2.0280715183342943 -2.8268001420067255 -0.5658815509665803
Ni 6.315816962899631 7.393314128118952 1.6071940798891753 2.081582088657925 2.160372516594266 0.6190931019925531
Ni 2.479388609946221 6.525034540262869 9.45357770097377 0.5607015494275376 1.3350787408387974 -0.09449626870737275
Ni 5.123087007538821 5.981298799906758 10.332383136294713 0.2531266488904931 -0.2481896166001919 -2.2713652402947657
Ni 4.566469723837617 1.2733564512617042 5.289019607902696 -0.21770867440251537 0.745902995230967 0.4661775128060229
Ni 4.40112230824399 3.3466492658541074 6.80517539002032 1.722026167067899 1.0790675713116578 -1.129206654059894
Ni 8.995009714687674 3.3532489535185745 5.755826920969899 -1.1642343350879885 -0.2020308586559424 0.35815724147028644
Ni 1.5264909303921774 0.5450425906896692 0.871604671287034 1.0650020943575271 -0.5486114510322229 -0.6806064880160021
Ni 8.280738419001706 2.505142348636883 8.164442761314255 -2.1754651492613304 -0.4515731326292868 -0.463120471147254
Ni 3.5448081597795764 1.8156432516914798 1.480939063508065 0.0813209076676793 0.4041745887406652 0.5490853053448479
Ni 6.068730639461665 3.540797867983462 4.6404226828778 2.196041944971418 -0.5387085900962142 2.850397726821007
Ni 6.894990969454035 6.245323698483555 3.810296955081948 -0.011026433017490686 -0.7508230582404036 -0.28590847130720437
Ni 7.556651723814759 8.532134170220576 4.385217621852596 1.2924727332428128 0.15052189214337305 0.3866458358282825
Ni 7.681746653454849 9.219212135289073 13.252477575035153 -0.6843955227447891 -2.702710733023268 2.288690876057407
Ni 0.7600783629571063 0.649386830984738 3.0829618300601536 -0.22694150585469303 -0.7532077564224964 -1.647656493907072
Ni 6.56892339803153 2.022757529161651 1.0137540912600622 0.286071736357946 0.862639820504095 1.3558668812287424
Ni 1.2515475683704824 5.604910947042569 5.142652370544105 -2.5154300360933064 -1.4365159596403776 -0.07190732766326326
Ni 4.922058277759256 7.594165245907546 8.64843450190779 -0.8756480598383047 0.9190004586820107 -0.9766561615222663
P 9.056837383544314 7.436006441948446 12.99531597770942 -1.0386804257438629 1.4885782275532558 -0.3815488809213493
P 2.7978656057546365 2.0602243112568144 6.921237347719653 -0.2275205182866146 -0.20211133418489066 -1.0269708506164184
P 4.912205486260179 8.963217168304029 12.481593859427399 -0.6692630379787249 -0.9030097396807093 -0.09449986825179854
P 6.653784537717132 3.9726660980269917 7.430567775824952 -3.027398639091515 -2.1351530799058454 -1.9923054164782783
P 4.972789871180028 4.625436904839686 0.44597997012607926 0.7484149630195432 -0.19403678470687227 -0.22671627721776438
P 5.123900283497473 7.570421327114704 4.152148623701979 -0.05662777579637345 -0.15433972322756645 0.2774443997002512
P 7.882307983258176 5.584092952100971 1.8161695440647225 -0.17666898285238605 -0.7920689522640681 1.9949251134893127
P 7.348350250404946 9.575997233149879 1.8754246434521535 0.8754899369938858 -1.7255596341424542 0.6401419522430523
Ni 3.5412559199601747 9.199646772283788 3.035964762449516 -0.9973463428817662 -0.5627059814520761 -0.49283933836792543
Ni 5.9579755410925275 3.1531643716910094 9.300177963572716 0.5416311630596479 -0.29234548518179976 0.6632078329235803
Ni 3.660695309887796 3.02805074605187 8.986263726332327 -2.116275783385368 0.48612464535191113 -1.5026647875533088
Ni 9.313019310519854 8.042495303114146 1.8111618207193185 -0.9502434758566926 2.140587106437223 -2.3173828446754605
Ni 9.113243212676604 6.774822435563484 6.651241881846403 1.338356640259121 0.48574335075309244 0.6900293239917987
Ni 1.0364594473057067 3.026667242122208 8.440895825259195 1.9674341071578954 -0.6862462028002826 1.469976039071036
Ni 8.740211291641797 4.1555129687309345 10.673947821329335 -2.1757592834629818 -0.7698939588289256 -0.49485302636384443
Ni 4.736332223201694 1.1535057493549943 8.265523614975237 1.1200147031479808 -0.6050523076287709 -3.0472629821156096
Ni 6.384412583412183 7.605663285322978 11.551645518706595 0.36691159062414874 0.9076631792923205 -0.36893119215733877
Ni 8.29831265810822 4.936790725010249 7.909893929855689 1.2936829515008301 0.5070868494258751 0.8928906489688365
Ni 2.325240097783234 7.1803480029462925 7.225492297051126 -0.7788655661999166 -0.9735554111097556 1.2139594702272576
Ni 4.096405567735994 4.323842396172953 4.337468040280217 -1.2438721986262902 -0.13028216805773046 -0.5506801606357935
Ni 1.7001487175632992 7.98757580590629 12.71745323543615 0.7326031927982674 0.48245336714791104 0.5761968168496593
Ni 7.541489268585629 1.8811914243589665 3.533679366345371 0.024526267276138408 -1.9644871087144298 0.1118113629470526
Ni 2.1567143623511957 1.1417366179533448 4.680838758823019 1.9381155606994365 0.40851692486976104 1.6424263558563843
Ni 8.406543796605677 3.839279492808456 3.3732882600997627 0.9839820057597183 2.49249091079863 -0.348111170088194
Ni 3.414263346416562 6.474050550854928 5.201525136750974 0.7563280472190329 1.6914912317038353 -1.0464772960804622
Ni 4.74206254691036 6.102841489727447 2.4147453236327285 -1.674672874594916 -1.0514269267762537 1.421754742170803
Ni 8.908839855068608 1.654455695886363 1.3075448899235411 -0.256433601776539 1.231457369901705 -1.094312156175554
Ni 2.4573553750664052 0.4021219607558498 8.182872342377284 -0.6506215116181375 -0.4717727475056133 1.8282736627739289
Ni 6.4597481115820745 0.2890289277055755 9.811409774781348 1.607400988821135 0.7093498786972816 -0.46666602240666727
Ni 3.901144553663195 8.675298782941994 6.7350569803851865 1.8464991846430199 0.4261806606981112 -1.3782889576776842
Ni 5.771978394548748 0.25073578245242467 3.531545218053873 0.38998518461416065 -1.6371381108742513 -0.7395035194625265
Ni 7.217123033076626 7.712557659888398 8.80940051012417 1.0750664205720646 0.46942018811303665 -1.585758727961011
P 7.2722575342735505 5.850080930577962 9.689026699803385 -0.09480505819704317 -1.7366791410943834 1.9160796639453197
P 0.7229023036471622 8.55932750083805 8.658339642204208 -1.0459306795483727 0.012259019873011144 0.387182682168359
P 8.225949793787196 5.297679594662418 5.245100836535556 0.257123428754712 0.14072881731235118 -0.394426765325282
P 9.347625604760445 1.1843261037880668 4.887104237936343 -2.932796183823581 0.2541067534155753 -0.14622352187833526
P 5.101885744616707 2.1473196228288303 3.2032107567466173 -1.4742157881839963 1.6391335440377253 -0.34818187542512935
P 2.2470253857597227 7.853534840721023 1.504663351501906 -2.217468747386626 0.9928086029124128 0.6884342115905369
P 4.076699984737839 5.561199701264878 8.442674749568754 0.2545150445975875 -0.8622014474150959 -0.991635408539918
P 8.923319906332432 3.3049665359732847 12.854639802461492 -1.1684038930846459 1.7351177101445345 1.387935736738829
