# total energy = -340864.72074209107 ev
CRYSTAL
PRIMVEC
9.36589003538201 0.00000000000000 0.00000000000000

0.00000000000000 9.36589003538201 0.00000000000000

0.00000000000000 0.00000000000000 13.70792678545936

PRIMCOORD
 96 1
Ni 3.7307617723574915 3.648341940816839 2.285522533580187 0.9147789644014955 0.7849297701161255 -1.0849281438574927
Ni 5.325135949951629 0.8901510392409561 13.589188887089906 0.5446833196224102 -0.8007001455765049 -0.18265733922533706
Ni 1.0621012859706325 2.130908549143891 1.1463352903941744 0.11452079145841566 0.1130794310261988 0.7603844766765937
Ni 6.660814881297541 0.7885508016762007 7.023886414891049 -1.5936574139827975 2.5659064475763036 -0.7552029324756542
Ni 2.26812820276913 1.6793040676408004 10.502204672540474 2.358878649926402 0.05460688871160273 -1.1317970404948896
Ni 4.3819721004281265 8.299948646952222 11.485789829900698 1.7125807053842828 -0.6281863225430729 1.224418974997685
Ni 8.369509111594542 6.995982618969564 12.351582062565411 2.005185871985373 0.8538111664688716 0.825995429808184
Ni 7.88281064045704 2.445068595662995 5.756958735295967 -0.0788873585255222 1.6795749398822235 -0.09425561345147637
Ni 5.770380992180162 8.702119961310816 8.454364074521624 0.1409465897501121 -1.0861771857732456 1.258389932626491
Ni 2.13227596907627 6.388155093137145 9.046916770438173 -0.6635523607471927 -0.3941974229232953 0.7815001756092863
Ni 8.290076998947239 9.601067444390747 5.352671666398165 0.4036176877959307 -0.8878343174918516 -0.08763193748737166
Ni 5.819739232205076 4.788742066751091 5.736204859760634 -0.09862083239870756 0.5426765736050266 -0.6806345130404601
Ni 0.05372274474058913 7.6920274622203255 10.298257735982125 -0.6007038008520881 -0.8730137075392512 0.3400245364253176
Ni 7.513241989006743 2.165899513988877 9.406639998375342 -0.8129460528233935 -1.1186862141445444 -1.4412005096002405
Ni 7.4474466121234375 2.135919300265965 11.623718481394985 2.0490725460659935 -1.0750497084015163 0.737755169312852
Ni 1.0708115636220878 0.8275915773346163 6.832126374332778 -1.493287460103467 -0.532833876482992 -1.5921278647121484
Ni 8.090246371020946 8.590909384070622 3.0843795605549484 -0.9449233491953598 0.6417573763592883 0.3522735289959998
Ni 3.268826714241976 2.0365191102499476 0.12447829694024998 0.10905076948277993 1.2631619000938377 -0.18743650578153526
Ni 3.3761410812638855 5.176574203599602 6.962461162257388 1.083960637737901 -0.07282186905773265 1.807029922903804
Ni 8.90730787828725 7.323573351673816 6.126813046389673 0.35305360169513395 0.38331420035188823 -0.34613373464684905
Ni 6.499965087333999 7.533256895825194 13.514370411830889 -0.9422193200006354 0.40726634029211145 0.12068346862570184
Ni 6.996572670036276 5.173445996357036 12.549840157569468 0.3007149401924176 -1.1952765491057737 0.647269307316453
Ni 3.6020650785847517 8.626790108460648 3.639537067676911 -0.490515061110123 -1.7759326872783672 -0.38023067633055807
Ni 0.5187494831278738 7.0439172437224125 3.3502724932280574 -0.633388949789935 0.023390611009798425 -0.37861936597938023
P 5.351257417016046 4.778214806449762 0.5534716469313582 0.5135194924250963 0.5118585597829055 -0.17262129514557367
P 8.498318196046656 4.561600503737011 6.330252351712852 0.9199548521754802 0.911972605300952 -0.7033381252855629
P 1.176608656472453 2.377821505837781 8.302137455433023 0.43715515743174393 0.5348671048629369 1.1507944075329986
P 2.424398076548197 4.1859440238206425 0.6589549824684721 0.3146981418453871 -0.9119378954082745 -1.0686638594798306
P 5.497730569909714 6.331763069761433 7.420361394983391 0.2886479817255545 -0.8697455783109408 -0.3550654899188401
P 8.911634919443134 5.043606664010665 2.404836478803219 0.018895294242606168 0.7838213675432952 -0.264197561992674
P 2.7246310447149207 6.461049814600885 11.150863732189329 0.61300858636137 -1.5017314771057622 -0.007135068382884487
P 2.6301479469214994 0.810565325998508 2.068484892641794 -1.7845525677368943 -0.6712458727367085 -1.0003079966132515
Ni 4.1509062295259165 6.7454731605357185 5.5229650871960745 1.1296990203152804 0.507838639990235 -2.0653903093894104
Ni 1.0109166974058976 9.295870554551689 4.096394876851723 0.2780727773128695 0.35773326655899035 0.017690989521859858
Ni 8.833954228216069 1.6168523134688604 3.056895356503125 0.4242497622239854 -0.27609817008500187 -0.45162841134725445
Ni 6.473852986159529 7.686688904950078 6.002564213753144 0.08330554219787588 0.30664904628866546 -0.13113217476285158
Ni 2.135235590299775 2.8406931529480763 3.5941630772357915 -2.0988259633400372 -0.10454311142041349 0.05898316340242745
Ni 5.731727964365586 3.877497170169697 10.207470418362107 1.0616015533164103 -0.19045343823098812 -0.7371347621200338
Ni 0.5692278835905445 5.155987977494334 13.811421787182345 -0.08883572798748571 1.1120162583235365 0.7023621345255388
Ni 8.42362522371294 3.51632035611263 0.7352701269411478 -1.218395137401108 -1.0254610988401114 0.38656073231364396
Ni 0.5077042891124316 0.3000643821476629 9.400882785824429 -1.1197987304824326 1.5704660634679986 -1.5434771935839806
Ni 3.0330966301457614 1.209904395236887 4.863312345926492 -1.5562897719676165 -1.4108702340478152 1.7987563700411022
Ni 5.029304950060372 6.647599610581194 2.2013419147293476 -1.3477951599642013 0.07169983963814748 -1.9591523267650774
Ni 6.824820980173493 4.1045544401742475 7.631353353960478 -1.0464718967638236 -0.4551281969703968 1.2691484566945754
Ni 4.493023457539208 0.7922962210663265 9.896163221921102 0.47793799577606083 0.4496689736280385 0.43598093461798465
Ni 0.3568769339820318 2.7662905232027417 10.370005135927256 -1.2380777034316999 0.8453987740354602 -0.1801613122763607
Ni 3.700809656304423 7.551070818505913 7.789584445094614 -1.3109252835210454 2.0096865880692034 -1.7806249505477139
Ni 4.628941252461703 2.2647096529381825 5.971062979502708 2.156472153098596 1.9532665574082622 0.4463779615815925
Ni 1.8663596216782912 3.561904142488579 6.53097742212916 -2.2493247155549585 -1.131498278307548 -1.8325242105201667
Ni 5.681086597417822 9.147674077907627 1.993091351739982 0.6725085414992159 -1.2410902650057787 -0.131414996110593
Ni 5.962241247760875 2.9444859453496117 1.5771793402389682 0.5633538994487202 -1.0246632855291644 -0.378627079288864
Ni 7.74048657681025 6.94854438638395 8.249896394482176 -0.7644833293363156 -1.078696046904852 0.6172084833753305
Ni 1.0733590856878898 5.778257705626263 7.0022287309757525 -0.6953934165171894 -0.6646075414845845 -0.1602188077161628
Ni 1.8312281684840879 5.212764002357907 2.4852192292802253 -0.3336281459806706 -1.8826571226208155 -1.1968410653794161
Ni 8.831594023949224 3.9744528629093376 8.665767196067419 1.4510581191206107 1.4653339123133347 -0.9760483527349384
Ni 7.349694818738234 6.770929649413843 1.8142993224034367 1.3257548923347102 -1.1799080370695034 0.43978488174510716
P 9.02970132812512 3.7986832062589477 12.271842748727819 -0.9767556632146083 -1.33427964197627 0.9791038517318107
P 6.099170558797732 2.5360020211661993 4.210361835503555 -1.6358065365470218 -0.1538465856412318 0.18163686838062268
P 3.918482304581276 2.436021145973419 11.649229292434807 -1.3982440606433726 -0.27533146712230644 -0.8813942182934627
P 1.1204882439052268 7.922315964256867 7.731435380764695 0.899817715105973 0.1962780153325652 0.4436909016677327
P 0.6357500535337992 1.918349676778537 5.013496264417477 -0.09145413944693927 0.31228259042535894 -0.5337322199275454
P 4.44142676981677 0.2362002517715944 6.511498244215722 -0.6408757450852833 -1.6327556655358397 0.784700684824455
P 8.192784134169477 8.972578765333479 7.626021352813194 1.058913464961286 -0.3251049390010079 -0.0038458561086514406
P 7.478251024161757 5.352578007498687 9.939096461441823 -0.6658974639406015 0.17826975168060266 0.1289261682504683
Ni 2.075565505442332 7.901701640481756 5.707473119167764 -0.19443299170402642 0.15930555187327403 0.3575412051528423
Ni 7.732825278832948 3.57272174537829 3.522567404707813 1.0759845615109598 0.6802231365346543 -0.6570091603120363
Ni 3.379756314783737 5.95042149464675 13.250164275937378 0.21385690475659302 0.23483864921458264 0.6138773621195686
Ni 0.04637239430955455 5.338332488888081 10.942544798203343 0.6805154709640925 0.4753812907924781 -1.159644401724461
Ni 1.0218747886448252 1.9477585712146335 12.421053551253229 0.040387916898743347 2.278638376917411 2.9625078519554013
Ni 5.645870851214089 0.3399780587492136 4.531224112869306 1.2272716139551316 -0.4244593071316303 1.2584120441136777
Ni 3.4103827749130473 2.8994079170308433 7.90734927212028 0.8786063711356803 -0.890080433213551 1.8610719402508724
Ni 0.8421826972842962 5.001385232125976 4.601120812960754 -0.8242815324408708 -1.0376023621883357 1.306059985008944
Ni 6.513938995136119 7.412296427149339 10.96874025579835 1.6550450730616595 0.3084241359112172 -1.0084511945456762
Ni 8.711410924139035 0.36296195268111836 13.25234371852823 -0.2741922113115407 -0.5118737292915572 0.4232465177704518
Ni 2.660034501744934 0.4560467231053327 8.338874222164279 1.9566411303074496 -0.4469788283903851 -0.1709048266750992
Ni 0.7681003809751762 8.96656586398699 1.748569506749766 -0.8009379726189239 0.14655776528930242 -0.213311059555452
Ni 7.832909178815155 5.844465181667271 4.345083606279716 -0.6892690487870066 0.8041503089086345 0.36120168472356506
Ni 5.580974599765773 4.688733093888468 3.2747000638282424 0.42792541130335976 -0.22748092329793082 0.5046815824184921
Ni 4.782279602687108 6.5705745316504744 9.446981696147507 -0.05998049431869025 -0.7671665325954335 0.2262665912748555
Ni 3.395575302905573 4.241755362019592 10.005196229748433 -0.30509481442766806 0.28833122181608406 0.30771502565933456
Ni 2.6251278299094776 7.169073631094883 1.5816478063330643 -0.27476839552998483 1.1780380737403 -0.3506046259340091
Ni 2.3917860477499526 9.13313821670864 13.645185669909822 0.14656676415036693 -0.2892527051890889 -0.6720909943458231
Ni 2.5178883900071516 8.533281063221798 10.492279638962788 -1.4804946792141729 -0.22655738304239692 -1.4027452909478357
Ni 1.9901392232284352 4.235264800285765 12.064373300960101 0.8289825374609658 -0.4772507399010491 -0.1703283853463389
Ni 5.666691224568051 2.9498432343997543 12.452746786247594 -0.34255861570108104 2.1313439905724003 2.337156941978594
Ni 4.319969908973681 1.3956674564615814 2.987025817492526 1.415146749935982 2.2973264402452176 -0.5170827842963224
Ni 5.029923098796927 5.74474655139303 11.508105935879325 -1.24333226696242 -0.7448205608000656 1.0180177551881886
Ni 3.7188389944539404 4.247571579677175 4.776855815818336 -0.9403372724865742 0.16003086007507278 -0.7515979887332153
P 5.861614126161696 7.481707037552495 3.8973416177910987 0.7960533908331129 0.39462036939332684 0.26646038988492177
P 4.45842586007203 8.132514632355374 -0.07918110679670304 -0.8412785812194994 0.297938405888545 1.614427042429981
P 7.077971619572618 0.08908085247152916 10.478462141522797 -0.07851043480207769 0.43292723539332534 0.04518996627307701
P 0.37992638914357113 7.316155566835157 0.35567529030172884 -0.06123776376455905 1.2345534923285255 0.20171795540121387
P 5.452746200490424 2.272886074862613 8.54301315946656 0.36276131590120103 0.501917903630426 -0.6158128885793845
P 7.530269176931846 0.8461425955542267 1.4171528080018378 -0.08629470673318686 0.1288894014752619 -0.349642776241372
P 1.0059621416235107 9.529137409591632 11.597262652059431 -0.9161835580585059 -2.740389221410648 -0.4427910155612826
P 2.459492066182609 6.388510996955162 4.091815893256243 1.5423029707702212 1.0402575404229957 0.976567201352886
