# total energy = -381162.22563832946 ev
CRYSTAL
PRIMVEC
9.30840445498387 0.00000000000000 0.00000000000000
0.00000000000000 9.30840445498387 0.00000000000000
0.00000000000000 0.00000000000000 13.62379082781568
PRIMCOORD
 96 1
Ni 3.8380785231687335 1.9602382593229044 12.694375553936123 -0.38486020468276944 0.22410737884000756 -0.17650983156670247
Ni 5.6794577671 5.2805833314709725 2.395007763880841 0.7277936872247659 1.7068461168933506 -3.787356569753651
Ni 6.859996151236928 8.308532805570476 5.650371795967238 0.9074466924061404 0.7127686745708434 1.9996914245297046
Ni 5.271042216992435 1.6891868324931532 2.4519966079510285 1.0909725502793597 1.1129207724156769 -0.6828109518664887
Ni 2.9150664543129587 8.74207173907079 9.655493358904872 1.0896797996098653 0.16544920287716666 -0.211781510284803
Ni 1.9656836758789469 8.459971236254676 12.736228001661384 -0.3697441749769374 2.1499006705286656 0.5109597021177199
Ni 7.280326458937202 6.86398014830699 7.86119974763529 0.09428749513067632 0.2016336232175237 -0.7821360094210724
Ni 4.077071805350603 8.931395375538056 4.7974817989063006 0.11215949031509072 1.1801175819771481 -0.9159601291937902
Ni 1.697331686316294 4.242389066949435 0.11214300163918499 -0.7952231816223337 0.4359423680705653 -1.4363112998287395
Ni 6.512662350600734 0.25120218535264827 8.140719029919797 0.9508258307227238 -0.8606086490066791 -0.8376661812778928
Ni 8.990717836583627 8.763108732945417 7.26131683553421 -1.1573440357260585 -0.5666994188821853 -1.0332327723657302
Ni 5.349958869235391 4.274223809892453 4.16937021971487 -0.10581606459556614 -1.497546492490137 2.9969835171347676
Ni 7.703011792942907 8.183344075207712 9.73327159329346 1.1884065614588177 -0.16353347391169254 -0.8194404022984856
Ni 1.6924540824267789 2.215288539041823 5.8967578128992075 0.25906358320021833 -0.5162649163807173 1.138072074870324
Ni 9.126462297501183 0.34090355489787927 13.405932324096174 0.7937897916099168 -0.018831530884206273 -0.5722113498393501
Ni 3.951696906900453 3.412758910726514 1.2745858476821867 -0.955835111011857 -1.863926636090848 2.61136278013689
Ni 2.276370288513193 3.760306804663202 11.267678277933834 1.1332173178811837 0.18009549203543176 0.4532716033776323
Ni 6.49079690873724 2.8368758576108086 9.877043622139103 0.9019375896624531 -1.346013128363114 -1.3472238608417637
Ni 1.3050382925763633 0.6166026680292237 8.221930203839786 0.572995279193226 1.4079530604010204 0.14069847829504803
Ni 0.19772354057012528 3.4519379847169125 7.5541061790875945 2.655601181129975 -1.5713970599227 2.2253895448955996
Ni 4.825141722489686 1.6494678710493347 7.698136981574703 -0.5072182327974167 0.677635064092504 -1.6868660742269983
Ni -0.10850620805209808 5.996986056945684 9.743544348355426 -1.098020972485709 -0.6343934797950495 -2.008548360699702
Ni 3.8701832098384616 4.757032127719492 13.338358893417652 1.0713977134712258 1.7312466572249021 -2.655705053697691
Ni 5.826037210703423 9.317247353454428 12.924808827459978 -1.4366378299302227 1.0228938523335673 -0.6345791134432942
P 7.453257995310123 8.883810812402176 11.659416890773354 2.6771395694223825 0.8709092596017388 1.818767008835074
Ni 6.009319692735012 3.0081504980059943 0.252595653486733 0.026331953026309488 0.2321279351516389 -0.4582297187138559
P 8.040143582390346 8.787385051540559 1.4463696577963736 0.40994414423459075 -1.6616247831617061 1.5609457826823891
Ni 6.272868545643104 5.741144562855376 9.710248185926424 0.46377250290895605 -1.6447637457403093 0.6588089325249364
P 4.9546123188623294 6.80182793233315 0.3363275433099296 1.0833523147299406 0.09125333629004283 0.08932603736034293
P 1.2635600427067466 6.373259686766043 12.672455192486849 0.24487135086023634 -1.2355798767105106 1.9077215217886112
P 3.672863654017964 4.732997827637949 3.0411162120798836 -2.1172844271555404 -0.1704633682623064 -0.09393114023252211
Ni 5.975269549552099 3.351081423375508 6.116346795332827 0.8378381880793828 -1.8410636154497455 0.10561037634266329
Ni 5.546477902280129 5.245462721785589 7.168089442413886 -0.6202920073966608 1.265179958965131 0.04716920148663489
Ni 8.618269960959053 6.937339683141471 11.744184806002853 -0.307351985892961 1.3472380019091508 -0.07050042001340762
Ni 2.4414734568115306 1.7306743907671394 10.157925654823275 -2.711368408698266 -1.2159047668790866 0.8373175396892225
Ni 8.61469553368124 4.08419273469312 5.6895536624789464 -0.05984114052734855 -1.3765894584880745 -1.3054719737159581
Ni 5.025560976965162 3.4924760857452295 11.527607092382706 0.3353952651834224 1.7144848643855313 0.5158926206429632
Ni 7.383454270944715 4.057533464579435 8.185636735203872 -0.5798670666123948 1.1695228371804374 -0.9014480516205443
Ni 0.6809944860943183 5.5674497373241705 2.2680476441665984 -0.13521842901708322 0.3153869403822956 0.35380693492139065
Ni 3.6371379980485767 7.030321334386445 11.973881784741101 2.3595113984143943 0.058828382992118046 0.5160528003699113
Ni 7.823872115273945 2.0075528787320747 6.957083739649201 -0.8026780952384822 -0.8468108238916383 1.0499799099170821
Ni 0.05689948338824206 4.443599535796301 11.65467612042807 1.0685517593819984 1.7356720399861074 1.4379966579509622
Ni 4.470500824423588 4.158669278051918 8.94171653430274 0.1710961167502989 0.6310150502411198 0.4158936769498063
Ni 8.151918902056941 2.7082616344401407 3.754757133978223 -0.6158758806068362 0.4706255212750475 -0.07448408725150397
Ni 0.05440296933639483 6.11120017855704 4.771841799071054 1.8570710466215954 0.9745985076622893 1.295744462015549
Ni 1.5456605455228611 7.38111786144802 8.24887803448892 -1.5445786541782753 -0.10910733375232821 -0.3167352268800739
Ni 1.7008223379547827 7.068383399852528 10.788611938663255 -0.3870685251879979 -1.1440552890369522 -1.7617404549383853
Ni 7.215623740166172 5.761483426402304 5.614037370352098 -0.7750747316989168 0.9979148137907264 -0.07442649454069118
Ni 1.7067424831336597 0.5415704129295783 3.891567407196063 0.37352189685181475 -0.5173923451169412 1.9581940766168662
Ni 3.244946996756709 6.552260302787751 5.60053646065486 -1.2952376975824595 0.11239706024719352 -0.05492441995202153
Ni 1.3900054076593664 3.8602604507807836 4.420130255859976 0.1743102528122224 0.9926515085092582 -0.06017641237958024
Ni 2.0357480355666953 4.936944967369392 9.24124888598125 -0.6983370725265456 -0.05360055893427543 -0.04155828305776069
Ni 3.5733568113101084 4.054750251673013 6.201522418673703 1.1519408624326162 -1.2041674238375004 -0.5388392021368075
Ni 5.029098170625496 7.6342226846537535 9.2693137251547 0.9972789799789407 1.4056262120400567 -0.003495157637452045
Ni 3.4098639969676605 2.049356922754617 4.194097995921925 0.26992597983601896 1.2432834160023556 -0.15592737942966048
Ni 1.719318137436589 5.090477789036686 6.637333533680565 -1.8583478564514897 0.9066676481482707 0.5100112221615217
P 3.738459979608446 6.1095339741749335 10.061619041537588 0.08770058594177799 -1.2310367374245186 0.19827062028256176
Ni 8.704558869462497 3.0825432657254686 13.509637257174585 0.6882593765755695 1.1343684007664914 1.8312340309538333
P 5.412567197023328 1.3857793920757027 4.463330560537914 -1.452514649061479 1.242324651633512 2.8879168068123877
Ni 6.229388988834087 5.2771206050455906 12.90896406154255 0.5877742372746135 0.07949568153348244 -0.12310339092110412
P 7.314683779464301 3.8932959778874423 11.421477319966089 -0.49125810992373453 0.9231119097472231 1.708246596785303
P 7.507107114586544 3.5426018432739297 1.8238710661530437 -0.12492373195929453 1.0178619463366148 -0.0027611076849049223
P 1.0885061901376232 8.148018680626205 5.546899572998059 0.5758607736664793 0.4076198669767883 0.6863493040370503
Ni 3.177861326467138 8.779435674209175 6.86174520041792 -1.0249162820802349 0.40192255948169486 1.0136365954013575
Ni 3.5258001733873368 6.240335672372389 7.944849723500036 0.24581751682358957 -0.06333886926796188 -0.8768896455548899
Ni 0.6613937790138757 1.905774785358109 11.594826803695193 0.19038504688689792 0.2387932629869565 1.8139451619663984
Ni 7.552020165668434 1.7420492609064284 12.208087754555837 -1.5037140547534298 -0.5652922541220136 -1.269365457801388
Ni 5.832171449182795 8.5848993312951 1.3874195329255739 0.1918469761444051 -0.2645976256445701 1.763107253378925
Ni 0.8057122111959955 9.149705383211334 10.487499019922838 -1.8535506921731624 0.6073408465526313 -0.23324199415142413
Ni 8.756862793613614 5.635522098476888 13.596884000487632 0.7710874649163946 -2.225096439135213 0.9092402939714533
Ni 4.432010572356519 2.0665123120072435 9.823134929074717 0.4286072678617328 -0.7019906101187329 0.4284442599213073
Ni 0.14573889468887552 1.344980655725045 2.400907430570106 0.9213417052206777 -0.40374032941672405 -0.10278164864461653
Ni 0.47555148578072953 7.48725228806682 1.1359008618243693 -0.004228179148734654 1.2073121401140692 -0.4287003417961714
Ni 2.1497946058994026 9.17419579510697 1.7862837293097957 -1.5874973079186723 -1.1012888446037035 -0.28524589802254097
Ni 7.308419223323759 6.67900353668019 1.1643827175135644 -1.0737446164368476 0.6120981587319587 0.5069991748080753
Ni 5.278302772400492 6.944469920888358 4.856336047212096 -0.9605273742812038 -1.7519818328897245 0.4272137299483159
Ni 9.094599629345055 8.324552569490047 3.83806735308349 -1.2870754734866414 0.4486451603492144 -0.9769518383858142
Ni 7.011443890325497 0.41143705816584025 3.843912100186976 2.014612307505595 -0.6623318580765303 -1.8693002416979356
Ni 1.8665026273240173 7.196820763340178 3.6691868342920886 1.0196486059233925 0.2625703108018962 -0.8842550847810255
Ni 2.678558516097693 2.8327056924533607 8.183062030555321 -0.737043230847492 -0.19038736087974306 -1.211467042822707
Ni 5.947269869209234 0.4327626125759148 10.396001128334332 -0.6485972820992572 -0.14192643716487816 0.4903062875334266
Ni 3.9784492610578317 0.6629585217883556 1.0519613945837374 0.47026119595709337 0.23967438004032915 -1.249968798442331
Ni 7.473745793326961 1.4480433089019744 1.2727586079044924 -1.6201904272763192 0.12232846042829257 -0.6056778570279118
Ni 8.892774805809815 3.176344056554941 9.98983541956283 0.44140493384703333 -0.6756967094192105 -2.1572357707374974
Ni 2.8302761989129723 6.721189225281873 0.6364146758888495 -0.7843124482471009 0.126416257344421 1.3290441046089434
Ni 4.116464972641496 7.598106075700856 2.7905609608309017 -0.09018838536063822 -0.7500532699539146 -0.6494796847042105
Ni 1.4907409597439698 3.5372960527834265 2.185882358798756 0.9298325163005083 -2.4284511588089015 0.3935021966284836
Ni 6.163345859833878 7.276323845058401 11.477035462284716 -1.374657274462368 -0.8359507412486828 0.6913146184621256
P 9.000333418297117 5.532794547857253 7.527076434480011 -0.010449477468098132 0.8976459042656347 -0.02483711364833787
Ni 8.936710474432928 1.120201307015102 5.272420791679529 0.8153145530555701 -1.0182998052049816 -0.5157069869947183
P 3.9711607804366666 0.19075340737839075 11.473752388063662 0.03657188558676282 -0.43546825664762423 -0.45349194691855443
Ni 8.008690484026468 5.149595465186132 3.3846130884350503 -1.291071224909596 -1.8341280646721767 -1.5205632651002845
P 5.0060784866202095 7.616108529751089 7.116632583060375 1.2349563841938989 0.23964404102302597 -1.669549951546054
P 2.022343933274898 1.5110891316952677 0.1069796297355323 -1.714744288694505 0.030636493938934337 0.703288245884234
P 8.34684619795453 1.2471865594211413 9.25714764064402 0.059956068838658026 -1.4070434041025575 -1.326286596468464
Ni 6.895535639118928 7.182066942414832 3.479284215073053 1.1916584927372125 1.0637350547196456 -1.0006363264869476
