# total energy = -340867.3316643048 ev
CRYSTAL
PRIMVEC
9.35595765196038 0.00000000000000 0.00000000000000

0.00000000000000 9.35595765196038 0.00000000000000

0.00000000000000 0.00000000000000 13.69338973833773

PRIMCOORD
 96 1
Ni 6.353574820343323 2.3112771081293224 10.535475585988499 0.5763701092027299 -0.6341667084962239 -0.13791448779200766
Ni 5.930853934084938 6.165445220483122 7.0885068258684125 1.4608316535676067 0.3214503729675561 -1.186305198845099
Ni 0.6022205506247013 6.9582877981314795 9.617579404916059 0.5002579994294997 2.283103097556984 0.30635902585207236
Ni 0.9992630750481799 6.013981619322549 11.988850656975337 -0.16299842734382894 -0.7929786085625311 -0.1069092976597449
Ni 2.777578045916891 5.141519840619371 7.667969944689854 0.22025072409807875 -1.1463186311498321 -0.8307679114961627
Ni 3.542455665638944 7.388268907658789 7.0508911974499755 0.31091630620545163 0.2670964808070239 0.09781427733701219
Ni 7.887652512300629 0.09018207743447784 13.49639672374448 0.0691513621846809 1.089853091962936 1.437700466866782
Ni 4.033708942934528 6.902900527832475 3.843172990722822 0.1677128021003628 1.394610063435211 -1.7676519353268139
Ni 4.542242674325087 7.728722856799076 12.814986410528935 1.0159259056561665 1.030988970636876 -0.05789250144140997
Ni 2.811680512173626 8.553291487417692 9.596615510227043 0.830874098056724 -1.281894186396018 -0.3950273750237584
Ni 9.319338601867342 1.0443494357865084 5.402398561706596 -0.6821044127177671 -2.263260866020076 1.978591923546928
Ni 7.8985428472040144 2.4750344378663973 2.076670852198625 -2.700813516000555 1.878193173312191 0.5861822101971453
Ni 7.428845696727503 5.991143726282031 9.126466466987788 0.4667621816648993 -0.08867194871611181 -0.416522825893373
Ni 6.643656292576542 4.1416954081019455 5.523105387127143 -0.9041435961748363 -2.1983387114253947 0.16022703524627888
Ni 2.7432042568833532 2.6526385851782233 13.31825928683687 -0.3739769821113624 0.19817960323065223 0.378984976848915
Ni 7.880326797326959 0.2783603282753472 2.48447366371178 -0.7371787279840917 -1.1899217125517636 -1.2511167960038454
Ni 6.822345730995578 6.316506515457402 4.924923803493672 -0.22923621542614067 0.912872234297086 -0.0365078651180468
Ni 8.58960195972013 4.548043368173969 3.835162419636672 -0.529480643740043 -0.8966907394412169 -1.5589953438242374
Ni 1.2394024444340854 6.175474807266997 3.2296541854337493 1.0133956830351452 -0.1949281861728901 -0.868414518204343
Ni 6.434363516125741 7.721677820560029 0.7789920176904783 0.5995082378820901 -0.0252384628518146 -0.3085092394258558
Ni 0.6975914422665825 1.399763561482218 12.524536313557578 0.09589649148900903 -2.9788014469091024 1.9379366119194106
Ni 7.900404682810349 5.144045949230983 11.452644809138262 0.08469548056686704 -0.9131437427909177 -0.359156115048446
Ni 2.8915991038787108 0.5284048502061102 0.8945783273957143 -0.7446346700415047 0.25916719865761817 -0.16345196994147979
Ni 0.6236662771414884 9.238428278633254 3.2491538727238143 1.605569592039351 -1.467362255597273 0.5195602993025374
P 8.868353367032386 8.262031164499055 5.40223389684895 -0.09545888973095817 -0.20822413195084785 0.03393881883928993
P 5.848147266949262 0.7046336717182821 0.8710078628578286 0.21894923167783586 -0.2018825060035362 -0.17938509623196847
P 4.789913589756718 8.908743036944683 10.790322521068665 0.3899677011126639 0.09742552653902575 0.396446109748156
P 7.971182503724534 8.048079121053506 9.35109272271106 0.2279450074185429 0.12628358842129864 0.836178540988773
P 4.159743050738226 3.8297397064837493 1.7371019766681848 0.09346988432538741 0.1916862821968247 -0.276998056191452
P 3.2444496971315275 6.2098392403427125 9.411193524560174 -1.156777364589311 1.8411232650430873 -1.1977936591006726
P 2.3477934115038184 1.2801289288279314 4.318594116194085 0.14233061458183227 0.3800049334729972 -0.16717929819439598
P 9.190001840952908 4.189934726625876 1.5745347247659127 0.4706540605201378 -0.2836407583189502 0.20471380480474421
Ni 0.9119242731954365 7.426038909381269 7.233451195619467 0.17603314904060005 1.5198793516593825 0.01771772899473723
Ni 7.633348222774066 8.930888589106464 7.46174685800005 -0.6776684884336007 0.06450075078654698 -1.1576957626385223
Ni 3.98238215832974 5.82083722607041 11.270386072810599 0.17057418280855785 -0.07369090192624729 0.005813778468299665
Ni 4.449768387224519 1.0757199623595766 12.67072689689036 1.377452320709002 -0.3477059642299754 0.08746301600967518
Ni 4.416723144201532 0.14483771183189798 4.309432762295979 -1.7666162949734479 -0.04432170473551077 0.5590658135963275
Ni 5.522419595418881 7.64542676432069 8.815146970501404 -0.39895319244072586 0.9046591023586741 0.7629612362648345
Ni 2.1645756894995256 4.063264413690365 10.966967682703864 0.66589823527155 0.26220032905698715 -0.4000160864876014
Ni 6.547027960203548 7.1914850468143685 11.18940277310551 -2.0454313497689807 -0.7215515629697961 -0.7998185143025
Ni 7.6402529196458 5.651456965683049 1.1273414596357185 -1.284719571659955 -0.6405726120225677 1.558801996866509
Ni 4.666283963112961 8.474664017891874 1.9553746014353683 -0.6840617935544542 1.5183091789587853 0.9017424429325115
Ni 6.699296173736707 0.23693214704494284 4.416652038922094 0.5397372884710446 -0.6662453341983235 1.3720702304614822
Ni 5.607970473732073 5.341016929231818 12.917810258170846 1.5448560762093781 -0.18917919950425482 0.16157403619247657
Ni 5.905770611167433 1.8056717915366658 6.394265752097451 0.1126441432609931 -0.33961650235362156 0.9212290909022134
Ni 3.2575761059540786 5.08436429429224 13.409566885997187 1.681465214926401 -1.1673075746966735 -0.6377855361957339
Ni 0.1961167810517994 2.737581326233066 10.66200181717357 -1.887357870530595 0.7853115789355766 -2.072355170743018
Ni 7.519851098450209 9.17173901128675 11.225909720522186 0.7126786859601985 1.8432086868172062 -0.834387253416305
Ni 7.958739079822899 3.6073579450416804 8.900812927095792 0.06301208205616245 -0.317925133423117 -0.20325238976786933
Ni 7.5888512873784455 3.794495813372879 13.559838538131393 1.3827045702468765 -1.2038203249107267 -1.220619912966569
Ni 0.1986943474314237 6.0404964037866336 5.294166034848492 1.4942580515468524 0.9183371140663991 1.0054442893985522
Ni 3.2348037046183054 4.595655837523908 3.5470400849711248 1.821737404317308 1.8221107284963263 -0.36465621893106875
Ni 1.790028630060325 8.727789456733019 5.569362178188851 0.5480195830844949 1.0966683151125565 -0.9773117928283941
Ni 0.45813599339737593 2.024807035614925 0.9827310975788655 0.8500434718963232 0.8075331093379382 0.3297270111540515
Ni 4.633032889017916 0.691173255201529 8.760743011369362 0.8771431563265926 0.5377056027529965 -0.23340243098868835
Ni 4.292709923287121 2.6961812128761236 4.821278502755095 -0.8132155044346961 0.473331607352301 -0.1764740932327606
P 4.916125460759012 9.018310658983813 6.439919083879719 0.3023966987702147 0.5443693879264173 0.2910995285898406
P 6.908748001470461 1.425539225278461 8.487176675881381 -0.2523311495723913 0.9097923098201816 0.13375187177388578
P 0.35446636716846475 4.948918092920838 9.995285035715554 -1.137904696054524 -1.6786264599260252 0.7588536418543641
P 2.431997031890819 6.6866375628051955 5.15133049799024 -0.8065602039017077 -1.218472527606263 0.7434352504167648
P 7.646081681368145 6.734287455986417 12.935228244845787 1.3051199896931782 0.6172208246705048 0.3897450435788965
P 2.5852008412060568 7.1124739830179 12.990891515900506 -1.6596483761616256 -0.0348189074513981 -0.2537599115991178
P 7.265808775742627 2.303333899939482 4.398220802015161 0.45565347334624756 0.5154208232128672 -0.35574554670500025
P 0.6199753517811915 9.28985797877407 1.0564953402294424 0.8147769353845451 -0.5127939271129813 -0.6665865195878262
Ni 2.1868148012395143 2.369967031539062 8.874781845651041 -2.0381150186132255 -1.9913443381165896 -0.16766240847840155
Ni 1.4903385891451684 3.980408051229556 4.702295980360916 -0.25574943122532084 -0.4343531692065745 1.3628757084464076
Ni 8.858164728965559 3.1689284056022085 6.077893102792066 -0.07230893397705611 1.3639128914616703 0.6548103528885045
Ni 5.1258673231852105 5.194306154644201 8.883669069984999 -0.11136656210015013 2.443766191899417 -0.5692972615163486
Ni 4.643118611548714 5.378983406068535 5.3596614819770645 -1.8001493937338868 -1.0712791856154906 1.1077829369684793
Ni 2.267191834877817 2.9376959080616833 2.3969870377254683 -0.2982142852577509 -1.367595225409264 -0.6930547410816839
Ni 4.369007759315564 3.3223006221582203 11.681693626123417 -0.2895393831915723 -0.6271285707025199 1.0286400107887252
Ni 8.399488896801923 7.0877742543710465 3.4813388067704945 -0.5413288013278806 1.3798832987479979 -0.21862321579698477
Ni 5.686569875384428 2.9177115821565023 0.47653916243084604 -1.791373961534102 -0.4101027812996421 -0.21101480732210753
Ni 0.7830431474268751 0.18971262792347693 10.314970629685277 -1.1598056098926735 -0.2995150063470454 -1.0420146323234185
Ni 0.5077833835733336 3.7073731341457954 12.739344427143726 0.22991601510198467 1.188287262272134 1.2490781683072616
Ni 9.072958808614976 1.4953440265792846 7.974537550199065 0.8080270182552212 0.3018611379817189 0.4409351932994664
Ni 0.3934928740262754 5.410494272008915 7.85762363007906 -1.0130143884363263 -2.924023065616642 0.05375251113110742
Ni 0.25814116782886415 8.203780971106893 12.358557879433848 -0.15851262365833346 -0.29621422410858667 0.48731789432906397
Ni 8.909416665907779 7.473249072544914 1.3276656149195216 1.5520312538015788 1.131143980291923 -1.3081094113388052
Ni 0.2654303945670322 2.142766951819292 3.6278587198185686 0.7406288913162212 2.040633414159705 -1.531843465999794
Ni 4.105076189191421 3.3127762570966683 9.090631277342643 0.683221557041346 -1.5567600267358157 0.5379169474328542
Ni 3.197754111648025 1.1997144713583459 6.5529718002070885 -0.5139684070370568 0.1678128180133368 0.5614204298714331
Ni 1.4274571966317207 5.401400281007119 0.7436246259363738 -2.1591337590911586 0.13369145084959558 1.3263537022609737
Ni 4.691479557524315 6.092852343751707 1.463919235450856 -0.1710416093632796 -0.5027437419658309 0.02547346168075613
Ni 5.399089359425386 1.8847296351222385 2.7910001030065787 0.5288306688608699 0.04812745163484614 -0.44519011192107844
Ni 5.873193166035485 4.633846857348323 3.112055409201264 -0.08831096583226726 -0.32813652673848004 0.19138160647221233
Ni 2.5252291515748704 9.205710494133994 12.01970192788935 0.7250999424426867 -0.687398828347487 0.17846361285896364
Ni 2.5000616250369783 7.538712709416897 1.3715431859074056 -0.46751140112609807 -0.11783082966825513 0.7232718880950124
P 1.4886732286530702 0.09803359723767463 8.075170232519351 0.29712645151021083 0.3066819564091299 -0.6130121859057959
P 8.133966813848247 1.9542911815197221 12.131207168793166 -2.9256780847215613 0.5495840993581373 0.011095595692529278
P 1.6398280832055574 3.1879584238096705 6.918489424753455 -0.74675685859083 0.4378737807653233 -0.6391073403309508
P 4.845703166242018 3.8331265632148703 7.099790111000271 0.18678627379204604 -0.08185878244902031 -1.5572225681945309
P 5.739056798758991 4.461631741741265 10.629329876867631 2.54345326077911 -0.2491848906339257 1.9419647592421976
P 8.040042353285457 5.390519302061554 6.534567695577836 -1.0638669523118194 -0.758823559947377 2.1298280681485062
P 6.1257946712386655 7.039067137956076 3.0516954473205153 0.25161355468007635 0.04965211580948868 -1.6019592489802734
P 2.0496938834181937 1.8236071626790968 11.072201625080407 3.3926431264258863 0.6708977453686704 -0.6690149265236607
