# total energy = -340863.42953349074 ev
CRYSTAL
PRIMVEC
9.30975958707351 0.00000000000000 0.00000000000000
0.00000000000000 9.30975958707351 0.00000000000000
0.00000000000000 0.00000000000000 13.62577420060286
PRIMCOORD
 96 1
Ni 7.851180937315336 3.616990557697604 11.525565231922489 0.920632337858479 0.20123098846246634 -0.342116643067656
Ni 8.5271625813002 7.802044026188052 12.917547452474963 -0.37005347868724014 0.9179946431253159 1.6664301749701491
Ni 8.054115076904678 8.915109573264024 7.314615736150561 0.05739216476622374 0.9751764916529464 0.9203454027456794
Ni 3.974513255314333 4.226826359780354 12.564312830126372 -0.9330523087893867 -3.465126124086961 1.6263708450554182
Ni 0.11750499264404002 2.750391586063794 13.016756905568542 0.26911453967831717 -1.2160657179369831 -0.27340751062671625
Ni 0.5808228672898227 0.24562404219907222 9.068320286871774 2.1790994035798086 -0.951940146832825 -0.9460278951134482
Ni 2.6869362646838075 0.7258605429516404 2.2541525395483064 1.0300908843026388 1.3448836427443611 -0.4133503417026623
Ni 7.701144851728501 1.289373774231808 9.631692009806141 1.0526055204653872 -0.39065084322261756 0.28905318758377313
Ni 4.97291980325358 2.602645701336624 11.093873541587145 0.032888523197904654 -0.3621568495479827 -0.513369082890161
Ni 5.998752902951253 8.077715317470737 8.931068363156859 -1.0316451161636362 0.5168336443999937 -0.3710325547710578
Ni 6.090314388539893 6.871040137695857 6.5008701316732145 -0.03836780114492102 -0.4739198757556031 -0.6600008959505085
Ni 0.32362027708601315 2.599759675863063 9.981206452221718 0.05149482544518229 -0.09141994377489417 0.18926018925383534
Ni 2.49352600915722 -0.5328999488133528 4.387553773282796 0.28612341553148785 3.1802715479655683 -2.0979625868984773
Ni 0.7090797012868185 6.617200232656727 1.2187508689418374 -0.4374554622809821 0.907339991624947 0.5552909199349275
Ni 3.9507826781139834 7.46465833856911 1.606764891174724 -1.1704242659487845 0.007966306034928214 -0.617359407130898
Ni 8.698787999381194 6.9366832525799955 6.2944401773570275 -0.7991330581997012 -0.5459711851958985 -1.8094706711348125
Ni 3.0587122042360937 3.479513337800559 2.2301985281177448 0.8548833164871278 -1.0079506007601737 -1.311154368812716
Ni 6.161431642064206 3.1137328834256066 2.0016402062270138 -0.9343473734517262 -2.5348956010170864 0.01884978571665141
Ni 4.095251527464722 0.217826962008878 8.383257903380745 0.6851917933938393 -0.5626147072898504 0.19762398783749835
Ni 8.54356637770154 1.8868648350953876 3.0435615014758546 -1.6614676887585516 0.635846410191492 -0.13476848596385824
Ni 0.4424658751113206 -0.21986393740763693 2.6895234468744613 -0.42896208009799025 -0.20146238774698208 -0.2592052509844052
Ni 1.7544707439356475 4.312839228652082 8.451986272593716 0.14835136685461547 0.12613780687205373 -0.12849859379474643
Ni 7.546584222979891 6.305472242473706 1.3066908580491368 1.2815265186439542 0.2084215926736346 0.9977752028890686
Ni 6.1032177153345915 7.309511194966193 2.731626834629888 -1.2376910095162426 0.03978267921457665 1.5381223570299702
P 6.144450640568152 5.498502281027514 4.637654878869725 -0.5029026361411983 0.6914570575772608 -0.39833792745423013
P 5.938118438727683 9.015310515754162 6.936268037302186 -0.7732183952164684 0.8141161618720947 0.3581294735561445
P 9.38796157270811 1.8245639239048257 7.861676760279508 -0.42366046537941876 0.9654559219310729 -0.6874919022819257
P 8.528354230527993 4.973208405800936 7.466978330659469 -0.6420188575507911 -1.2376100197666622 -2.179569915458324
P 7.635799649151312 8.538743922232815 1.8037798856153862 0.3542152261034029 0.037827098150102594 -0.4457719525664774
P 2.7231512294972093 5.488717723696182 6.462404997966393 -1.5110442698662556 0.8052808229686518 -0.9096298161003884
P 5.121615283459147 7.945367775108958 12.610518097958092 -0.14892240886673708 0.14840304602815732 -0.33600307397075035
P 2.6156235062080597 1.650015241311902 5.369903778853488 0.4878282583065793 0.20818170874868663 -1.0642366769464122
Ni 7.702895086531823 1.2641070866987556 0.7678242843131852 0.27667589696534284 -0.38924470690371027 -0.5035361559601393
Ni 8.391510074283213 6.825357147377255 3.5912770017041296 0.6959315484088466 -1.1366145164881907 -0.01768276199174374
Ni 6.09256735036119 2.9305726732099586 13.134292620419235 -0.5881570745353291 -1.0866986054943544 0.6993760553140214
Ni 3.357704443297075 8.655991034536152 10.966418277891032 0.8404691979443267 -1.4345097278436263 -1.9870415969761779
Ni 2.3005812416102387 1.3029660232363238 7.37606759726632 -1.3579687580630937 0.0851251119051179 0.27695049078296824
Ni 3.12020316634214 6.7239459361401375 9.417140221221779 -0.11297324446563768 -0.9182664087294636 0.45272447262491067
Ni 1.3419087476102212 2.618714346392648 3.58793852191439 0.9950722021356088 1.046694811407907 -0.07162296365362504
Ni 7.574224899208937 4.230708529530274 3.360224595218666 2.120462567773206 2.4038097061111374 -1.557902624980691
Ni 0.6525927349615444 6.153276292661496 12.551545425821718 -0.6790154893797983 -1.9771269089656272 -0.5301414172524934
Ni 3.7323850278421076 6.7162653844766265 4.207965717822649 0.8447655113268354 2.038566761438663 -0.08245296438959349
Ni 8.775956596640393 4.682334277104295 9.53207385826647 -0.17232793227487095 -0.7813952746003058 -0.3475936070218272
Ni 6.415578769169876 3.907250242261164 9.49460300688409 -0.5915732993057295 0.5324093873510637 -0.4463692198308442
Ni 4.294973799994776 5.137451184525367 7.6333223221238455 1.799765785142223 -0.8461053131841816 1.5562923430707778
Ni 3.6535034348179547 4.15064459703792 9.98504952098135 1.0051642962642882 0.7793332498649546 -1.076482841303617
Ni 3.917379260697406 4.645281433927601 4.762998689090343 0.13101750356185823 -2.4149626374041637 0.8730473889906643
Ni 5.6038142815337375 9.01848514377508 0.871251989477959 0.144001574526352 0.8797181161426204 0.23765992071346168
Ni 0.5565132230428419 6.469733640717322 8.1562794476928 1.6734377166362344 1.520955872553013 1.6316580615962868
Ni 4.213066535103179 6.105647562588138 11.709009389805697 -2.185051250287869 4.396259361476764 -0.7427989023843466
Ni 7.214058229868042 6.330636522651245 8.601869678123238 1.0850919231288667 -1.6443037753847551 -0.14693468901274695
Ni 0.5581545336589352 1.230815386397284 5.330880059571139 -1.229975643149856 -1.3371183969766456 1.0047115249975858
Ni 5.998212936894909 0.866113002183101 3.4744087966161916 -0.8461112267214524 1.28611259535274 -1.117625634090514
Ni 2.494242860645814 1.6459561861297316 9.737414570710378 1.6153456975895084 -0.020268520441048966 -0.6487826586371859
Ni 6.049435234170832 4.92563553428513 11.738741038039137 0.5403666945249275 -0.4375549639733239 -1.277956799014825
Ni 5.522028043516838 6.057590583573541 0.19079607503311638 -0.6360734386006336 0.26821413935123484 0.5682449089924343
P 4.282489412381724 2.669918024149386 8.313548285506762 -0.23386522955771982 0.41880673683154324 1.4874302299917415
P 7.721132905572814 1.808690783800237 5.105359512235322 -1.0090348349632883 0.5445182547994557 -0.1308105297573747
P 7.6537116266065786 5.644209328404007 12.9874749187234 0.5220355003159075 -0.37474471351532235 -0.7884005022735454
P 0.31947464113963586 4.94705729110663 2.72737599840012 0.0617643256919904 0.1569067126237943 0.10349975775756369
P 1.863981446017922 8.487866086061802 1.2189752341480078 0.512913226299665 -2.494716200584723 -1.677194355465189
P 1.0950604720247832 5.079348974910857 10.82363356405051 1.218280723310431 -0.7873985433715923 -1.2302911175077456
P 4.440289837468399 8.693760729201442 3.3684413890346834 -0.18130416763155227 0.2278583612420076 0.1473370666574882
P 0.7469117713413742 1.8948619185850308 1.4648795001108033 0.3703357858143493 1.095873587125403 -0.485982206236776
Ni 6.958067770363128 8.105132559469572 11.238770639879123 -2.444671734432822 2.6552641095055303 0.7546113216382424
Ni 1.3333065297470892 5.701436420616856 4.625581982630645 -0.5564661711899513 -0.3112785746408768 -0.14763839994799088
Ni 1.0505877504531584 7.746958178681394 10.613442466859102 1.394834006520559 -1.4624969570851716 0.4339178814413689
Ni 7.9537651782610626 6.317742505616138 10.937436065304759 1.7479626844280025 -2.3201568078761716 -0.05998897895912249
Ni 4.5926161239148975 2.080247161343199 6.302506153067652 -1.1653201119529994 -1.4622704428966622 -0.6666392272026325
Ni 6.003966368322848 3.284995220882507 4.540789623241446 -1.0246440022554548 -1.8058371881472834 -0.8438825945012499
Ni 2.30067433920616 7.598514061984815 12.758344046617752 1.0501804559636623 0.7368557974270343 1.6469977772771505
Ni 5.597204352223321 0.43146360122533634 10.375972843086778 -0.7251665340145639 1.3460334400780885 0.3724438332962876
Ni 8.992873995137119 0.28434984917447276 11.302988430569705 -0.2537172312866405 0.8741961578831268 1.4364043737631778
Ni 8.769290808772425 3.81955230690326 5.297319307217454 0.06470489637755308 0.027923722993461585 1.1087923520696001
Ni 6.140894312403957 3.5785040115437217 6.660305350544267 1.7920946417502104 2.7879073215962693 1.9984482961512227
Ni 6.3338856287489 1.8625105040023646 8.143852780589217 -1.9658107126218596 -1.1949842146763354 -1.562262958831916
Ni 7.7590050075936166 9.107681950427319 3.9556163052942197 1.5980462870791123 -1.3291423207497044 1.8091881068973872
Ni 2.5266222045072566 5.69159600472797 2.4836111151915965 -0.572513454460801 -0.2112364364146104 0.15567001200321579
Ni 5.0150278458888025 4.881581751895151 2.5711154075499842 -0.014887458634793715 1.9702916312113485 0.44108663127566616
Ni 3.9823427631313177 1.8759537968534064 3.868902411525204 0.2102524752347863 0.9836104813529126 -0.6077848760685856
Ni 4.380995978626096 0.6591468057144068 12.399863374738995 0.9816965521596513 1.347068309100506 1.6933755932107417
Ni 1.2218500879100587 4.385082963087043 0.48251180599688576 1.1724353828415421 0.11986148694503873 1.0154183698921286
Ni 7.783936543781351 3.942664567749642 0.7436971113542102 1.8815723741970691 0.5617047938810713 -0.1383042670312586
Ni 2.805011945590845 2.0204691950021054 -0.08617672064054928 -0.925992830839444 0.5387687539101883 0.20866199081921485
Ni 2.1556562140394857 3.174460445245098 11.386337777222122 -0.8929963213087652 0.49933883004934004 1.8974695050432997
Ni 2.027525992772943 7.549786780279584 5.979343916153572 -0.1622209257478561 -2.4700832325273914 3.043532311428584
Ni 1.8291908744221164 3.6295308038682093 6.002303645259693 -0.5089619549614008 -0.9320228390836077 -0.032332136473802384
Ni 0.7343165975891759 0.437713242839536 -0.23403804638666126 0.5747171469803394 -0.5888505010579277 1.0092019566687715
P 4.633160126938643 1.9200820573201225 1.1549203642502877 -0.5382738165516407 -0.561652086266265 -0.5561404124194164
P 5.182240437923125 5.941888891362497 9.835275039639054 1.0771163611225578 -0.2594579904251596 -1.6429328631791575
P 2.3260061950563573 8.058118273529296 8.02303258255442 -0.2070401389450757 2.010393641438557 0.6881328783000343
P 1.8835040118826272 0.6810545319866169 11.544600897360525 -0.3422194871941074 0.728353673493294 0.74980387294727
P 7.211013938481413 1.5927229807819083 11.751549405285994 -0.7537371465634051 -0.5118390193988799 0.4086313389604382
P 3.3822728988607174 5.447065859280973 0.5260488967295013 -0.5633860382382362 0.025784822273587853 0.8065380924145207
P 0.38538494612406826 8.196749903615766 4.770520043864828 -0.9609271808227837 -0.11981443575718721 -0.2335063035564043
P 8.518281070649303 8.125325428024912 9.717561508380152 -2.24319674828035 -0.9631907800459799 -1.8167278669178584
