# total energy = -340893.09810559155 ev
CRYSTAL
PRIMVEC
9.03516358896023 0.00000000000000 0.00000000000000

0.00000000000000 9.03516358896023 0.00000000000000

0.00000000000000 0.00000000000000 13.22387520078009

PRIMCOORD
 96 1
Ni 6.31402539056194 1.8781304468491817 11.45278830778934 0.6230891105258236 0.6982810224776296 0.3832841184449012
Ni 4.554029709322604 0.04643351337836481 6.102037861833756 0.14543547875940116 1.3704632909856784 -1.568215833981241
Ni 2.377133503817914 1.4015707365553907 4.730656317808552 1.2487958611801524 0.8217487387166881 0.5912691378017494
Ni 3.6208780005512944 4.207413723617785 4.85486813453497 -1.686043835436019 1.2439629585678835 -0.2135406590677548
Ni 5.213181043188814 4.694607821607391 2.693465427773512 -0.10208153725379839 -0.7212972808671448 -0.15416283133006997
Ni 7.506043575011086 6.034775585536815 2.539605624823602 -0.8025713944572888 0.3140774775422526 -0.5049150385855369
Ni 4.692963421810757 4.367769809280771 11.454203214427544 1.5765786041236396 0.5134230760565481 -0.3418173666596823
Ni 5.68494308154847 7.735157256566303 12.543929792845953 -1.2097644583093037 1.0560132605953554 -0.9384963626230933
Ni 1.6881209538644737 6.595217755786385 0.30000357608484296 -0.17255213247053508 -0.49757813860449146 0.4523115534572081
Ni 2.3143933269617176 1.3487963452798946 0.14283599969785793 0.4052703929080053 -0.6967093071151356 2.0499454355892506
Ni 0.40784548318740504 8.998706832169036 4.776979602189559 0.678001189182671 0.983051780635965 0.21465986027386252
Ni 8.402331815813893 2.1462850708288848 1.6652954197642706 -0.38581459817623875 0.8255776255444749 -0.5531250226318603
Ni 6.767319554282474 1.0313549032197549 4.721452196529259 0.6695432882233049 -1.1005771632486594 0.4980998154359164
Ni 0.679213011385147 7.401931383491219 2.672214722709316 0.4476668555963451 0.468832948150999 -0.3769612615506669
Ni 7.89303770737062 3.8684053457633274 3.92274372387837 -0.6984226902618165 -0.5317964363574131 -0.4761965876049218
Ni 7.473471809808523 3.845275326645836 12.720416356294274 0.55371611924864 -0.7906394189063931 -0.9585885053872782
Ni 8.115384051301229 8.843383332696847 7.003298153230453 -0.5875214978338591 0.5633947799889846 -0.3087537513364941
Ni 6.691812691093067 0.6495695427435146 0.5046147971538396 -0.11980517978580658 -0.00910504762506174 -0.404737917443303
Ni 2.033246137555861 6.427787136932386 9.226073113061238 0.23909768160125272 0.5860726812024746 0.1688104060399157
Ni 0.11275974671414435 4.569389487642814 1.3031904528980776 0.14009298350056518 0.08554908681641395 0.11636941463138024
Ni 6.356698468800969 1.976586625881724 6.97093961789163 0.29354696168906863 0.3329120937502525 0.16147427738981868
Ni 3.642905729695218 4.6232390634007245 0.5666122835524354 -0.41656627753679876 -0.7629614933751505 -0.13901440572440577
Ni 6.236973514376796 5.584842502719293 4.742544786228393 0.0399729408485118 -0.21124157862093296 -0.3960571018398534
Ni 5.201923229196472 2.8613459977806572 9.470304430549028 -0.13101493245869694 0.4584690884181717 -0.49140363436266343
P -0.024571127730476164 5.433503510446642 12.366174692411656 1.1044646712285238 1.0515950769230018 1.4814524151417519
P 4.0848336574587965 6.24186153794811 12.41512991998365 -0.7532159839526125 -0.5890140232189855 0.5085567491031822
P 2.1771943659073765 8.375289570806606 1.3875418378508086 0.8757352202354725 1.2264401191927716 0.21841264244807546
P 6.53993158899735 8.022647130902033 5.676321728328974 -0.05107445007831204 -0.15152565081753902 0.22527620233712817
P 4.691960518638084 0.8565687575831179 12.567138417887788 0.2531451608332544 0.7437854346673319 0.4023030827495652
P 4.150040434009943 6.12775645535639 8.067013398821773 -0.5164191825703945 1.4563211672917629 1.6537785476444098
P 4.540630561529151 1.29155858312782 3.887607779212705 -0.8853691437808108 -1.7007451462019356 0.09381209815615456
P 0.3910229118612886 5.4356900200663425 3.477694147050302 -0.28921722396546323 0.16014861659985966 0.8078773800512344
Ni 1.3255759745252251 1.1857568159927305 2.520325488966252 1.2978877336107968 -0.898978249923813 -0.20663416175590865
Ni 2.0314571751397428 6.388737159344182 4.881156846888194 0.3158373976561528 0.4386019171805994 -0.45189220653160245
Ni 6.277288414885486 5.568398504752952 8.980545249579945 -0.4590686696753836 0.9449230920850435 1.2572478486022476
Ni 8.61892276045628 2.4256071571637516 10.201082928304231 -0.05835427156917692 0.006311286930008486 0.08213286204601339
Ni 2.459850427654101 5.139987181911158 7.066865047566825 0.07353046508898303 0.48283620440862646 -0.8156274563102985
Ni 0.8216794728869482 9.004552583094434 9.052879866788043 -0.5579481550521166 0.09834006793349515 0.4248742831818618
Ni 1.1889100881302326 0.9296641355762509 11.368036665083912 -0.07628025991997832 -0.18502969611225553 -0.3790204580725408
Ni 3.937795403115803 6.9068044117574106 1.3269628721559028 0.578203819977359 1.143998724767404 0.8977371784278603
Ni 5.9242393926136145 7.951901798991894 7.921259944759448 -1.502604623739335 0.4547762129476167 0.7623115184959774
Ni 5.405196342518868 2.9565133772199306 4.79993614616367 1.0268014149180897 0.7726661222574241 0.34070999252811646
Ni 0.9060823582728706 7.438225636145503 6.934137589036408 0.1532032956302781 -0.7884766069271195 0.07071742112022014
Ni 5.18904812089865 4.656506536209554 7.09726746996075 -0.013664641971286145 -2.4958215178337597 -0.9867631680492812
Ni 8.283971171111103 7.25285118214801 9.117875220508193 -0.1304955696201172 -0.02273729369651568 0.27841730513648183
Ni 4.646856981358976 0.22267883795542173 10.336931132382768 -0.5868126446922927 -0.10814008474305246 -0.12315738408749112
Ni 8.340477085002037 7.110411826137362 4.680180472182856 -1.0108289507492334 -1.1833294040462266 0.07526261728874135
Ni 7.288278059085387 6.422682269431845 6.864236141417507 0.9522882742008633 -1.8331916689008365 0.05292898678854756
Ni 2.344091910102028 5.323184161452667 2.560803022421863 0.2086265095955891 -0.38635195873694755 -0.5289792786235922
Ni 2.187720331638579 5.386267674530139 11.4534234797987 0.4935497341713887 -0.5042642923754155 -0.08523386956884031
Ni 1.3074424009436603 3.355135765284236 3.671926675556696 -0.17465966573184113 0.5011308889527564 -0.498371066819432
Ni 3.712015696972443 2.655931550657151 2.376912142306829 -1.0083920591729665 0.8104405127927203 -0.013190016327712769
Ni 1.2615799099122584 3.40666330396668 8.08518311305821 -1.3477897606475626 -0.7055042796989462 0.37608322982108777
Ni 3.4604677039060014 2.5211178728243007 6.990325465164479 0.8226946475697252 0.6218863484669741 -0.10449451757066519
Ni 4.531107498970621 6.659846281859596 5.934888236571379 -0.8042937764650342 0.8271521691204465 -0.18119103909245568
Ni 0.6574165824323981 7.349952086622887 11.507138431617214 0.29895939095389157 0.6159000489765522 -1.2493540476764675
P 0.3719108300490892 5.6472574136816505 8.146489409432396 -0.7726352690194888 -0.9832392140564228 -1.5764263948164916
P 8.474450492609135 1.5505696214251394 8.160558966373708 0.38967973755859986 1.0067329263029887 0.18278949392782715
P 1.687831828625505 3.451839122555531 10.308209250440349 0.26186042921906516 -1.2408511524117791 0.36221084271436976
P 4.018913102973944 6.158855488872954 3.737530095795054 0.041675011141283066 0.556411663802932 0.46081753404569026
P 6.901988669495839 3.9958101893476057 10.474936030040734 -1.2776590652687478 -0.9013423792806154 -0.783848878347121
P 6.467514751799421 7.892631125003321 10.125177614394874 -0.5336301471320423 -0.8919187719738704 0.3313974568779389
P 2.421505192835884 8.448519572739135 5.753165795748609 -0.20640636201581875 -0.05567569629574927 0.37028410664080746
P 6.803225294896892 3.7514180459456385 1.518774880302306 0.10135802882421253 0.8248872843456697 1.1427180582827674
Ni 5.248671166272215 2.790672947180258 0.2370022829972029 -0.6005963287399463 0.2514222646048767 0.6055922392926409
Ni 1.472026943226563 1.046687576048811 7.122326496531986 -0.053477403092849846 0.2715092651627389 -0.8971221705516808
Ni 6.670137333334136 0.9463069071443837 9.311155442758736 1.0863157682336388 -0.4161057929606124 -1.0818430771742658
Ni 2.91919815106554 1.7094077995835404 9.401143866354984 -0.475998869771819 -0.32317352630624985 -0.5664160833138115
Ni 6.099657096194123 1.9060310324096563 2.535267842722701 0.9246124055521495 1.0828499211722253 -0.09125565028288801
Ni 4.5394469550821235 6.704877537828963 10.354479227355421 -0.5179793279686629 0.3401248094486078 -0.8557220103383391
Ni 7.818334973752096 7.217550797502682 -0.024282906007879294 1.1753214461400856 -0.21505658149164897 1.9427031800701187
Ni 7.7113586353336965 3.9296908612609633 8.127895946017595 0.7453604924639358 -0.7277052412760177 -0.19211488509381108
Ni 3.2186054063450102 8.407210804221489 12.19372232956332 -0.8604217298068537 -1.3396005399685509 0.642018600440475
Ni -0.08834312028324207 4.922393334096097 10.222359835343209 0.7891317240126151 -0.19394808164780789 -0.5705774137803528
Ni 8.628698807598909 2.3376136977163875 6.049777571373801 0.410886453543202 0.8528590869682473 -0.3005503895900953
Ni 3.3939869692706477 2.497400568065154 11.718072460255907 -0.2766748685240783 0.12136506807375871 -0.8623472289643407
Ni 0.9904256115782557 3.314197438479019 12.388536722613138 -0.9362618168656198 -0.013179474804751495 -0.0727241671376038
Ni 3.1570849765907125 8.33053840491249 7.987392825591668 0.6547489035229499 -0.02439436968396444 0.21241940097911802
Ni 5.617396197594419 7.971110557055873 3.7235129428033056 -0.27389499178609605 -0.3502629263238742 -0.12081768021072094
Ni 3.2162020527960826 8.403443140951179 3.675695242343378 -0.43768968977897527 -0.5554590700816756 -0.40122167675992837
Ni 3.2858722002238094 4.3510999322214845 9.28960025267725 1.3372821762480196 -0.005641000335861252 -0.4617603575749338
Ni 7.124244661789269 5.978856957287536 11.405420558482557 -1.3171244703532219 0.2247403844383162 -1.1299497028735057
Ni 0.1800021456509058 8.945092170667786 0.621203646251575 0.5304023842233639 0.44661167485895337 -0.6223573745661217
Ni 4.532300140581367 0.3704615897887589 1.756157543692027 -1.066637058857789 -0.9459186232290934 -1.0177686152918601
Ni 5.95043233223143 5.601647907234345 0.4427022412941908 0.09901626806491334 -0.1509489523784626 0.3815504235832461
Ni 7.871461736412585 8.902943131924388 11.395383395108487 0.3401430642810529 0.1771145550302369 -0.19424941493831063
Ni 0.1906591212560158 5.098560956265181 5.886158888092329 -0.39637617574216893 -1.2604169903588485 0.24151966077918402
Ni 7.78351345278381 8.903494276911173 2.6711702577835417 0.015070006959245015 0.0008114401577018285 0.3633776093289613
P 8.711948806094444 1.782963067409908 3.857152952869217 -0.2509232134812711 -0.7575866022164823 -0.5024863745393862
P 1.96667505128333 3.3286898410823222 1.103979549183192 0.3785545741797157 -0.5630440815177852 1.4253427166323775
P 4.781598377882084 1.0550179969965952 8.042549789539539 -1.0153234961854771 -0.22671319189397082 1.6983511920484622
P 8.33710696893531 1.6634730272423963 12.613170769997083 0.6647728634178551 -0.21483700928167515 -0.6607663133616233
P 6.130945868148761 7.783892929659956 1.578084405494865 0.9287698793639488 -1.0155201855773157 -0.4374243519327305
P 1.759715591164085 3.3040238441328094 5.79782299594006 0.3867360815492436 0.056577382174412244 1.031250966049011
P 6.952115757802028 3.9664820479197234 6.035429731389982 1.0374252131805228 0.4543190708055401 -0.23796819598249985
P 2.498611280003335 8.334766861532408 10.138493638682123 -0.006501034343311385 0.9001337036844949 1.0471532391015643
