# total energy = -340868.9324311046 ev
CRYSTAL
PRIMVEC
9.27674946402531 0.00000000000000 0.00000000000000

0.00000000000000 9.27674946402531 0.00000000000000

0.00000000000000 0.00000000000000 13.57746054880906

PRIMCOORD
 96 1
Ni 4.393032564439249 7.69486891333917 3.005683541941309 -0.6442428617853033 -0.8725305972552457 0.19961299324306914
Ni 5.7821237604966464 4.772089826489226 0.23283713614919707 2.050339842814191 -0.7234040427975026 -0.02382692721626864
Ni 7.661268526585419 4.245411649361271 8.46406637008813 -0.8132712973732962 -0.8031146685552685 -2.116285810687697
Ni 5.785389176326939 2.4482455187619783 9.046349383826238 0.09568308992662232 1.1407118264860159 -0.3407243907058196
Ni 6.642124824551442 1.264077719554486 1.168648724939036 2.743837327860249 0.1962412485573588 -0.6422379155401327
Ni 4.6456848375586315 6.498567125762294 10.363865818978455 -0.8070029478660812 -1.323896241859417 1.0231823301082636
Ni 3.3321991500719323 2.269918562779827 9.739872684058067 -0.5599613288274033 -1.2276220553160149 -0.2048996955633052
Ni 8.455590204053646 3.4008192662556693 10.4121744920928 0.7085140130595475 -1.2224006590160754 0.8187911987502609
Ni 3.5081883651755787 8.951534510028873 10.320146353850603 -1.0846592064668223 -1.1514832060699072 -0.38529369267576224
Ni 2.996250943031532 1.8593760128661765 0.748673576115608 -1.178237848455932 -0.11486634772329249 -0.0725444470266299
Ni 6.932394316965817 9.294468109456234 7.157914880770265 0.19686165575017708 -1.2336039839310626 0.5550343238394312
Ni 7.321934305970994 6.594933999754002 7.191138631493589 0.8411831932922158 -0.587359261224382 -1.4998044352863782
Ni 2.256420892231316 6.611641425635698 3.9282442217198126 1.1824871106505892 0.14177962717436873 0.11492445465473757
Ni 3.1960442973980507 8.641004596667454 5.006077279578639 -0.3391179654506482 0.839633846527225 -0.9275884574613379
Ni 0.2292331189615018 2.172113792612849 6.355785890907793 0.6320581467936534 0.5835082629094079 0.7030195656038796
Ni 7.397521261042655 5.723652408285467 10.160108509542948 -0.7217161135721183 1.2595338164229468 0.14769213600406178
Ni 1.1480534133343971 7.575282335304216 9.018651792790713 -0.31176014226298565 -0.6908034831536619 1.2753828676400616
Ni 9.362930520898168 1.8931990416083564 12.483511243993142 0.3940886652595729 0.22567806576123714 0.37881425559900567
Ni 2.0863409665705572 6.236777254367802 6.342778960408777 0.8118944716304276 0.9330440812592705 -1.282015799575547
Ni 2.445935608132027 8.477177200181744 1.5931388677528147 1.6531110892637402 -2.5474400133410002 -0.791968679240778
Ni 0.7051999448499806 0.38745550338850987 1.2186383450660203 -1.5515484006278892 2.6317148614306807 -0.9635982998970436
Ni -0.055321895749860024 9.194743052139057 11.000662723583417 0.45678424451658106 -0.7157596388783674 -0.744241548368144
Ni 8.10755439239145 3.825462475436493 13.75559665373146 0.18624685634880828 0.2114305547032875 -0.5818457876053205
Ni 1.464817302371828 3.668156633861851 12.886816073932946 -0.027217955175688608 -0.43642059325856447 1.3025170048526922
P 7.690833527298894 5.397723090724374 4.536759100069623 0.015975549492649906 1.2118578505032227 -2.0544816328967066
P 0.17885480302971848 5.633436019224113 9.303031476936185 0.07281029909350686 -1.5002685194069902 0.7293018963391763
P 3.6196856176309438 7.452458171687524 8.572686902518 -0.24457387422447557 -1.2738204082489482 0.4255453411069574
P 5.406944179745143 0.7570727451290938 10.206285385618084 0.11316196343767608 -0.9252107012577807 1.3438366895370857
P 1.463184594456682 7.657325908040322 11.36884206914873 1.0990059621067978 -1.0736841955125573 -0.06091123366307575
P 4.354775249427524 6.405623372342683 4.87292345537379 -0.8101942011098691 -0.911688755511946 -0.6888584436121491
P 6.8736446622691005 3.3498713579034884 11.858200810641216 -0.6049180960437518 -0.1376864309416016 0.9937527119932368
P 2.9521214455749907 0.8250731744450366 2.813901588458429 -0.17298793445637303 1.5158077526931701 1.4854643645146222
Ni 1.975103463101693 4.033057576147547 10.650947820258487 -0.8676514147860734 -0.6899128530185924 -1.1086702246694389
Ni 7.905488234393052 0.4155677651274846 3.21951447367828 -0.8771130744196056 -0.1264694791798596 0.22792623836546555
Ni 0.06169595034359337 2.272349071153511 3.934503244619524 1.3793914467132438 0.12813324003552773 -0.7418391095742385
Ni 7.514621670206819 6.487379365843735 12.435175668305197 -1.4056776341032822 0.2862925941195005 1.425893704039841
Ni 0.038986467523830254 7.966816825455736 6.7024858506394125 -0.33212970705827316 0.0676953464644447 -0.1723032496845226
Ni 0.6988602142294634 0.5448327759344394 8.268375194358415 -2.5619492627007685 0.6126419470505706 1.6136266580158727
Ni 0.6655937904583561 4.724360950219747 4.490161059566374 0.5086580505677369 -0.8329870306346687 1.0790184632412771
Ni 1.9867272302475931 3.4053463200203935 2.5362827993615835 -0.36368871281147686 -0.15699541568285866 0.1326169868384942
Ni 5.067034800660609 5.245556568382636 2.3429943017570003 -0.8344479314509113 -0.8258018257401392 2.3057655721515067
Ni 4.281795060970385 2.5896788419115326 3.6363837667631222 1.1784386516128287 0.14470914211633787 -1.4822772250358924
Ni 8.725552891773386 4.333958223509408 2.587076713671768 0.2561973173960168 -0.5013617740166397 -0.07914626861386369
Ni 5.421833362721337 0.3719188032959693 3.930281395913938 0.5769069555428065 0.4790096315736847 1.0065076976660603
Ni 3.436414154155764 4.311833175909271 0.5568025658373561 -0.03203800227215128 0.5275888260339688 0.18305483177407184
Ni 0.1841453332797638 5.234545066704916 7.181065009192126 -0.9700923922618198 0.09321740199494914 -0.41607468261236086
Ni 1.0736631589505408 3.2395986363844833 8.525790150680276 -0.7073210211927108 -0.15047792627931503 -0.1877715205234508
Ni 3.762612497452876 3.61541831285272 7.433931575225372 1.3879318800840872 -2.130901760828659 -0.7236477833771925
Ni 5.694384263556565 6.954537918064989 1.0371331746990442 -0.03683619499174301 2.300791773085999 -1.3574558229824167
Ni 5.620893853875943 2.449191747212802 6.282196220007329 1.463481175375312 1.1550953489011977 0.3420289684498561
Ni 4.887232841505115 5.773227357709003 6.920635109276955 -0.1465374535743283 -0.04355782998629273 0.5429254563910392
Ni 6.703202943377145 7.280105442394886 3.4487160516914206 0.5802280494962394 -0.6234560069469391 -0.12481137475114634
Ni 5.616941958581327 4.274624133593067 4.854892237335893 -0.823710233318433 2.1070069564889327 -0.5157735785665957
Ni 2.450332787403501 1.4459947776000557 7.320803470204765 2.051631307932105 2.1188157761984026 -0.5956050461729421
Ni 3.0930909312486508 4.455121848962401 4.6746514879282035 0.45175233851962837 0.28519576151089593 0.531939903913813
Ni 7.61507959073591 0.6241128049891688 9.40774093176932 -0.6345683148100167 1.8952534712285878 0.19477417709352907
P 3.271751850213446 6.350825612940584 1.477227737876844 -0.016464059093294226 0.2866828875793837 0.11314576548775997
P 7.482700375115803 8.35934392780567 5.121255546242697 0.22299383406085466 1.0433132965301837 1.0146141288232784
P 7.476197373703772 2.089689873146511 7.721610071499403 1.0378926397352446 0.6603873327556498 -1.2901957642831778
P 0.9769159382286006 1.8175657027891043 10.10137276997051 -0.04007192832022131 -0.49144528623387623 0.8870622152125175
P 8.265231303946807 8.36935354053546 1.6318340453417837 -0.7288041307671513 -0.613578342821911 0.24505055675057796
P 5.834426074278437 8.81441487540513 13.322801964749278 0.37815322497623904 0.45340812895549654 -0.1364607860646166
P 5.045679723270456 6.079415752296054 12.443742746484958 -0.5697153228903737 1.029453764939272 -1.062816656670434
P 1.225885341789386 0.2883863122622451 5.629255915891357 -0.6847194817431111 0.026437368255922213 0.5914540001190459
Ni 2.4466406410953856 2.0861925385782714 4.873127543863183 -0.8033800064015132 -0.5500636100977173 0.2793904676830285
Ni 4.658533135640892 0.09410705780915234 8.217431924380994 -0.39340937980436114 0.636812116538871 -0.6152037942404759
Ni 4.380082222112293 3.8771618004996222 11.103756168650538 1.5620482717179485 1.4235036065411097 0.7115340308327939
Ni 6.695855757758987 8.192844827458813 10.907507460274799 -0.2987930405793564 -0.3418531049936242 -0.08411441125241642
Ni 1.7532407216321446 0.1628143754383572 12.44436707172751 1.137090684793661 1.24205648557379 0.9062606425178392
Ni 1.0505269456529551 6.28708506700325 2.0717987340263333 0.12281002805040139 -0.1277588874152445 -0.7770292843221263
Ni 4.698692184303781 0.4724694913202391 1.6739105981300189 -0.4845557582028946 -0.9547855867014201 -0.9193195325843263
Ni 5.818618493099975 7.2749753999115 8.655563527360812 0.09659840265204007 0.8115689699702088 -0.14387250514765546
Ni 5.333333172320789 8.006679018134056 5.9001806025361025 0.703114439310531 0.2050202803015695 0.24397840673232174
Ni 7.586201069486758 1.3985349270665963 5.406748440330316 -0.2654075231403752 -0.7904327022122258 -0.34250616519659083
Ni 7.438153423930958 1.048959174984434 11.887094174689596 -3.0456118196654325 0.5225193819308613 0.4305366236739617
Ni 4.253287609701949 0.7105767488705421 12.290439822327277 1.315578980242973 -0.6873448351811001 0.2995723419475421
Ni 8.039407390433125 6.214911955754166 1.4661624310519203 -0.7265006794449553 0.2357087105243618 -0.8409350818371517
Ni 3.516277690755168 7.778016419267903 12.642340327838621 0.7112031298559365 -0.503479591690591 0.6805049294411313
Ni 0.00867283312426329 5.280084630088174 11.652026907956301 0.3736874758954016 0.10386356885488562 -1.29063593714439
Ni 7.751726111134239 3.86388677193954 5.7752812300522605 0.8324373287787857 -1.2397262947787164 2.8723965996896017
Ni 7.187291563468525 2.9274545686069553 3.695472950492192 -1.32928938785053 -0.4997594625265264 -0.9285850170466524
Ni 2.48402594165243 5.1229086630067835 8.420863619908424 -0.10453334122840062 2.546691308100433 1.827234679986453
Ni 0.9400594123940748 9.289736967202117 3.4716889941974913 1.1631652703935258 -0.9774503752887875 1.2307554587386738
Ni 5.1922987494005035 2.654347062800654 13.411000660790494 0.08173485527664633 -0.8240789295117614 -0.5984952232365436
Ni 9.269996044228074 6.948266835390904 4.460712018221874 -1.1311048995238715 1.0970861193762653 -0.21095078685339155
Ni 2.582758386771196 5.7012026744522055 12.078128422161335 -0.06927708912926779 0.6535875362249969 0.21771381660883796
Ni 0.25677300525522356 7.783257782745503 13.593074495902917 0.44161396453404594 -1.5235449734364277 -1.6218855555905554
Ni 2.3256439971337146 8.507456510608096 7.302243477444347 1.047786244699873 -1.1304181578694918 -1.0521818026644072
P 8.033730019728184 7.929208882910264 8.887832926439515 0.4448571540616919 -0.9840640239505635 -0.14039225990853885
P 5.050318098029394 4.537360233438381 8.931525488993763 0.41083477436966015 0.7824016043776332 0.697441814405786
P 3.114798525120483 2.42171401514085 12.172085196628299 -0.5861685833503905 1.4742461272012999 -0.14742139884117836
P 5.906478587783789 3.1770362376359205 2.0638828836627288 -1.0528878275924962 0.16067466430665875 -0.8545501015174252
P 9.16636547536387 2.3484462474486567 1.416536459506037 0.3747197738146579 1.028815102914009 0.5553364284608823
P 1.8570661022362251 3.9709311846263238 6.566154739724692 -0.3537012625814618 -0.5700472523084956 -1.7005926797844713
P 0.6313848489362326 5.495453646895209 0.04238268552232506 -0.7859440703132529 0.6650921944304868 1.558732062860522
P 4.3558977361191875 0.9383432137332676 6.2027408603867125 -1.6114702737945024 -1.8169019306018774 -0.8010187052581882
