# total energy = -381179.5011559956 ev
CRYSTAL
PRIMVEC
9.12842582805339 0.00000000000000 0.00000000000000

0.00000000000000 9.12842582805339 0.00000000000000

0.00000000000000 0.00000000000000 13.36037391479025

PRIMCOORD
 96 1
Ni 5.981638415926532 6.233756411106388 12.704833638994188 0.5333483542255654 0.9334454304627472 0.15190797385762225
Ni 0.49044932870939256 1.1596387137719724 9.440707533631164 0.2764810073457174 -0.957100350877526 0.8020733717749478
Ni 6.29225136433107 1.3570044103498229 6.590271649194183 -0.45579102736537624 -0.47814034159485397 -0.2014528746652853
Ni 0.926042294761418 3.538789486852854 9.638735041087415 0.17556186583113637 0.5157985182672601 -0.19884346206689626
Ni 8.100893774953116 9.069273709080338 7.500981839798894 0.46443224798014204 -0.3454806744438824 0.6806591956308083
Ni 0.4478570062607273 3.5383056802796786 12.342460690000607 0.09579030492844794 -0.549155496461151 -0.4454281960738135
Ni 1.7466512702742272 8.998701848378088 13.055770496009012 2.8671160680169527 1.770068000967474 0.1385346378745098
Ni 4.56513492550204 1.8640428274635872 3.5099034959065083 0.023219375539256785 -0.09116103368655268 -0.7376263570444715
Ni 2.0054695300712666 7.318286436499351 1.441437785794845 1.8099162433126639 0.5550849745717086 -1.102113397387528
Ni 4.176263981779898 7.320422488162049 9.13438129403348 1.1433505496604437 1.062808172030002 -0.2551033130008897
Ni 7.050284980237887 1.2073256107204338 4.4592387950598456 -0.22392868717029824 -1.159897912496164 -1.5019178820849552
Ni 1.9491288853611008 6.612777783272749 12.344010696719948 -0.06871376042663005 -0.7572531301364636 1.034973666316237
Ni 2.696254032306698 5.490812083227099 2.6128348249801623 -0.18437792146086956 0.09832104177010163 1.6961025052236014
Ni 6.513168399754064 1.5497419949918252 8.813491563740623 0.9585962186967619 -0.4598196889087952 1.2025023774302517
Ni 1.5465105322200496 2.673706820311541 5.6940181467015085 -0.27589839536937005 -0.3684213424004558 0.031789376596454935
Ni 8.372035409727266 5.431002636671524 -0.02797497404063089 0.07243054715658492 0.4429095434170178 0.4496936562183868
Ni 0.21306476345609787 2.1715155973554396 3.213917937178504 -1.476235903937819 -2.0256253707866474 1.156641353232079
Ni 6.440040579797302 8.84519823829284 12.98608317977734 1.0458502040194246 1.3432818454748803 1.0532719504047925
Ni 7.234067579063189 7.381290832123065 1.1926900054605816 0.34675954115630603 -0.7619453934058102 1.4472148341151205
Ni 5.581548636762265 0.11956868676864967 1.8953962319331281 -0.8607904260001822 -0.5823378967503906 1.4796912094762709
Ni 7.698293678663881 4.6245335928917095 8.993429269573065 0.9487890027983531 -1.3955706275762674 1.087875656521591
Ni 2.2488151079526015 1.1282825707746587 3.7324746021042077 1.2017104776565755 -0.31448602583458096 1.1068894786199326
Ni 8.663003985575699 0.9093756147368197 12.042025936484569 -0.3282278009007057 1.1269466543811237 -0.26299351438224383
Ni 3.2592223149647244 3.984612679821063 4.3453543791047125 1.263355247051566 -0.41833571073239567 1.012134042713902
P 8.325882088331511 8.160475010860965 3.036906804692476 0.5954520655348454 -0.05749835132678484 -0.323405696921714
Ni 7.544078051357735 5.310315717729026 3.4442774163617376 0.29499732098235004 -0.5548787720981734 0.0668337697950978
P 6.4609538035547525 5.216667196328897 1.1433316937281872 -0.2499780759591824 -1.1071756424017836 1.5504294565320975
Ni 3.3905347216652646 7.149748308942029 6.8659364190062275 0.7291494299217121 -1.02840192663599 0.015905872596979058
P 6.196083397380066 8.24909376958525 8.087662121598063 -0.9180463222988576 -0.49694770410934413 1.2257083832330697
P 3.0528468620147198 8.37110431028455 11.390734656101708 0.7358623231655134 0.1417685714307752 -0.9157711531114358
P 1.3505323563803626 4.8089369246788225 0.7709119991791921 1.2026779837761674 0.30221415044576344 -0.27856694334046866
Ni 4.074326849654424 1.0891124951992663 12.363596647350235 0.21821338195307582 0.26480279967684067 0.5389782988178331
Ni 4.9069670905152565 6.933614568695335 1.8767715045510558 -0.4950255473859668 0.27609662742310515 0.8011881409565169
Ni 1.0149714199666082 0.09190773057928736 2.161254333791166 -1.3568048196619793 -1.4518029677064352 0.8562665699878995
Ni 1.9635061561677296 5.487242868696691 5.724880441857147 0.36618345420887255 0.1332906158667511 0.7256409025478212
Ni 3.020203610964242 1.0838636503016084 1.3703465176583738 1.4674548153110791 0.05568238116396861 0.33447403892073363
Ni 7.47096848825279 2.6662762816216388 0.28694476570775945 0.043221786803112665 0.823296285709466 -1.143290642956786
Ni 9.105796541142128 7.9056276163343275 13.137029004922894 -2.5792101066637456 -1.6296716272938774 0.8925751746109467
Ni 1.5134017314482135 7.5872281206294385 4.3636851711725155 2.2079520661454426 -0.5335285885571714 -1.7926034630658287
Ni 2.0825317015947955 8.500061583100576 8.532870058660007 0.7914302902388047 1.2026461020969677 1.7090786057682954
Ni 6.157232816711487 1.7928776190772535 11.244691708511864 0.18063053860329537 0.2580443979070846 0.49166588688511453
Ni 4.168221838554095 7.908557841051107 0.013071905901645708 -0.9351701264633379 0.8106569996789007 -0.8430253887072772
Ni 9.105906082253037 7.170926257050841 9.130345616939124 0.31211958248493343 -1.1955406014004377 -1.2280809972303044
Ni 4.386774611666666 3.468902258093776 1.6996261842041658 0.5394776070517547 -0.923267718598797 0.6249145937703366
Ni 8.905537133551135 3.878786838258368 1.8937257299917865 0.14726121911423026 0.6710581822059346 -1.4691355454476118
Ni 6.380641912407631 5.698502029507995 5.534602055155021 -0.9974592143105468 -0.6393413107186279 0.38353094434838464
Ni 2.0757857948480662 3.229244564279665 2.5638553429229898 0.8456036909574146 -0.48635193087136885 -2.0604437640174127
Ni 6.950456514497385 3.032034050942267 2.683778212616908 -1.8421573627345562 -0.4735473229075329 -0.3657085714549831
Ni 5.233600426390038 5.188642928788359 3.2319675737283116 0.46104250557230275 -1.85198154791383 -0.2560525642880364
Ni 5.863124062350368 3.197824522300989 4.9941481221588795 -0.5063260600004506 1.6105534184071877 -0.6316663106718734
Ni 7.0171031520587785 4.370252160771429 11.62749316184713 1.3128011603875198 -0.7388967391164629 -1.7076747834422332
Ni 4.289164353422044 0.1322343777173462 7.545431796920035 1.5935255163906232 -0.003931216733606133 0.5193474119607829
Ni 4.508456529033242 2.6308214753911976 8.523330853585133 0.6656130999309634 1.7612213492101216 -0.34138233600479273
Ni 2.212410945427627 6.381381314906258 9.849975945046902 -0.5052495391068202 0.2721906075004796 -0.6642223902310238
Ni 2.9440268967538836 4.793701581836752 8.109238981919097 -0.062001895624093216 -0.3286286358835502 -0.4261719189473627
Ni 7.81081978484376 8.75201526661407 9.96204289140356 -1.8654644128916131 2.0146521596045948 -1.2110885764373658
P 7.972091685377542 3.1489691868361795 4.613911756504033 0.9923638020655103 1.2799576314949377 0.6231963255276494
Ni 7.4872718569262116 6.378177237412209 7.536988002954238 0.8222423905236548 2.0395905747174874 -0.6031466059656257
P 7.655600030687627 7.571956264083731 11.576590320450938 0.15045735745402478 -1.3230338938591215 1.8760007936465628
Ni 2.7551232509936483 3.0735775172539923 13.288134577521856 -0.22644425450330036 0.5459809553879112 -0.3753350388011536
P 0.7183934263971123 5.385515690367125 8.06617928406389 0.48775652452837925 -0.19676138272688695 0.13283964437226153
P 8.07202969222895 2.6419216412965056 10.530139523737246 0.5468116788193228 -0.47349384396177807 -0.296446908944683
P 0.6952994216900079 0.7710836135862807 6.75101044965488 2.6790545270569086 1.295291947859163 0.7899717034154073
Ni 0.8688052386269914 8.300404651619573 10.888264103312792 0.8575930021088068 0.5079931632902284 0.20322410763309517
Ni 6.43508384452873 7.4464769215390225 3.770097409488029 -0.3555378015695683 0.42742198930438 -0.6593987435901354
Ni 2.5950380458280335 1.642249463153332 7.788309999394831 -2.2175751910575032 0.8534512120262916 0.4720185449678322
Ni 1.9378187656598866 1.6465945938860018 11.347967980718181 -0.5393482805627421 0.10636370956892005 -0.23270566203197987
Ni 4.19344367934058 6.7042080971769975 4.588553902171503 -0.941344887815482 0.6067646623341874 0.06417756311917334
Ni 9.043732373387039 9.12688320499185 4.985183095073679 -0.4010481272965416 1.1424156965510002 -0.8396348749684895
Ni 1.0707187169926908 7.526998766482051 6.910386376127368 -1.6231171140048113 -1.1712017675447572 -1.0415739452415742
Ni 3.9227675942877873 3.142889655180805 10.903094144044505 -0.5120624482635955 0.7324350426515192 -0.4046039629686
Ni 4.157066902093333 6.329951763335117 11.385096027417736 -0.7156915046445933 -1.1917495097891218 -0.6069628943879224
Ni 4.047790515537048 2.1188993504161338 5.9097210252452985 -1.2069069342558505 1.3397897731612216 1.0076315268578582
Ni 0.24877151424162675 6.188579831282893 2.289180094479478 -0.3764205585558485 0.8065054394043722 0.6236573243244679
Ni 5.478680405194077 5.532875869815634 8.070440433278199 -1.7396055707125588 -0.6066556475601487 -0.7193830945635674
Ni 0.20662922319027371 5.547864745158164 10.968158825395875 -1.5109445110635977 0.7605747383105288 -0.02061921891224836
Ni 6.4477267144126555 6.442340943126362 10.11785142903082 0.3316530245321707 0.9719489858545841 -0.0018653353435129165
Ni 0.7681260035917743 1.7668342199589608 0.7024579332878226 -0.37481233352846416 1.46948033038154 -0.6362685853305753
Ni 6.6728793394574115 8.138959310993522 5.935960685520635 -0.5346326202546277 -0.019484848197489024 -0.029416762599220304
Ni 8.750143939302731 4.8663182099426106 6.267404701849443 -0.2386755064621696 -2.0995044774643 -0.16215459128629492
Ni 0.7020380256960099 4.405223160428695 4.078948571692137 -0.31922456896083085 0.5872775001438532 0.24808240159836628
Ni 4.60831238005147 0.10997927535127618 5.163557101547917 2.7110480492443694 -1.5705457676659984 -1.9036288397764762
Ni 8.826083314439456 2.3554533794211947 7.756993108628926 -1.0465060924358687 1.6795947373765654 -1.042863353476959
Ni 3.926665432150918 0.781481803539189 9.836668525756805 -0.36838920361093974 -0.37248291406433914 0.5674355257172614
Ni 6.628086153522093 3.5634271083811653 7.156657614512528 0.12437454432404388 0.6309456304557649 0.23332658344543042
Ni 3.6435473025841993 5.420523203728026 0.567531582769921 -0.3115724517322118 0.255563797577076 -1.9024358479096395
Ni 8.689038256268082 6.908173645687034 5.210759279080611 -1.7486859357472722 -1.1867780247164594 -0.7739573302650219
Ni 7.880542701936477 0.6745550738118726 1.42796970620875 0.26216973292936785 -0.40133763351250235 0.7429554825668689
P 2.200799587671417 4.675981401314668 11.106251826861598 0.9247162781198656 -1.3226942511315156 0.8045285181836597
Ni 5.18499155842477 3.816950881151002 12.818356569283328 -0.2112814307199329 -0.5283637565267802 0.9202384448541701
P 4.299068695533277 4.759077462364026 6.220483679834744 -0.10519925694717365 0.31794930179283304 -0.18085808123306915
Ni 2.6041756001629124 0.022593766967292803 5.878951840033932 -2.61857446739398 0.25758494177216285 0.3845804686588215
P 3.7181721843900326 8.537853266363713 3.188038849726573 -0.1897715816726151 0.06642779260593076 -0.06803241808888928
P 5.501337158300141 4.5104373974554886 9.94284398603181 -0.732786512453667 -1.0046778435461727 0.5244345966757032
P 5.569645169376967 1.702816569059351 0.5615606793828634 -0.47532035564755554 1.2170450511311168 -0.5301987528529901
Ni 5.436561848050087 8.501960295689642 11.14033371783533 -0.9992808409003177 -0.710302472418538 -2.0915317436714687
