# total energy = -340858.64880369144 ev
CRYSTAL
PRIMVEC
9.38778437540077 0.00000000000000 0.00000000000000

0.00000000000000 9.38778437540077 0.00000000000000

0.00000000000000 0.00000000000000 13.73997136518440

PRIMCOORD
 96 1
Ni 7.247838734184822 2.4496953286598773 6.834028026262735 -0.0628704142719756 -0.4568130408719875 0.6238619841361063
Ni 7.170417678500835 3.9381191139927822 13.412465180699757 -0.8237858237513748 0.44392898582046775 0.3016968444897127
Ni 5.902597432335871 1.4435783405648188 8.572065481268572 -0.13111391993040644 0.2507020986094005 -0.5804735898481422
Ni 8.097677279940687 4.463177880138702 5.9771617853104315 -1.4865838228310462 0.00442024055488271 0.49037596442909737
Ni 8.699105669948525 3.124799048485579 4.153841005415401 -0.6487998850283665 -0.7301709292076909 -1.0750599928141615
Ni 7.325381831062441 6.651320155274684 4.7205186349254316 -0.33998596987789836 0.04503492875245147 -0.13141036812490273
Ni 8.708540392994772 3.3896659898058186 1.1906827015615704 0.8692910072720255 0.5063630838859731 1.089769016889562
Ni 0.4956167975711504 0.9374744493469385 2.991356391031956 -0.16345711214780234 1.0800301923352433 -0.4339885867783042
Ni 3.8649695000859525 6.387307502309876 12.708264023976698 -0.7601283948017297 0.9025991345058519 -0.2630125405456374
Ni 2.922661280692732 0.2967713256711582 8.806592981851633 -0.9411026898976889 0.73217664678381 1.1240945296443092
Ni 1.6345540330323038 9.0323250674874 12.381774728877478 -0.470406463285706 0.9842961945660273 -0.04814827757045257
Ni 4.197081139098007 3.24104797931313 11.777024002067582 0.4353116764651019 0.27730144636448373 -0.15882964067812
Ni 5.144655905385699 7.512790165562191 6.0721333034172655 0.7506952744132878 -1.810854953076849 1.0589615445904021
Ni 0.2818240957863462 1.4530412269634438 13.586825434043307 -0.5425482755572785 -0.1710099847943958 -0.03525213833407477
Ni 4.319563558584969 1.4390534286162702 1.5090196449261024 0.982625491731824 -0.8806678816503996 -1.3215449680184208
Ni 5.995470780690629 3.0360375495778436 2.331329452511999 0.551940772515772 0.2279810028628009 -0.3299815503670188
Ni 2.4651100701941453 2.4071686665708194 2.378141638054403 -0.8350662817612006 1.0721495040355857 0.8370673713516293
Ni 8.46757475005836 8.523413290037547 6.237218426044703 -0.9007499971122551 0.607412066110199 -1.459484395511093
Ni 8.93986478163417 6.393203030740765 10.19378078073068 -0.3500916908533326 -3.775013474807266 -0.8427762488109486
Ni 1.6331364776293353 8.639474465182586 6.959762374170812 -0.17099507239606035 -1.2176721431921544 -1.3175980675555308
Ni 5.254305223972939 6.3880021983351725 2.9703071014654907 -0.897856220504228 -1.4637678533777951 1.5140414048213666
Ni 1.5465998835593715 4.632336362298247 9.30017450782435 -0.3699593763115371 0.12909226151468736 0.11925033572360108
Ni 6.993523662221779 6.125829551058986 12.587640385746607 0.2113289961284167 0.5520035074329074 -0.154396801717747
Ni 5.051397657881791 0.41318735905614506 11.825058477103141 -1.0039728470593483 2.4612640915738644 -1.9025392062567235
P 1.729558408383577 1.5216283777852226 6.845047407269388 1.3973385181099676 0.8725267406005038 0.8028573011288237
P 7.586352841970549 0.39705726837150507 7.702146465268007 0.47081963956372463 1.186541483225621 1.0733772057950997
P 6.374558891467285 4.610096701704653 4.322333893680439 0.4134989514653847 -0.7782425879039371 0.20906308291237544
P 3.770556555134593 8.902135277233304 6.9542526836674865 -0.3841768054624996 -1.7970242178413438 0.40727328227064696
P 7.034585829987241 5.2701424157928605 10.39158139225749 -0.05804008276286779 -1.0219199184560723 0.8477706167017464
P 3.35129811608441 5.76279455113714 9.302537413088768 -0.07956227310535975 0.7955741372038492 0.6567823890132108
P 2.2533592114566634 0.6671184706484495 0.9894658753914466 -1.0992841554688486 -1.956607705966353 1.578591006567978
P 3.385704344904807 1.666359845649904 10.658177563413668 -0.11143032545855001 -1.6039747367484052 -0.44182762320674873
Ni 7.146262909945615 0.5090985943539531 10.328899157650726 0.5661273484287992 0.6382866442018684 -0.8667139905734687
Ni 3.3584891587246344 2.8429871568185967 8.763381011521405 -0.7534800362472766 -0.010815859668581373 0.21143286869613265
Ni 4.771012709401903 4.5916966448184375 5.6503429789884025 0.03161814112591329 1.41664981684407 1.6749135298508122
Ni -0.10251929654383181 6.2725606169424255 2.5683850833600896 1.5026761004072184 2.1713367289152536 -2.4338923844291305
Ni 1.5497541790255798 2.8866685163551056 10.680890368327193 -0.22706491880643473 -1.4875449011927349 1.1429635986346702
Ni 1.749122550501369 7.112664030560021 0.08848268171920497 0.5514980285513985 1.5002152975715517 1.44563489122251
Ni 8.777221421657806 8.99923312844459 0.6732890611542195 0.21378182854428346 -2.6476824405035306 2.5529907679559
Ni 3.0423930794308878 7.6829625284073035 10.738625240699754 1.321813134078143 0.25483514694116755 -0.7616456027772045
Ni 2.367336298525814 4.505009846202464 6.831870713470669 -0.4608136773909483 -0.34837393683127743 0.7005739322768644
Ni 1.0526240706533794 5.064916067022684 0.5482719399533397 -1.048288124036956 -1.0564989419825224 0.7854378201007957
Ni 7.700151561141314 4.897419222653375 2.7832235842964876 -1.327345633860598 -1.9083226457077198 0.10886487872421896
Ni 5.312011932993125 5.415718784228848 0.4847889273606604 -0.4615544122117148 -1.2319453652817172 1.0419549827300767
Ni 1.4174333617749677 8.262292074583431 2.4543986085068132 1.2316383755642595 -0.03366525346292912 -1.3696377097605896
Ni 0.0720662636187335 5.519660330067711 4.619089260118584 1.7792015878376264 -1.3946046641185723 -0.5080636115168475
Ni 2.50054895526836 0.816164564097266 4.7316337713301655 1.2317985552912076 -0.03812560322712789 -0.08149959933738866
Ni 8.466298011417276 8.446433460207466 3.1019491819238203 -1.8052167809544652 -0.632715320761678 -0.7388175491390954
Ni 8.723044519468854 2.735393762954867 9.338454136374978 -0.30208790928054424 0.16591585810094006 -0.8532031005712275
Ni 6.113259308114781 6.843516259678499 9.220867446309525 -1.2849897946022064 -0.40329424301824085 -3.3658103225037586
Ni 0.1739809868648754 3.477939323939022 12.647725959264223 -0.1622692624872883 0.9400189699152068 -1.053746833158682
Ni 1.0185558020615049 6.981141174960087 11.667323989446063 0.7511197635452161 -2.4046831098550263 2.5185246158582304
Ni 2.449113286044089 1.7845426600073329 13.049317527368403 2.1410781871410287 1.7664769411821062 -1.7089209971445083
Ni 5.247480304913615 8.535204346899327 2.1875132935995656 -0.8669518176158876 0.3790453977732053 -0.013844619192576155
Ni 1.3414674126304516 6.9529402714467246 8.942192952097324 2.2426886982956793 -0.5021163927944772 -2.5188166931773526
Ni 5.739353254175468 3.494198966044596 9.540101861836467 0.8752299984642797 0.357906558912061 1.5086904249220985
P 3.527854172134943 6.509470737136567 1.48191054070655 -0.016172238884488276 0.7661344917864934 -0.4950844256483602
P 7.867845548977261 0.7279982507030944 4.192340308114569 0.47718466254980396 -0.022504608860419308 0.9762861797773573
P 1.7950382026597755 4.873808945577441 11.75902480356353 0.10341105469849933 -0.6187742852005537 0.8637783049839124
P 5.428993110982475 7.925317563394305 12.35134047152063 1.5771601876587225 -2.9004051690873855 0.07424291777497537
P 0.7352390485991851 8.354085827763743 10.219103389631126 -0.3928049134511429 3.956539528641637 0.0801094038580814
P 2.0706541568038492 6.202171011568527 5.497114627711622 -0.05799303157501626 0.6057832722575245 0.3836846963174295
P 7.2317480721935095 6.772751142939577 6.957165713081666 -0.894199340477931 -0.5621601362509351 0.1898605418419956
P 4.987570113611702 3.1614677332802508 7.428556394938242 0.9835868272038286 -0.4280909903469466 -1.2321160865316265
Ni 4.802386683949725 1.1407565880246986 6.324123960030804 0.3369207006890133 1.3164719243708876 -0.5078905762740931
Ni 2.1621756642445176 5.937088151213398 3.3605770019141725 -0.12664071465040125 -1.4912292920228574 -1.8626313143181923
Ni 5.059762173537719 5.209412840284226 8.105333017895129 -0.2834972907625504 -0.11661495498328303 -1.1710508437891898
Ni 3.8480527130915854 8.687784002293027 13.592074144147942 -1.5017060231844654 0.22385001141356287 1.3575972336562878
Ni 3.389159049463035 7.557184996692248 4.176182054077552 0.9369824970817283 1.8305292915773248 0.8627267237909464
Ni 6.656464660975524 2.1368192593212183 12.06416158366903 1.325068664900963 -0.47618836007480575 -1.0622669548145511
Ni 0.566079627661228 0.6164873345237438 8.477616862737536 -1.8124582930082271 0.5619418495925419 1.0265201362322451
Ni 5.025149413466559 8.855093090979823 8.853653004894953 0.22203121303726922 -1.381811369008646 0.28430204605203296
Ni 4.884867755277421 5.4241771777260315 10.835492152421551 0.05404407422959724 0.2879039044706783 -0.22362838232106003
Ni 3.823616311012597 3.041322872040567 4.45859288637175 -0.26490718646518896 -1.6444264170055485 -1.1178169241657137
Ni 3.331902954080879 6.636036842718174 7.305735076444345 -0.3975984781850443 1.3404729152711754 -0.2521126058036819
Ni 5.9547090220171865 8.789641460056002 4.505473602738269 1.1141441032998167 1.0705127397631111 -1.0893057040998981
Ni 7.297969501415633 7.595036542286747 10.687746267074134 -0.48328177658647736 2.8385133166785956 3.417143425560096
Ni 6.9367463438300305 6.6293433526366075 1.5411305605277852 1.4130937240616952 2.1122689762188203 -1.3457557609366693
Ni 8.47248456115606 7.8828002890893725 8.469702960719639 -0.5898763712192809 0.8963143299384048 0.8038800859663834
Ni 1.4485069272307693 3.103347961758538 5.121890528881072 0.8532527228622402 0.4975262023206335 -0.3590807817258203
Ni 8.194146149615555 9.046369192539329 12.343343957002427 0.2777871277516506 0.8350703955262585 -1.7276525121157407
Ni 3.1620873270325416 4.36705635847648 13.606926557413086 0.06356975433184535 -0.9539047267583636 0.2781388546641146
Ni 0.2565850381646172 1.1892351052494 5.403435807478887 -1.9729061860160602 -1.1512898591121785 -0.06231634154071848
Ni 6.2442658355878065 9.356719947948196 0.20919362634166297 0.7431642561435653 0.5346670730369889 -0.032451949881118304
Ni 0.06542628390668258 6.305906026156626 6.822843420255472 0.9750553926940498 0.018462063359929493 0.8199870188305748
Ni 0.6144201444592825 7.793353481940467 4.654896146330524 1.5885974829613867 0.14422937426644192 0.6940250754147532
Ni 7.721949995881002 4.823922260733896 8.336081935367629 -1.508015767452577 1.1315090769408254 0.5731006944228387
Ni 6.2638956921944775 1.974204062697231 4.688105432674903 0.05226898460704547 1.750651029893443 -0.9297353286010116
P 8.763186684390005 6.496252737087695 0.3592686209306474 0.1750818408709243 0.6909700906385132 -0.39064955767103693
P 8.844672650600385 1.8155317354060039 11.251305274697632 -0.020342568212093997 -0.4486955539711756 1.2750193136530557
P 8.072311487233263 1.4608518633559595 1.5320751039602123 -0.5692378690333229 -1.026220088493323 0.024343718951687108
P 4.650360907819437 0.9367018347134001 3.636379772962346 -1.0564552332287807 -0.2720047167419187 -0.04379719969060845
P 4.12004498256317 4.1856468180330015 2.534447304967561 -0.3473069290193438 -0.2415304594124614 -0.25800891668345893
P 1.063129001089948 4.112825776570568 2.6266156307344843 -1.3425717067817329 -0.23429897466102872 0.48544638833796394
P 0.17844769455184534 4.197700732850298 7.680973256951084 1.240760649580502 -1.0685638435668563 -0.9124919681395318
P 5.24795908190402 2.503815904144076 13.550771649108865 -0.06628483927016326 0.6704357181305872 0.9497714213162805
