# total energy = -340894.51633053704 ev
CRYSTAL
PRIMVEC
9.06324710947891 0.00000000000000 0.00000000000000
0.00000000000000 9.06324710947891 0.00000000000000
0.00000000000000 0.00000000000000 13.26497827178516
PRIMCOORD
 96 1
Ni 6.467950077191454 2.0348168078858215 11.447424041755198 0.2974336983379845 0.34920157493889536 0.24570156007101557
Ni 4.773403820388488 0.21828377603758384 5.937589699312133 -1.0095817086056935 -0.7678213925706131 -0.511223754412384
Ni 2.6618666253591456 1.55119287659634 4.893941382214122 0.6874373948949064 0.174559392708551 -0.07608742718288186
Ni 3.32341116149381 4.080092602985302 4.781401229675605 -0.4412270135082723 0.8318133220415417 0.7779194002365634
Ni 5.311352855108362 4.710314556961902 2.6802151692188096 -1.2335026824665078 -1.0713185234938583 -0.8158755677653625
Ni 7.067556382287864 6.053333709718958 2.7574702879443125 2.707917474035188 1.3712143102190901 -1.1968019846113647
Ni 4.813227728375332 4.492615360365637 11.427076145573754 1.8407118885372815 0.686724685098598 -0.2670139483955466
Ni 5.3639559415798335 7.97756077585342 12.760272551067237 0.5937016585026419 0.2938084428805714 -0.7762517827261535
Ni 1.9155082223740296 6.654598589044222 0.3631670323635034 0.29085373112762164 -0.617413143186969 -0.4856659605479378
Ni 2.8690705817531432 1.645251255542054 0.3840315336326234 -0.540847490816088 -0.5785560611104552 1.2186710167703139
Ni 0.5721836381879448 9.41644189373948 4.663753937366815 0.26496117963157595 -1.2333589577997919 0.5568677775037442
Ni 8.971708355980164 2.2139609510965537 1.449596594994127 -1.1674759819537377 1.1351315041847614 -0.7493158775672579
Ni 7.1717474715497564 0.6516084982816882 4.818185324567596 -2.1416397160714533 -0.186064308024357 0.3567032826325792
Ni 1.0791427119202406 7.538745538484503 2.5430157338285406 -0.9682604812594033 -0.4457125600834518 0.8914037800106649
Ni 7.660492137480241 3.9227274426813485 3.7852144189396126 0.9340308706525721 -0.45577714340830533 0.28000984643458227
Ni 7.823503700760026 4.127420879614181 12.399677668245532 -0.03163408196551326 -0.23576501768359395 0.6348549928125002
Ni 8.017031217201328 8.735347933497483 7.055151515910624 -0.3883954715295376 0.7205292923528688 0.5517515393231014
Ni 7.020735647499508 0.8602535109728887 0.4213684866008989 -1.1756896281127815 -0.47956858940094826 0.27213944254757
Ni 1.7676050920969912 6.388474462913658 9.265004097073078 0.33565443238208 0.421097589748249 -0.08614275453635487
Ni 0.3056634481568286 4.867253744649701 1.239101773559159 -0.11695485482120503 -0.5910459660473498 0.8387437306127878
Ni 5.933952618229947 1.9422719912145279 6.9568180032832085 1.2775197114774064 0.7156704215986707 0.11962700233672945
Ni 3.6637360920595796 4.49385702522549 0.4595238507870196 -0.16521137583474774 -0.9833564563605774 0.4892148542414607
Ni 6.022844946298897 5.5977152121298275 4.830521310266479 0.03583037943504797 0.7349282413870182 1.0812643218526605
Ni 5.181539966147151 2.692246629813379 9.318766372855317 0.14944665680132327 0.21665040834133015 0.20639170672779938
P 0.35784328098629076 5.71502082002098 12.312354188258631 -0.17978515988386456 -0.5188473323959129 -0.10212935977259831
P 3.9300052301445794 6.2345623997747 12.538654406402351 0.4503973671536307 0.6534101301068682 0.47837276932063416
P 2.4766772962978845 8.587934218566664 1.3615308350654594 1.6106354365980324 0.5662461333948505 0.07215106824295316
P 6.458605869377518 7.849986508938805 5.859021316074274 -0.1175022426842428 -1.2897190817570756 -0.4731387746152044
P 4.82437552237256 1.229882638555923 12.752896880534761 1.2669812738399275 -1.2904528745993067 1.0336937711625487
P 4.026265978148282 6.131141686520745 8.121721691381307 -1.3048605653842043 -0.935316422233215 0.026407800569567423
P 4.918107624420794 1.1556727708735657 3.8860421371833174 -0.11347023870671426 -0.4028011054319063 -0.5840024289370072
P 0.3449172778977981 5.633986327233003 3.4801065478332145 -0.6350074592299644 -0.1826516827983822 0.24031587027907
Ni 1.6003066129142072 1.1861887240350821 2.5178516281104084 0.9206269385418403 -0.795359707200198 0.66003200629876
Ni 1.9126261097796242 6.524314411231095 4.80310317498159 0.7470566492194359 -0.8676611849780864 -1.3030453665523367
Ni 5.825347727604925 5.673248313896409 9.138561829727774 0.8876417418650714 -1.1781229201446226 2.0278280348649202
Ni 8.708131002299373 2.590312289092388 10.25491642180559 -0.08080874391795116 -1.093908235868916 0.7080285887826967
Ni 2.112651974429066 5.148051267919707 7.039220140066456 0.611970889125475 0.10201700256445012 0.016030056879669168
Ni 0.4656542311607796 8.910884904341632 9.130324244391124 0.4306425531242067 0.4884283537844234 0.0736137688314087
Ni 1.4110660123759045 1.0274368869168395 11.365419781521934 0.21844426701695926 0.6495845857131909 -0.20630583188221244
Ni 4.231729791089054 6.984256077711832 1.5428365627219955 -0.4141574109849899 -0.12216570959818315 0.5246037752637159
Ni 5.755977633901852 7.794238475705516 8.077125077444107 -1.3693556597437966 1.7534944128795091 -0.38130822566545297
Ni 5.456872351384367 3.121536394425316 4.642716328077088 0.1370212865537769 -0.8636165825950676 0.1885233110878108
Ni 0.7162330757758603 7.296611827565858 6.627859290971036 -0.629930044707057 -0.09885531700701684 1.229494075527747
Ni 5.077086042717843 4.309456198666472 7.2528254679240645 -0.6198173817530874 0.035762759421906154 -0.4485698270265888
Ni 8.02034836565904 7.1960551004120035 9.33140778998323 -0.4610314498287092 0.23798130860862243 -0.3130531500427964
Ni 4.642575847746228 0.4523919816029396 10.609462493477903 -0.526713365407551 -0.5371214481147524 -0.13927408714369563
Ni 8.323414287182043 7.418947537626491 4.54535077024553 -0.31008506855340795 -0.8872758738852203 0.1788755035854016
Ni 7.073130279286477 6.071741164685111 7.206239471236951 0.9101656339992001 -0.6627121242340844 -1.5919900535827032
Ni 2.4779461508991947 5.271882413760455 2.5160344470563887 -0.24479961708203646 0.08104837073258299 0.5754799932882928
Ni 2.356553018542393 5.103306016729208 11.467321494553177 -0.8912680257637489 0.133194456608519 0.14329812070142417
Ni 1.1097039813175182 3.3141938391400045 3.717271786663013 -0.4448111313151049 0.5647266114265306 0.08918514090710447
Ni 3.8754716720296862 2.877290946920205 2.7460496902078035 -0.38835767631306667 -1.2146984052758112 -0.559018762408476
Ni 0.9111463627067359 3.226479733200843 8.188935638586868 1.101396059605529 0.7805192997532558 0.09099853996675941
Ni 3.3998596512227652 2.3824557789034304 7.11699277020435 0.34237555315599744 1.2063670025919804 -0.8353267345114388
Ni 4.073838962450272 6.730249513023782 6.03458366401045 0.2682488492439122 0.6039626741090179 -0.29386012205411327
Ni 0.5245671502996241 7.656259601060156 11.28779306966319 0.4822777608019952 -0.5902584371490479 0.10605877673399153
P 0.013800606438681681 5.760527383972265 8.041694125351942 0.640821237698264 -0.9619389099167498 -0.3002860801851151
P 8.561632675330928 1.5808750110198526 8.12865960707633 -1.5619302580828454 -0.5309747117870662 0.9888583600154129
P 1.8029426927434873 3.1978761251884444 10.464900982425888 -0.157452043604303 -0.4764639823336956 -0.39506517024022925
P 4.034495406562495 6.0307299713213265 3.899465712540467 -0.28266271067639703 0.6612082859950483 -0.509815818321264
P 6.865391591310499 3.973164413083439 10.411681595148066 -0.674449981496303 0.552764553968648 -0.40960013063161066
P 6.084955379033044 7.839998810577062 10.392394098883432 -0.2688972814611885 -0.6639557668331985 -0.7741661038417184
P 2.256458516993302 8.44916684141906 5.723201306900571 1.8391358022994133 1.0331450977479306 0.03090645977086935
P 7.254150514657718 4.138333029185452 1.5726954304649763 -0.29337726888042376 -0.4520876103718601 -0.7919180285085006
Ni 5.756195151833504 3.1289229408543733 0.3221096164392426 -0.7267590753126645 -0.06843402440268215 0.08506289120861478
Ni 1.2013696630150468 0.9460489274899258 7.0506806160904345 1.4174707700834683 -0.027387905094649605 -0.8467264917079481
Ni 6.853835951191421 0.6620393894291754 9.40671340424629 0.2902469507815582 0.36896821604286134 -1.1334206921412415
Ni 2.7602572364436195 1.491901113726533 9.140074485677479 -1.2219867114071084 -0.6920170438457889 1.5367907827027405
Ni 6.58200197935496 2.02741213496246 2.4343890914103525 -0.23135017644534994 0.507080678778288 1.2463029195549697
Ni 4.032293037504506 6.802383897108283 10.364498330473621 -0.19365883254216323 1.0612912211648433 0.27063791830137907
Ni 8.285810874747492 6.865219389614607 0.5295102452964436 -0.13946589143952753 0.8954625234610708 -0.12302908603974294
Ni 7.4894867902122 3.5313854938957463 8.26596508245828 -0.572641238287917 0.7349655223828568 -0.22570789055790808
Ni 3.052628526327006 8.512328610822864 12.413207283594362 -0.19414271415711726 -0.17379988883470715 -0.4366237104083061
Ni 9.045854780932457 5.009102625829059 10.13522627358869 -0.0745157118203878 -0.3312686446095585 0.5290301864661857
Ni 8.483154018239876 2.4432882937891147 6.066154579140484 0.05376253843343644 0.452137489773189 -0.6138853325393686
Ni 3.642274322803128 2.5458298720693042 11.68899311237626 -1.0235335428000953 0.8843934101311027 -1.8702291812701082
Ni 1.0523789430797421 3.269847370824204 12.752592355430448 0.630165814866947 -0.41756669377685507 -0.863793474492564
Ni 2.987699423728519 8.083084162446688 7.922495205130692 0.18416554833974733 0.9062827540050263 -0.07725187980462823
Ni 5.65036361483706 7.721986269408037 3.7077472202307478 -0.3980255384201339 1.1388495764662967 0.03650863644899519
Ni 3.285563041386149 8.654639717606985 3.5668862329909823 -0.1254114702289905 -0.6809697848926918 0.2394051855393425
Ni 3.397430700985971 4.311141962636785 9.36433184791309 -0.16773774180102724 0.09751731492188367 -0.8129650789867869
Ni 7.1426725746854425 6.21674405587344 11.32431161141362 -0.11204944709978766 -0.447196600828146 1.0292635033053372
Ni 0.6192898652615955 -0.14388720546389078 0.2825267908266476 -0.3847725300649696 0.18729046712197422 0.041682981561083056
Ni 4.900533988192644 0.36239846900499534 1.6836304819328345 -0.6436227117028013 0.12875133323550084 -0.0668831349757945
Ni 6.0425846985964276 5.685374938586076 0.3814793232345589 -0.2040679436906292 -0.11299998393851506 -0.47094253829483407
Ni 7.511773314959503 8.793307399035914 11.645523060060079 0.8551869637704756 -0.6584335514633887 0.026077670923658314
Ni -0.045913503748418946 5.035757635703731 5.7139422936098665 -0.2814686903682959 -0.47909113554389754 0.027591536465023447
Ni 8.090153495225419 8.873653085040322 2.403056539680421 -0.08741185105676558 0.09012410778160608 0.43227083275624906
P 8.487803464028964 1.729276619890263 3.6166833381441266 0.46711545123926 1.523683813007137 -1.4920553874685787
P 2.0445144823386943 3.2735361124151567 1.611230544706775 -0.6443158811150839 0.0862103745494967 -0.5955078584734453
P 4.576305384569213 0.8147288205272999 8.251652402555498 0.9518676417236768 -0.19022615271153043 -0.43308175869331866
P 8.600640891074073 1.4497660777158734 12.47193168719244 0.7728970073213076 1.707500462647898 -0.7075966434516008
P 6.46809508914589 7.758067056321015 1.3855139996796575 -0.38278223910781817 0.031223476790655905 0.6591745433944711
P 1.5904276735182898 3.2487300049595373 5.949355606765142 0.3402520790550914 -0.08654384662951546 0.38258529260566365
P 6.863687700845882 4.01677675837991 5.998940631934924 0.8222976692416225 -0.25296929737702234 1.2856474827908635
P 2.351858256517544 8.4060076584802 10.170617347393385 0.0939041436493286 0.324705389569744 0.31390032853444005
