# total energy = -381166.39463322586 ev
CRYSTAL
PRIMVEC
9.25213608949624 0.00000000000000 0.00000000000000

0.00000000000000 9.25213608949624 0.00000000000000

0.00000000000000 0.00000000000000 13.54143638722548

PRIMCOORD
 96 1
Ni 0.6301583499710492 0.7712534224214196 13.153459987103586 2.233399302573954 0.5685179601481628 0.6385252425752359
Ni 3.1332080655803654 1.7860323138242291 8.019983625331118 2.227579353458067 0.06991935069895701 -0.3186010764442191
Ni 4.763064325439857 8.024997357774453 8.515735271892739 -0.19424992915894287 -0.6680183669383464 0.5471153261026707
Ni 4.759659539429252 6.122101315417723 6.767928157532687 2.6295816171377617 -1.1081919994814398 1.8343898029739958
Ni 6.903712503977385 7.268320675460939 9.96319307422429 -1.4270900383407874 -0.3052099998492937 1.2288646694738643
Ni 6.414219002137431 4.70822691597013 13.282984338399435 0.6086726779901775 -0.46951814714348167 -0.3702709940146849
Ni 3.8787266720004276 0.04949337577482041 3.6474260501815734 -3.3672668524446268 0.9065609473670773 -0.38239605941299304
Ni 8.351569998579746 0.07372379447910073 6.91857698551173 0.48906084516209963 -0.715247218018323 -1.17474269081848
Ni 1.0334728319854964 5.672095929592076 5.27593334862708 -1.1838955609623416 0.3646644464611849 -0.903403118464386
Ni 6.257802392639335 6.466854403263342 4.919508691345648 -0.5284300909883416 -2.420157808451858 0.16385743291001456
Ni 5.399463241074367 3.791571551837641 1.7228087683762057 0.7595450114944339 -2.120797325404806 -0.27700242706682615
Ni 2.5992117900691802 6.151467594759196 9.710604212916842 1.3419983507767663 -0.19030122892384 0.9154307390528814
Ni 8.359841408072901 4.037576593239798 5.481438090347647 0.11161878732027229 0.998302021926816 0.4558879579545568
Ni 0.1544903148040521 6.977229975825952 9.888552393077658 -0.30778573099626994 -1.382585013949877 -0.16906623080446367
Ni 7.170682885325282 0.9459106178431813 1.4422035143548584 0.19743424042419547 0.028325072196938313 -0.9708521532459795
Ni 5.272782996353681 6.67820094359015 0.6108445162831706 -0.1272706349249163 -0.721553619852325 -0.8589559438946045
Ni 8.68943024518107 6.047501343669046 12.252020685669581 0.1546693386528433 -0.5866007857918026 0.06792417464579914
Ni 4.349845431946188 1.843330791442927 1.2461831371437255 1.085678905980588 0.882250652756487 -2.867452368310449
Ni 7.900158288097544 3.6250238535308137 11.323579025616139 -0.9296419975562571 -0.909587650008543 1.660874535259243
Ni 2.768174295845486 0.49097106794292583 1.3692152646796791 -1.943761446131304 -2.0050614305923657 -1.0802081126740042
Ni 5.64853073945889 4.756902402931532 11.031151392343837 -0.8063023222546307 -0.48594029725524707 -0.6955417691695956
Ni 4.66005104434724 6.652045155405416 2.951193571692208 0.20466495384467978 0.5279325825266327 -0.15503674929459108
Ni 3.5073829455828496 6.0733518113691325 4.824353249271529 0.21378439964744472 1.7953584001031464 2.0918055661581456
Ni 0.6568294821253235 5.62928629679025 8.046673261757189 -3.035035843921799 -2.243949567285974 2.3627260486969504
P 6.819888152738017 4.968637532966072 6.846008782806337 -0.8330150556591266 -1.297013815646276 -0.8653775311502322
Ni 1.4167703179837878 8.198058559753742 11.30657082419414 2.099050163535701 0.12970469828770564 -0.4712546702186142
P 2.4838284032804214 4.218317068014748 4.761060312804267 0.1162693987184062 -2.726858791024381 0.41613073266127687
Ni 9.090954438899178 9.10939394574466 9.185900782701994 -0.1644978947074909 0.5298953626799584 0.24654411057696893
P 4.37664886964381 0.7857950044129112 9.31212027105494 0.11004707195777821 -0.5518397281615335 1.794834923499509
P 6.9614828405269 8.884576295549804 8.591702709327198 0.23709479223861102 1.1829249695189563 -0.9733690061305623
P 6.5137072194527645 2.404593111446653 13.334414186217789 -0.065764447990319 0.20995345593712872 0.41415509699214476
Ni 1.3710925230534614 4.4852319365472555 1.0914596685150342 -0.7834120479200186 0.9662506499182262 -0.4539812278501471
Ni 0.6261281195737127 2.1323305083648796 11.21721092004677 0.3721872372007913 0.42407955519470836 -0.15093583975234007
Ni 7.8547488051082714 1.8501403634641387 9.863094215939665 0.4656293536120368 -0.02493532978909899 -0.8997881474196181
Ni 6.711906474667966 3.6763547034950537 8.755486794641177 -0.4469729148531141 0.31563170940324997 -1.071364546240445
Ni 4.164275342232282 8.320862159533005 10.987806060873494 0.06537132631695837 0.4887134891250099 -0.5791438152931252
Ni 7.967846914330129 0.9094895848791891 12.33926832719135 -2.898756834850685 3.450038119405588 0.2216110947807151
Ni 4.651400297282249 2.986894788483306 9.57518995190808 -0.21132051148798447 -0.5193656667932282 -0.6030926127992388
Ni 1.0757921015847092 7.841712545627447 13.494718543220385 -0.703718391443117 -1.5723990188246533 0.8325818247764499
Ni 6.026461986636118 3.2651342713554365 5.457916385253183 0.43241121498885526 0.8279134727665032 -0.47314134571836575
Ni 1.1859572837267787 3.517615807886463 6.847782417258058 0.4562540830447239 1.3596024370117745 -1.8027096982618955
Ni 8.663940610781017 0.3795623987361134 3.533868109805566 -0.5664299672708826 -0.23999371105296088 -0.2140199126970185
Ni 8.348886879169214 5.661446721173035 3.4533097625383284 -1.3084922485995207 -0.4983751805844901 1.0439871826687568
Ni 7.692938200381417 2.8422839043915493 3.5972415398551436 -0.08987291100274845 -0.017824429775930593 -1.2283872156168134
Ni 0.6311871874829496 3.883232462182941 3.3030809815290723 0.17725596570410762 -0.4597782941478985 0.9945376697883774
Ni 6.483952350403558 0.15990466473178697 10.640210716879889 -1.7333652462298017 1.343787324356389 -0.7118389636677224
Ni 0.601436019288103 4.65746969843159 10.52753265462782 -0.8871815143992011 -1.392366518816673 -0.914759938238102
Ni 8.151363029874593 7.603044447992708 5.0320655506174505 1.5258093439905722 0.5337209070736357 0.5496861721536405
Ni 5.167863775265995 8.713402529293784 1.7570287182099722 0.1612611329377481 0.9766674743761758 -0.2535809628190923
Ni 3.1082087943829295 4.232417323123887 11.245675116138148 -0.21189695281674475 -2.0792249012796575 -0.2288181540521156
Ni 2.5693458953891937 5.880204222354449 7.222393072861355 2.523932931357995 -0.15298783718536232 -1.4185100099812604
Ni 5.582035638757197 1.6643944831681625 3.023572105611684 0.5415041505634802 -0.016861808752345154 2.4209365955994113
Ni 2.8278875809336625 6.921365579271503 1.2243675259089237 1.700716092736213 0.7313659779570565 -1.046300918403598
Ni 0.739359459552507 6.652859343364473 2.0808044383331836 -1.110490051486997 1.9005208902751138 0.6296271687546576
Ni 8.448375096484547 8.299286178617972 11.487254860940109 -0.2377563370820099 -0.9732188537059432 -0.2507735752772842
Ni 2.556503930762235 3.928873248569674 8.664772377798283 -0.08074780877302867 0.5462583774190141 1.7313150485689923
P 0.3536888006962799 3.50388563821326 8.80898819568718 -0.5600587736372161 -1.4410490716240407 0.3787684899627348
Ni 4.893251129666031 2.536093718970398 11.807441677548336 0.19330916251222838 -0.6321147110632016 1.5944449428810992
P 0.6141549305076128 7.162550257870602 6.783609602666859 -1.3492601745455022 2.5452532901023264 -1.5387959860582272
Ni 4.200830531166801 3.538331340162947 6.958524007466596 0.14400954494615198 0.9668186066065544 -0.7121716644167928
P 7.025933219195049 1.30779866137261 4.986295234328139 -0.030099133378225583 -0.7440885677300476 0.20703602518001762
P 6.06644046585304 6.649981929100076 11.994652170957027 0.5405212178249207 0.9715018710148364 1.025768345667885
P -0.13655875021939223 9.056323694231525 1.435026632538481 -0.2983114729572476 -0.5906410172994473 0.3672358067327869
Ni 2.5444576498225384 2.039189256275838 5.679833490843896 0.8589587721080821 -0.013899640800227674 -1.935530059360447
Ni 3.703269166823455 6.221497011374073 12.019107416563639 1.2277074159409695 1.4050646831096318 1.7480105069468026
Ni 6.123960994733298 2.008666459947066 7.481941390791569 -0.49675898513730576 -2.224616414175001 0.48108039805978436
Ni 1.6763112342052824 1.1090165215958094 3.2175810684785073 -0.4290708377617127 -0.010437907503872346 2.206827722733012
Ni 4.851894082200251 1.1858277538242012 5.65637932634149 -0.5730521005730905 -0.36398773210913443 -0.4372158354663503
Ni 7.432629356880357 7.750819562561713 2.5832324261590798 -0.25753609081209844 -0.49543126746481764 -0.492948353141964
Ni 3.6263099004206896 7.9979533645434735 6.3778941913867815 -0.6466301310705573 1.7555986037067055 -0.6502093637813833
Ni 8.771727993997203 3.2808814066544874 13.545362884700964 -1.0821927472042008 0.9147337129858569 -1.7400465149047193
Ni 3.684302288231766 4.31575131116064 0.3729165895203035 -0.1720836774745488 0.9094297842744401 -0.6354010951239574
Ni 1.2404708684400627 1.2484184531767755 7.410983984946085 -1.8861214270203324 -2.8190089280970807 0.10289786250750665
Ni 7.4291783101902595 7.821746436358732 0.054815204343571435 1.7485481246178276 -1.0275277515611532 1.008249105837199
Ni 5.771288078558661 9.02340459470507 12.822670222755809 -1.0737232762806088 1.4010823014231162 -0.011889038128102106
Ni 5.700722038061679 8.509226394288225 4.231048932224516 2.8665704799261276 0.8064483609141918 0.6281788663439053
Ni 4.4565780716699575 4.201774249028436 3.7642074347045784 0.8918223556053222 -0.27798587402601804 0.892887820755359
Ni 0.3115980588537573 2.1201732017944015 1.6054185933110874 0.5291960226200886 -0.9578135748944665 1.74978122569398
Ni 2.932251673867445 0.7870403419048339 12.26994947461347 -0.4055177330321209 1.001565008948804 -0.8084918737067818
Ni 8.256374772321264 5.531630002382795 1.0969073261320033 -0.6090650283325898 -0.1529623832640656 -0.382573979751754
Ni 0.08876036574115594 1.7715712254150537 5.261849747362558 0.23339985988552706 0.05117549443255058 -0.3210173991951955
Ni 1.3827872228290201 8.599730787646227 5.36112238991146 -0.17132751603481458 0.4830946002763357 -0.472180010246361
Ni 7.51390011861177 6.755724590282718 7.712037384516453 0.7694841249850167 0.6812819168164719 -0.6519374022160837
Ni 2.449169902205072 5.4446599249379775 2.905043917831064 0.15884866684151353 -0.411500175867801 0.03803407195458611
Ni 2.8006122843052235 3.0955148639303456 2.530054849869522 -0.03595096417331228 -0.7195386463048252 -0.6395631969214469
Ni 7.601147760133539 5.2276973381208505 9.836445288911545 2.267836915426533 1.009661927024326 -0.31842187055387744
Ni 8.520227183871404 2.3236091659280897 7.383292342202219 -1.99426382575623 1.188353082513063 0.9106993950154831
Ni 1.8492521584178936 7.821209812476626 8.420849992186852 0.1893316659217191 2.208704370930435 -0.74065820189226
P 3.7613818324012116 8.512039043601334 13.35410365662314 -0.08210278013902635 -1.663550025208877 0.8536990663710394
Ni 6.077404246892626 8.632427835911118 6.650240063691641 -0.2870662390607314 -0.3248709686133308 -1.045187373624445
P 6.293626662837881 5.4425781943608404 2.3292622209620024 2.4496388486301104 2.1151568392895768 0.723596875534599
Ni 1.943096572835212 0.6797784800076775 9.815984190372266 1.3337857330589866 0.42590452421858915 0.1236741758229096
P 4.86576303391193 5.812478587578271 9.300962195161489 -0.8039752167833508 0.1991453095780312 -0.8999025615102954
P 1.655799248918563 5.785425342211393 11.766276149295654 0.07951187948339854 2.243859064454697 2.094574130042218
P 2.4176571273351724 7.712848796834741 3.5615467995591743 -0.12093749361803688 -0.5347701742737564 -0.3758932252974687
Ni 2.133736833021434 2.7072119724110273 13.488611208313861 -0.17543485333496883 -1.081135252473964 -0.7540821886076496
