# total energy = -340894.6776875126 ev
CRYSTAL
PRIMVEC
9.04434194998803 0.00000000000000 0.00000000000000
0.00000000000000 9.04434194998803 0.00000000000000
0.00000000000000 0.00000000000000 13.23730865990723
PRIMCOORD
 96 1
Ni 6.320412135513802 2.143698930020559 11.35766370940096 0.5387970360449624 -0.40852592373082547 0.09857429543148831
Ni 4.4220138429051925 0.4833350506480719 5.9887434608294665 0.12019444480442525 -1.1132385607664117 0.4683326114758128
Ni 2.6590726569450145 1.6265072904008808 4.811298592383757 -0.5897897250427455 -0.6757776991687909 -0.12074208977777916
Ni 3.394875081421422 4.182031278452399 5.061073465667976 -0.07559711781002465 1.0479628794870532 -0.8950400912116715
Ni 5.121023885072337 4.435725065024377 3.116221624874304 -0.36833443911360436 -0.46867328264468316 -1.2320451240843748
Ni 7.174677348457937 5.973498318346553 2.6079748392624587 0.6616332893476089 -0.12028031965001221 -0.07802732451807207
Ni 5.256670922897882 4.552161920936236 11.585583835238744 -0.3105175281051362 -0.1830183221091816 -1.0257452057394334
Ni 5.5843926468349805 7.880543001684674 12.559849374751042 -0.5065052658907921 0.8077367407083121 -0.44114756642058855
Ni 1.9337526245768755 6.602640820361522 0.27983826531863043 -0.03761163970518684 -0.405545758056579 0.6482131592869611
Ni 2.892244832047052 1.5184183619402143 0.3652557422712766 -0.3099459718723824 -0.11352397476278513 0.6636238374150765
Ni 0.5341136030662434 0.020714255949582885 4.62175360866451 0.32915416936971703 -0.3547602999735955 0.8807007917708639
Ni 8.690129166298487 2.5460455178794175 1.3121015508477372 -0.005243764897442582 -1.377880666495672 0.5032541059433462
Ni 6.806500283795831 0.7225262351962289 4.705572045992702 -0.6405628418305549 -0.14593273011079383 -0.053843271072700816
Ni 0.9254351383107977 7.317071465241867 2.7832098654375286 0.025115564120705133 0.2848185806771353 -1.0041849630701545
Ni 7.432658153027601 3.76652517332216 3.7815812890621374 1.3891639527189754 0.13018138081380803 0.7202935221929788
Ni 7.700461112756522 3.862802191434769 12.577706523136342 -0.29118771742827265 -0.04040180085581429 -0.6027012908980911
Ni 7.719246210607147 9.041917883678295 6.900436626259071 0.938463709612945 -0.45020967662285694 0.19296540601956447
Ni 6.9826659727387534 0.6497048130228622 0.3792211103941212 -0.251786847033147 0.3228092009882957 -0.09910034313828739
Ni 1.8654316668669033 6.629167874764931 9.241600670084477 -0.6373049970148895 -0.6618770299272988 -1.3500083655654365
Ni 0.095171799548649 4.8103055236577115 1.1069324667255271 0.37273308240193226 1.4453196739749365 1.2894547723520955
Ni 6.315265905048224 1.9408252998388822 6.995176106271244 0.1846363173285788 0.04268879711777809 1.097781088560761
Ni 3.447956323253541 4.4541212561790084 0.2603106270089136 -0.3788451088369411 -0.3203013469647774 0.6077517088378049
Ni 6.047851852015295 5.598655573801968 4.871766348137207 0.7649654111790568 0.06640311001558241 0.8514066707924368
Ni 5.317711185485201 2.850568505183463 9.172037924249858 0.37325784455715066 0.03519223163041681 -0.06720837952569715
P 0.09693001958820666 5.870926438363922 12.334749274676293 1.2616871153205238 -0.47060829488386696 1.1421719559713102
P 4.102667179444588 6.2349883275219184 12.567619368763305 -0.6483931365082511 0.43233665299717794 -0.7136582762646484
P 2.399581447300216 8.392000528623901 1.5310804404143947 0.7818801846565244 0.1576731584761736 -0.32201524433209056
P 6.359456558923116 7.751046116260875 5.605418028141357 -0.12495458519722996 0.32986867893823835 0.8592040553496686
P 4.690142398937736 0.9950494368934898 12.432824307932238 1.3509889843111507 0.4564777690197558 1.5489176478732616
P 3.993529107338918 6.063787982209228 8.006268396591521 -0.5415913109606479 0.1159904340254067 1.1889806887947327
P 4.512782856881533 1.169650454710674 3.885507107007329 1.7666877716413316 -0.48481672517376506 -1.3400839073628728
P 0.20250371660339508 5.405459389311273 3.4224006311559374 -0.23764243721196493 -0.8178861704374881 0.5169855965968257
Ni 1.5027354733157645 1.0566956703792152 2.5916398535965883 -0.06847696182547562 0.47371110217890666 -0.6666978483547098
Ni 1.6908849151003225 6.314515224681541 4.869714186990213 1.2409511683247532 -0.36317140685542615 -0.09766849578776728
Ni 5.878306621246017 5.550313567055899 9.06944886001787 0.12733876915869036 0.9534897507081321 0.6558508783378769
Ni 8.696496382902644 2.5203595872603652 10.177570657685793 -0.12271206901995642 0.04287057411128101 1.106454705075359
Ni 2.254700136530287 5.0084218300698025 7.098930081722857 -0.16015350169586615 0.9846252957706721 0.20348430327301728
Ni 0.41017808339513956 0.0019382024407263733 9.257061972335629 1.0250826324547702 0.6434936423241047 0.6505780599747119
Ni 1.496431567103976 1.2665515324052257 11.588522341878928 -0.06993323465602794 -0.3605200852755081 -1.6495061455213011
Ni 4.230798369261529 6.707645628279549 1.6829249899109464 -0.5364940989433986 0.5423510719448079 -0.4562810796279174
Ni 5.5515255088527145 7.950338187102712 7.7036239190725375 0.662749148119607 -0.09227894934107979 0.8373350231907193
Ni 5.267623620778048 2.840049935708126 5.103366616640092 0.13120210876883856 -0.37571581917934005 -0.9740776021618127
Ni 0.5547744973993994 7.3878705725960705 6.810383019716522 -0.19873470440317387 0.31258006706111974 0.3065078927251108
Ni 5.13122590258582 4.5249474965585135 6.960216107604031 -0.28114473136997387 -0.6463753347472738 0.21344295714762593
Ni 8.14664562516135 7.237942519120004 9.228204191058795 -1.1013366671225033 -0.4413951636550204 0.10145547363402527
Ni 4.603126786794813 0.3839341168890466 10.351204835368058 -0.04176268575908291 -0.21820386887137905 0.46611503499920376
Ni 8.22053789739996 7.0489790865763915 4.699204829388542 0.17268505850397356 -0.21012443429735425 -0.4762755204719733
Ni 7.421850164615711 6.326489933181409 6.941658022731766 -1.0957434893054419 -0.760721034080406 0.29899152974340765
Ni 2.482092977243038 4.902385967190306 2.7066458946408645 -0.431290985341483 0.5522061103620167 -0.4454785896957747
Ni 2.252574716214978 5.501184702576078 11.321750437111476 0.929817861012489 -0.3179606146467427 0.933269052785883
Ni 1.0461318791950416 3.2137078714811977 3.8695565058665684 -0.7971823622312334 0.6911449256534807 -1.1942465651793626
Ni 3.7888556531455544 2.6255724150390396 2.3863957014377104 0.24315359683818125 0.014059049196227401 0.9997824631270846
Ni 1.2263765662750037 3.2216759365781646 8.303299955609736 -1.1935924765351313 -0.00403740329416724 -0.8111923033570804
Ni 3.426693075758685 2.6030610483802996 7.118163778925139 0.7594349682791307 0.1316412531887862 0.09478834602649482
Ni 4.193617080256274 6.786964505578524 5.905150227611279 -0.6696828991249627 0.8728712684241161 0.20735252797917195
Ni 0.968413850388874 7.653539067667916 11.225833383801206 -0.5798943203059045 -0.09093271972583049 0.9023777625236653
P 0.17512016303462588 5.721070739621993 8.050189529081747 0.9042161012839847 -1.0870446759798635 0.2147341651552237
P 8.646960523043298 1.6548884348665802 8.226444757008165 -1.2795051173385512 -0.23380480863342962 -1.9269945110856102
P 1.744318886261365 3.5124786574212585 10.402790143071869 -0.06302828000607853 -0.6440870529337295 1.1512554063298173
P 3.9605986589642805 6.141216592078843 3.87133010128713 -0.7690398383587466 -0.7641531996904065 -0.6213937251012718
P 7.071897448614659 4.0886303610217825 10.237707390530561 -1.363990281666825 -0.061630628327603534 1.4763829710386445
P 6.165410206306296 7.815152410707298 10.227740525903029 0.8190472806251249 -0.49218344995148133 -0.3522426757580643
P 2.2850439031594845 8.200766966296705 5.891488749371815 0.881189044261192 0.5460606595859111 -1.023303171956844
P 6.74470934084183 4.0004751618161825 1.6175063614740919 0.4949568989315604 -0.35558176743362635 -1.1005663646153818
Ni 5.1966617152720325 2.8925161623000704 0.340953595942617 0.867254693568287 -0.6133909094014534 0.11567187434372338
Ni 1.3779416456109466 0.6507711409172237 7.097156486302296 -0.2242917269366718 1.9494217297408751 -0.21855996665921715
Ni 6.753355731571341 0.6861290906221964 9.199082315002357 0.5223949405378553 -0.03800347582696681 -0.07161139368939924
Ni 2.7877193742426907 1.7541772187876912 9.304663247490959 -0.7063375742335191 -1.1063703728916687 0.5317236741379487
Ni 6.475468330771911 1.9997491864526586 2.5136586344449934 -0.3606473548819918 -0.3537822523310423 0.05222039075729716
Ni 4.056667657216243 7.026585296360627 10.155067430934645 0.634334858642972 -0.5685606404606401 0.5941181772147703
Ni 8.251189171649244 7.1882257724253105 0.5727953483706887 0.09990329865555697 0.26424769850431906 0.05329922564377273
Ni 7.699990806984625 4.059914575910694 8.151256430594303 0.6125987525174611 -0.5960261928707606 -0.1561567218316472
Ni 3.081371062742475 8.54454239687071 12.482993271715296 0.5655689048221679 -1.5824767147756296 -0.9721086513609
Ni 9.159838011639986 5.075874530970116 10.336166808311615 -0.7700747073811641 -0.6606107616203655 -1.1986050992583746
Ni 8.55392137928337 2.2434851527388697 5.737340606027139 0.5792122066372154 -0.3411025999808448 0.464342002259181
Ni 3.5711673911490864 2.663911379790505 11.512262260965647 0.4363627434374356 1.0537578889022756 -0.22234360207136547
Ni 1.1315195098198558 3.433566775501811 12.618503739980154 0.1930872763094094 0.29564395342741345 -0.5282444573400967
Ni 3.164090612545944 8.214252079871706 7.991734139371515 -0.017065440122718996 0.22155555895243134 -0.309849298393518
Ni 5.564748336516465 7.657708509222629 3.5760459090983527 0.013915838750143777 1.0996461667939577 -0.07781238029378858
Ni 3.1288990787294892 8.371506050179264 3.753333096420417 -0.11094053030632507 -0.2741456743443214 0.00820079064323749
Ni 3.458330183260602 4.223653339265385 9.466647408542798 0.688220295807518 1.3740062711419305 -0.9744550401058895
Ni 7.240366402713632 6.271455113527559 11.430839669771604 -0.5446432104130944 -0.6766675579729121 -0.6406605437506837
Ni 0.7538929168793047 -0.1297266117046881 0.16235407463012155 -0.5378300441460028 0.5469119518426129 0.5202969203582458
Ni 4.833694191467877 0.4631399399159305 1.7137815707183481 -0.595417355642168 -1.2038054125123914 -0.16033682135126578
Ni 6.165753891293452 5.692083624257887 0.28798812168511917 -0.4429655934659339 -0.3731238900824477 0.8738146061739919
Ni 7.8521437685354405 8.69028292010853 11.472311594511252 -0.10415796016685287 0.6634145496177477 -0.1661608842322106
Ni 0.03227111585980295 4.678050113994893 5.857058749132165 -0.2663300349546446 0.4337379042200788 0.04851131733682613
Ni 8.00369075918785 8.748275239520277 2.610701708305291 -0.37077107357955497 -0.5582960253098385 -0.3973297979046899
P 8.51675817896165 1.5700163317225004 3.495205773514123 -0.2806037712648393 1.2504776197579497 -0.002653378462447043
P 1.9814705717410022 3.1238523360233517 1.4264256485227613 -1.9730784499278664 0.6591205502280842 0.4376243837586785
P 4.500482552078044 0.9592247991533257 8.275171148279343 1.7924247713961197 0.9170541335889175 -2.0432700804516033
P 8.537560165026376 1.611882589763202 12.350528033323478 -0.4877786360155664 0.32524146457887215 0.6047244919757069
P 6.34110558947732 7.702821685957781 1.455561091091851 -0.30372904442839305 0.512637346930459 0.013533258599744434
P 1.7024707169041977 3.139209628344179 5.937634789936789 -0.9572697865758546 0.37473520043362557 1.0477733891840664
P 6.985315964876565 3.8569143249442757 6.06784979609691 0.08477029966886046 0.5439546689865019 -0.7577989753376047
P 2.4788370142068197 8.679357355253664 10.093421197448919 -0.5077869608166932 0.15741527682909665 0.5748073927013003
