# total energy = -381171.5514968686 ev
CRYSTAL
PRIMVEC
9.23407659137156 0.00000000000000 0.00000000000000
0.00000000000000 9.23407659137156 0.00000000000000
0.00000000000000 0.00000000000000 13.51500448623447
PRIMCOORD
 96 1
Ni 3.4204774452081264 6.116292255757668 3.6231968239269072 -0.7586867772591966 -0.5926945573943664 -1.3579494747893839
Ni 2.7678960130183534 3.5191989588635275 2.6132344629094475 -0.29865985743560175 -0.13171787206299249 3.713748714459513
Ni 8.011364873982659 3.417642583671113 4.767418042655779 -1.3845359670286608 0.7956785239921974 0.4833843636026127
Ni 0.9234446030862171 3.9543548218333884 4.014172247079701 0.7831780775323416 0.36826527643856577 1.0227020480377353
Ni 0.2722039588286081 2.0858948125649843 2.413671291595719 0.3711156014031673 -0.27803549631703084 -1.7190282607818392
Ni 1.1618407604186924 9.096913692972025 9.136034782182808 0.1818484701707965 0.6382784166717523 1.407346794275589
Ni 8.536377537006839 6.874031353040296 7.1706428233172215 -0.22788844314899462 -1.270740997992676 0.3456763353944563
Ni 2.7904271600877744 7.989997220573381 12.737013494239333 1.0524818504033293 -0.5478133806109597 -0.07822967033686527
Ni 0.019453429316044695 0.4240417282925024 7.154680798389269 -0.684875547705001 0.6378171607646176 0.016320591536894472
Ni 6.151723407931999 4.478656460954147 10.71035713031359 -0.556025741218423 -1.6698751960959561 -0.5563142189931193
Ni 3.820894711753741 1.5326535771673546 5.320532771203061 0.6551301981217685 -0.5227448676781061 -0.37168278676054695
Ni 6.845221033836774 7.844274256678901 13.479054661186709 0.7815721664978023 0.1505152072751537 0.9093822188659564
Ni 4.6574743556260065 7.7921478938891955 10.643769280054451 -3.2347884480665257 0.15945776118042213 -2.0098765925928226
Ni 8.963111922055669 7.526603551153401 9.588152720583743 -0.7561241587383429 -0.3185799933982965 0.8382778467199627
Ni 5.348229460760446 4.340016033863866e-05 6.670951845331471 -1.857359010175659 -0.1840187383492379 0.00782875201579942
Ni 3.7644375670068393 4.2774551644395515 7.811077751058176 1.0019797278887197 0.9445515676782378 -0.6661666584415883
Ni 7.703214501501657 0.44544447119311875 9.639604072369034 1.0344866993774893 -1.519640496175699 0.9374692069101597
Ni 0.9646655213312562 4.484603206328207 6.66142412502564 -0.7234464659996637 -0.5735398388427865 0.39439359809450136
Ni 2.3074572481320685 2.8156454234675237 11.53827336345613 -0.4696991528060362 0.49444139274772264 0.07934630043981174
Ni 6.007496364457703 5.961852323488789 6.975404893514688 0.4922351291250232 0.41118830105433696 0.5940197039636931
Ni 7.655345048055805 0.7909947009940261 12.310547820821533 1.0000567998343939 -0.16392890957789832 0.21389495708338002
Ni 3.1325958710129354 3.8097584152923796 5.368916562719308 -0.6316601400242864 0.38605268232897383 -0.4715184654029621
Ni 5.502106114352589 3.778344086468539 6.079697609923196 0.23440361855969305 -0.08332225436842423 -0.23714981384626252
Ni 2.291639274800135 7.329945420359361 1.6010550000840498 1.414217039032861 0.9074184102713663 0.6579159883970218
P 5.89701063712753 4.428367679421333 8.65717126412127 -0.47765594575926773 -0.5601775586032676 -1.7534669020756835
Ni 6.994997757388417 5.930724251041651 4.91896124507397 0.4979668894024778 0.2819392022468112 -1.0223127830191168
P 0.23998718874233654 1.474275744473552 13.482257962382766 0.10325730272945442 0.5367519805904756 0.7327286626325381
Ni 4.273438341089061 3.3183762594923123 10.138199888861982 -1.0547837590636286 -1.1613493002307096 -0.7818133359743309
P 5.755950881950286 2.2760890896915673 4.47758900169135 0.7094627501260621 -1.1061019497216305 0.4121851177499675
P 3.9694433031085663 1.4334334233718926 -0.0827022374521097 0.0861646089132258 0.16097882581063888 -0.43164348358489535
P 3.0135593886883836 7.710075420465829 9.183147964749567 0.19775717098125298 0.32803239706044796 1.0131398582705973
Ni 7.388526402739855 5.612508734992752 0.10726949842677952 0.33744726261644464 -0.5181575054177399 0.5974996920924935
Ni 6.14087336784734 1.3272230735389092 0.5387012582765186 -1.7912454063760375 1.1175988946176365 0.0019941476118933397
Ni 6.053417427726649 1.9831195392524208 11.006674033544813 -0.6093200817661893 -0.5381797141759377 1.276449361231363
Ni 0.7512383073084996 6.386259721217336 3.3306511176068123 0.22925755558237937 1.0134363064650933 0.10674011907173228
Ni 3.9570696403737204 6.745890071121299 7.49692153511244 -0.2697136067148968 0.7840532810484432 -0.03996831286282149
Ni 5.482105104290144 6.046408763535792 11.947413138822144 -0.7148803215972075 1.1239348641379934 2.5435118819311873
Ni 6.826217304054451 3.3598649659607167 12.971499020102996 1.8321285177436446 0.1964374237285649 0.5134145914161158
Ni 0.13515640996352182 1.4472014316835757 10.685827729053258 0.14183310612012348 1.71149569985022 -1.5058025618513422
Ni 8.036278412832372 3.3152920778852684 10.971927126451565 1.4709304325645054 -0.7152045377058457 -0.22573385869983703
Ni 1.713050498949407 6.469458751994173 10.719412065894032 -0.5955189142170388 0.4544764223190108 0.4180379769863188
Ni 5.592840151690348 6.568383415336266 2.1938771817105174 -1.8675182100968482 -0.5797220563940984 -0.4774281460191777
Ni 1.5881226757108022 7.087356992219707 7.746138183484237 -1.277691718278896 -0.21487351894656542 0.9268420662136166
Ni 4.355335367055739 2.058423434478293 7.5425351036283494 0.29686882697345 0.20472563187928616 0.1277725142619993
Ni 4.115932695366474 4.708261777298881 1.1470117566978797 0.7714327640709553 0.8259059554181711 -0.006369650971769674
Ni 1.4427506067296982 0.3865855431049237 11.957035046709986 0.4943694018592067 -0.3149963898120962 0.8494091807464338
Ni 6.409695807800201 8.350846468597492 8.503370329957804 0.5341646794792736 -2.5720472703667188 -1.3968278970221364
Ni 7.729134554708159 6.83267192364524 2.2129603245521836 2.448634318624996 0.20337323161644977 0.14770036353417787
Ni 4.169832000876396 1.919626028084659 2.2572765052962676 1.1068329143503841 -0.37185762177551446 -1.2294943326380634
Ni 2.177007447046122 3.050606504279579 0.5936587889725701 -0.26719264006525595 -0.003668707100838843 -2.2526627787892557
Ni 7.047004077181441 2.3397026438560102 8.978436795693543 -0.9939337176557913 2.7031254519631833 -2.076979813999223
Ni 1.9885491763330845 2.3936665879026067 7.1358146563492975 1.2500772989957374 -0.1675315393274921 -2.4817329009511777
Ni 7.9398746524205865 5.682207545681272 11.277393152845239 1.4856523121557126 1.2435780644246388 0.5356631184016709
Ni 2.439670757861564 1.8143483199951231 9.185594071658867 -0.08412958076106801 0.25916951265046334 1.3383977779097014
Ni 1.1317653727116828 6.224635677300912 13.384720257356177 0.26141151460710466 -1.1557432668978418 -0.19165671451046992
Ni 3.8466854878868935 5.624503800584217 10.092221574317694 0.5515988157953209 0.23457151159612505 -0.9032367680898509
P 1.9455368472144932 5.250098928011783 1.9445257158193696 -0.4106254865723315 0.19642019733738433 -1.042307480973489
Ni 2.1975070972486277 0.7036264846016794 0.9850192731224108 0.21819769822379198 -0.35298701012325656 0.5526768793508482
P 6.719942315684793 4.086143564036165 1.5668759887058716 -0.2932129753884176 1.1038229238794666 -0.38281643477986327
Ni 6.8584719338550615 1.7791110834308157 6.38536678600356 0.5747053199057973 -0.25437800479909095 0.0892429907282334
P 9.163380576826818 5.788260916210902 5.1602042682431275 -0.5558213385171008 -0.3695706255135506 1.1674055337271183
P 7.3464190131347085 8.309450102895765 3.6440510626734564 0.0660341567119379 -0.4680693305120971 1.096105757740867
P 0.36909712530378586 2.349786255577243 5.639000377544989 0.6676923510574952 -0.2623967613385094 1.3182236169546717
Ni 0.023459171774534365 5.17195093717223 8.8807365709176 0.025818760835316826 -0.049486279655585746 0.22856592883199345
Ni 0.1751685875727463 4.108767051872264 13.142612001203247 -0.3157515228105659 -1.2940097387126295 -0.9274367623748221
Ni 5.179328964429798 0.7336215358416794 9.19547361028574 -0.25550517642499865 0.3888245886471562 -0.23074545298181548
Ni 7.182624961201352 6.196527147924144 9.098625690786236 -1.6746618188513223 -0.631293500713487 -0.2912458243597178
Ni 5.346650433650253 4.075071906111479 3.504224056731364 -0.2850587217123994 1.3084665375679077 -0.8744316709327006
Ni 0.8164151906528003 8.762529308677818 3.0277798667567892 -0.5934543183785264 0.41600860526111577 -0.40764043580207865
Ni 0.4530967505277208 8.36342328101903 0.47232671518840486 -0.9342882380790167 1.1188577067254022 0.6108496310368383
Ni 7.342319083094207 8.395807187892988 6.088563246931945 -0.294467416620809 0.3431797942248477 -1.531013513899331
Ni 4.708464926985573 3.448133504828174 12.692291937529534 -2.0356333898419523 -1.0250435516867185 -0.4947010741670125
Ni 3.6853384662705038 0.8347540669150422 10.81092268907955 -0.6149451412624506 0.06275034375434355 2.086349685249897
Ni 5.354610207737893 9.085306458600607 12.339442170122732 -1.6852375374846396 1.7582437546390364 0.7441888407533376
Ni 6.705454049393023 7.853000459129968 11.01990461859443 4.077571381745694 0.11054638019169993 -0.5119382639809054
Ni 2.067694447452759 4.143939649899897 9.217530125814438 -0.9361417463479877 -0.20289860597287634 0.9765561456092924
Ni 7.282186775833523 2.4442508598887907 2.7445190245261624 -1.0820004286877367 0.3724939698079327 -0.25407769994985274
Ni 2.067897597139451 6.241552505756315 5.760337991775156 1.56832947674097 0.5518816371430625 -1.7968498970470088
Ni 0.5473406604069081 8.159147036974058 5.531393835319836 1.131046278371794 -0.4963820614138613 -1.2066565088079413
Ni 9.095011473178461 4.501547737013612 2.044482748932922 -1.3646292008024046 -0.13272394473000368 -0.8603101439296539
Ni 5.038426188555907 7.622333223968437 4.395971768247706 0.6159054482931908 0.4936551494010014 0.6603276831623078
Ni 8.418042844509039 0.8992273136172568 4.521134137033673 -0.28890097827662503 -0.4259685446873051 -0.40518297540052156
Ni 0.09656997379180492 2.582115624538977 8.224826254089086 -1.0120142293065861 0.32059059607042206 1.5082047435349315
Ni 4.5636007322211976 8.710356775504772 1.2485293487682896 -0.09905123506790683 0.08087019328350588 -0.5983862084625049
Ni 5.859372540629596 0.5008470843845579 3.082489000790477 -0.31695017110435736 -0.18717219637655508 0.8360317309982633
Ni 2.754100302476667 0.07047170290561461 7.5592931059650645 1.5776507541418958 -0.4377557671302203 -1.922545731285637
Ni 7.792526491032575 0.4099477570744462 1.5727276230902534 2.0598418687673554 -1.5952293864556073 0.6601901291431791
Ni 7.779312527320959 4.0349775452199115 7.1381795033839195 -0.5295066118819719 0.5775985822931924 0.5665166134474179
P 8.869496852797559 7.35629947516925 12.358404346560052 -1.452664287265466 0.2577199246881303 -1.2731118122176976
Ni 3.3021889230936665 9.243218403696577 3.1985281018286615 -0.05675607384412161 -1.4421672443888842 0.2753875171712225
P 4.371024063314323 5.604705940208465 5.436924613969954 0.6045797388677264 0.35106073963482126 0.4793832128630196
Ni 1.7192465643934975 1.6035989882060275 4.037513222672887 0.6562460568937666 0.13120236587915468 1.2929730699179989
P 4.312055249713781 6.780721008312224 0.23756509043237378 0.6553536269864843 -0.48189363798969914 0.11979155293905176
P 2.7898915836410425 8.822393827715134 5.220697627901522 -0.6127172803731964 -0.6865128261981079 0.6511434455598786
P 0.602283416580291 4.523931138856348 10.97600858833873 1.350347236962094 -0.6255648257598259 -0.017466017995247336
Ni 3.163862454610091 5.290553417893395 12.398448843437613 -0.37194658194489494 0.03632454546264712 0.1906007624421298
