# total energy = -340871.480422095 ev
CRYSTAL
PRIMVEC
9.21640051984790 0.00000000000000 0.00000000000000
0.00000000000000 9.21640051984790 0.00000000000000
0.00000000000000 0.00000000000000 13.48913376884120
PRIMCOORD
 96 1
Ni 3.7780975149787968 5.127360124381981 2.0250422776147388 0.48478664326677795 -0.08422008359234527 -0.6483214027300512
Ni 3.8828511237608607 4.9198252165380145 4.289976402164775 -0.33114060367212644 -0.796315386245248 3.3383136597453866
Ni 6.317225086073938 0.244314797564763 1.2923504142958353 -1.3503606066985325 0.9926875039535162 0.3841837474410351
Ni 0.5425768741762383 3.340346137509002 0.2466769610286767 -1.5747173825451846 0.2718957019678801 -1.8710694177832161
Ni 7.489154932273207 5.811622567670344 3.9085436836061676 1.2722335233778024 0.03634408584667289 -1.218974664053662
Ni 2.5081604652084852 0.5034523321525942 5.109670165144228 2.6744905618353103 -0.659352206622916 -0.20918521031253653
Ni 4.983584275622506 7.339296259143139 5.966244276610599 -0.595073342039188 0.16808689761032986 -1.3608849032686239
Ni 0.47155068324900146 5.321697146621871 9.541282367858097 0.8396721559643282 0.557809058371091 0.33509367478260355
Ni 5.463675797271853 5.968430406823789 10.952313293824485 0.42566078363889914 0.14844572634063466 0.33545517188708035
Ni 2.1037908905724607 7.003920659110539 11.388849028060218 -0.5242885580161423 -0.03470680735356603 -1.1235391713614717
Ni 0.8103842767722772 7.676257080072317 13.52434065000403 1.3875485286027394 -0.7589629137387187 -1.7527889021720524
Ni 8.260825718486883 2.6753091057919365 6.509909607693151 0.26259525050256066 -0.06485556302280444 0.09893733519786187
Ni 2.3338691141898673 7.41677853866371 1.7535068409915715 2.142126425899885 -2.186590312640215 -1.3481576855099426
Ni 6.47605131695035 7.191631089346709 1.8490634036533096 1.2918669813380137 0.008498267278998268 -1.768158699759903
Ni 8.587666931599529 -0.25871634508217045 1.3851042695468199 0.12142806010121021 0.4359359403126621 2.321454957862305
Ni 1.27562356891676 4.586219165413224 6.953230456022263 -0.00014089645323846702 0.42647890866482036 -0.2559255517918689
Ni 5.15167298906323 4.168614839570879 9.149193646970277 -2.025657766686479 1.3679657213748053 3.1444301127869267
Ni 7.578332824106329 7.520020657753687 5.853569171545922 -0.13067708950330398 0.5356194096479292 0.9497709070956482
Ni 2.998555922685595 5.746868137325212 13.317956870590196 -0.31554969121240495 0.07559197560370207 -1.0618645771698099
Ni 7.311149371828303 3.1968375643658105 4.23517015458573 -0.3331175248928392 -0.20545196852234937 -1.0587789962659506
Ni 0.8307608167737082 1.8381189279865227 2.5055125933271647 0.5987039968132398 -0.6786887021679988 -0.7398102520696679
Ni 6.889323934528789 4.64578476224223 1.6777240657345418 -2.5487471621881976 -0.8019111351654705 -1.0516945786153438
Ni 2.5343350428031584 6.810385463719499 8.836475646078082 0.2087434947894276 -0.0816186414137562 0.29846188249218275
Ni 8.767819913375263 0.39247857463157076 9.018996321158067 -0.04330483343522219 -0.6635958123906184 -0.6522878435769669
P 1.8915648348426892 1.0533700693760712 7.409459794977819 -0.01777300771270487 -1.6724630114277905 -0.20499148394616307
P 4.734787542464683 1.5099321203918974 13.273753170217107 2.4078681924512275 -0.3369952626806906 0.7204326188740044
P 7.790964401460806 1.751733605523538 2.3542852847137126 -0.9481169164319928 0.029429361004710608 -0.33808978129645
P 6.244268059229066 6.303538731240104 7.22097610873454 0.7803462645105013 -0.4937423097981691 0.7415745430589422
P 4.5034835375725955 8.753626656510546 3.8243444913563716 -1.3520943015601876 -0.03489192678117862 0.888370906721612
P 1.3671885084953106 5.075536304024638 1.0178021363291117 -0.09082987559937906 1.1705726186011904 1.3589462914850146
P 4.598845634182486 6.843334095726879 0.910489133111118 0.006408474629505092 0.04381828273653098 -0.2754631076041643
P 1.477647069224946 1.8800535505413696 11.194497259579428 -0.04924408173779261 0.26930017332656203 1.014567077635427
Ni 2.7348839190215037 3.281434905119863 0.7285887217889219 0.6994747856754147 1.3246117798692028 0.8008312718377304
Ni 8.577233966163906 6.106234028019408 1.4921002285854976 1.961966399175105 1.233063023825928 -0.31807785695089735
Ni 4.832785529635163 2.6973270867333716 1.6155935446292693 1.4328009726826356 -0.4211423269432554 1.1206255972591024
Ni 7.298357007848935 6.197660721589536 9.106608346535788 0.3441660693975169 2.407244442824299 -1.692302157640905
Ni 6.804026147332062 8.396177777133143 3.9483373363105767 0.3716524477432438 0.6410451807836122 -0.7663442938044543
Ni 5.636815098220283 1.2732549539724534 3.7458244451325755 0.9003959562069462 1.1122484289390004 -2.4741931409307067
Ni 0.2803730431215945 6.342192315195055 5.234876810052384 1.5933044015187527 0.09103839206575934 -2.5900933292351525
Ni 3.3683271296137303 2.740054319736508 9.913271962401387 0.8669091373034102 -0.9461721340007962 1.0867597977495929
Ni 5.022293157980825 7.164129350071178 8.7563768304381 -1.3133575471116221 -1.2402448862863478 0.15747261242959332
Ni 6.743336149634552 5.84766791026639 13.147237796429218 0.28820703753339394 0.1367405220885645 -0.18074366714239193
Ni 6.032244764311647 5.106033373482657 5.456152449493497 -0.6132736670972986 -0.13922909283837312 -0.055065830625892265
Ni 6.732414714969169 8.617813777836211 7.939232323853958 1.9694197701293563 -0.7294947290762727 -1.0238171354787853
Ni 1.0172141299732878 2.4043100636814487 9.109791691289733 -1.0324598987554476 0.9140724252527742 -0.3099760537793694
Ni 0.7058278989622294 8.713498448465755 6.056930893215638 -0.5775515311053407 1.3901957364175992 -0.16044455057372367
Ni 5.047048409889027 0.2532915717116687 8.96736051537218 -2.0599655388294136 1.991516859138712 1.109472151745444
Ni 8.260042324439155 5.426939224633695 6.79908984319132 -1.525108975489438 -2.127950134399503 1.2342531874792873
Ni 2.9581973046267658 2.7611598770223544 3.120225313058245 0.19756536668542105 0.12356156150444525 1.11307863814978
Ni 8.35052894515201 1.8395290372724329 10.919346229015984 0.8598709995097062 -0.7277497213607079 -0.26763641247089387
Ni 3.7972952773484114 0.4866913860914416 1.961279531970024 -0.9641667708060039 -0.20339148644889485 -0.32344117814533974
Ni 1.183865084926418 2.270331248718853 4.99118227624541 -0.464070236655033 1.8660470248679606 0.28999652533364895
Ni 7.067200465365832 2.1226660789224225 0.033276735867369324 -0.30030690612072153 1.5397020428122645 0.33305273309317485
Ni 6.092483158381643 2.743630283154372 11.224941795554248 -1.7077979392836589 -0.0768297046655451 2.7644040962680068
Ni 9.264786664452727 1.2486102988709893 13.10528658435336 0.8151019228241317 -0.9792899996006877 0.014950193551929091
Ni 5.114097723973975 0.4821477006146197 5.848119513893904 0.6232449193773976 -0.3647919731779847 0.9583828171343753
P 8.604265669010799 3.7443931381253734 8.454516671047413 -1.1209904367976886 -0.12182400998804824 -0.6218650083107354
P -0.09029399794111893 4.148937824372066 4.9160612385486955 0.5816933211878562 0.524372118868884 -0.1648334236700387
P 5.007076880653781 2.411415908514369 7.816440375892918 -0.48242199968934335 -1.8574528554410463 -0.4531587319488518
P 4.13769381568703 7.690063248113451 10.70838927164353 -1.0938375305319807 0.5709818483076231 0.08275121235630264
P 8.797911461208578 7.483210353911037 3.3593337659458142 -0.20346219178583022 0.4729343719138822 0.11060448712314501
P 3.058158385116847 3.3162728992423514 5.566008257626409 0.2815517370004054 0.31752481266090476 -1.524887089286619
P 0.30519741803400774 7.628211983945192 9.77635772385995 0.06685819527513001 -1.5812657251866638 -0.5530340055799507
P 2.108537336861636 6.7973811225272165 6.133697980052637 1.747869353383248 0.006842476843130151 2.3928974300740076
Ni 6.362661940842156 3.9953465090145883 7.44047113958717 2.481171886241385 -0.20824907165151232 -1.4610072599135226
Ni 5.017565144492774 4.28272309492287 13.477735155644613 0.08562981945567832 0.18274655650503366 -1.0445019175216463
Ni 1.8879243566208948 5.070697693729848 3.447553152120538 -3.270562520342342 -0.7512470331516997 -1.394733476386953
Ni 6.696636647989408 2.0789250418575205 9.247381491992325 0.6854432472830131 -0.1756685666123297 -2.9191127727992177
Ni 5.288260045384731 2.7446993856195068 5.398648561470099 -1.4024341874653201 1.3740060140316144 1.5463475731532401
Ni 1.393962152126482 8.717728776323485 3.1833143398219144 -2.0086866860497796 1.8942990777351183 1.5248868321763027
Ni 2.8261078517792786 2.9804272627811152 7.628684785293998 1.4511931020365783 -0.24168883936719665 -0.645329924201895
Ni 7.463413525504924 4.4475952845676305 10.240140824715716 0.22351191134785375 -1.8500300806144139 1.1810336660335146
Ni 4.195084341983521 0.6761363429132856 11.329941482231304 0.9859956937556374 -0.14637341719263824 -0.8085772343317366
Ni 2.7022947266360227 7.118830741311382 4.125988986973919 1.3341814258355085 0.5846801717303222 0.761450970267895
Ni 0.4151453901725357 7.156958990434327 7.661099787708866 -0.39941830500260245 -0.19824722324379404 0.8556291935142167
Ni 2.1759737397701664 4.103215261186441 11.534855245755578 -0.5301547869889321 -0.032045458471319004 0.09335187069028439
Ni 7.6620085248042304 7.240948048751321 11.277387722949491 1.6939569196355087 -0.0010284412645143578 -2.2108448143122055
Ni 3.917200648653589 5.35476559183655 6.9394980191856215 -0.8535900515970009 -0.2213043621735737 0.23694386848304355
Ni 2.25304128126547 0.5233966229676906 9.71286409711163 0.8701865225031014 -1.8032617141106235 -1.2791940138560356
Ni 0.197608844439225 5.616732561396764 12.23021976516033 -0.4878495984628179 -0.9370205494085153 0.37595107511859766
Ni 3.623492395559553 8.1234921337199 12.897796836872146 -0.34918434854771474 0.2871505712444216 0.8274007947961427
Ni 3.5511436511517402 8.545529548232329 7.275040436068383 -2.074538294437266 0.4925426330631131 0.6381706874492945
Ni 2.663290919459734 1.395823865039906 13.061960285313727 -2.01264747046974 -1.3074815479468191 -0.508448248549776
Ni 5.1550830572709865 6.753640085462314 3.544985252296543 -1.1399361246622564 -0.1627639427355197 0.573628799012167
Ni 0.5914256404323263 8.98447905777512 11.287235446949458 -0.24248973800193718 0.24094861876706244 1.0955115758002938
Ni 8.76068641934066 3.7676829823442963 2.2356757393274824 1.405055170027935 -0.12542921084080333 1.727139062814432
Ni 8.624707645456217 0.9048099870851186 4.2803719911396305 -0.8409844470178486 -0.7109339353549499 0.387444677580494
Ni 6.03594054093681 8.214273679250724 12.473200027923786 -1.4584364138625527 1.1805675250303733 0.10049773770644628
P 8.123132694098 3.58084811016147 12.063331948712769 0.12287790517385935 0.8104783080091913 2.108443431825143
P 4.370656772680188 4.129583383192906 11.41222550644442 0.01415957932983368 0.3501215156500035 -0.09519895120135217
P 5.6401422188229855 4.601758016759922 3.307495199347574 0.7403776945373636 -1.7278003505475144 -0.27587628388218294
P 7.976352298755475 7.730855036998671 13.288267157821366 -1.0775673326170474 -0.7535779952777214 0.40424015187127804
P 6.684858088071804 0.22297790862482317 10.503178740021175 0.33297534288802005 -0.013029836600764656 -0.051732138266968965
P 7.755177118080483 0.5115286639646409 6.357239932391823 0.12682454852643318 -0.10421709553956246 -0.21916751833622902
P 1.5367149804236302 0.2065072791813579 1.1068371739535292 1.130866301150504 0.7274951821477407 -0.34850866263692887
P 2.587098936017774 4.584762974124507 9.088303653380583 -0.3528553696413988 1.2153326964257003 -0.25546506721568263
