# total energy = -381163.7147030788 ev
CRYSTAL
PRIMVEC
9.33413630920412 0.00000000000000 0.00000000000000

0.00000000000000 9.33413630920412 0.00000000000000

0.00000000000000 0.00000000000000 13.66145199748242

PRIMCOORD
 96 1
Ni 0.5087766920095116 2.9998140068855035 13.74533313682485 -0.026679566173715346 -0.5223322056207197 -0.4058380924860172
Ni 4.865045097652921 7.656978558559207 5.8471969035328675 -0.44821321501811834 1.544144137744018 -2.2594026686162505
Ni 1.7547989260922734 6.429138288264013 7.233150906148378 -0.6767151233813959 0.85485991944836 1.3969739356816975
Ni 1.176754543199677 0.3613888155279415 6.343517190863233 0.09179455350549354 -0.487275985347535 -0.36246795303049834
Ni 1.4978021557431285 4.391281683719052 2.6890787479497864 -0.3687432445162488 0.1574273610139547 -0.6105655241375162
Ni 7.051454478869753 1.0647449095168333 1.7157140978322591 -0.4909043261287417 -2.170651272812455 -1.1580593166255282
Ni 8.535096750088142 4.85435751177235 2.999303429638633 -1.1977710333928535 -2.4710247705050543 0.8763491996703875
Ni 4.402174620594709 3.257445498492185 12.315498426800472 -1.630656874025282 1.367149139010781 -2.950640411093854
Ni 4.781383235427977 6.461126372816605 3.4214285356174825 0.20778370197931958 -0.40694520950726687 0.6876639090834157
Ni 0.35132755018238004 7.537865647273643 11.345111366111682 0.18005358305390282 -0.5354168067188199 -0.20153566418707872
Ni 2.8568710460339144 4.627986042099322 7.576094535249597 -1.2905703740137775 -0.6969725880788513 0.1985552414025161
Ni 6.314281743058396 6.646324967975048 7.416788833744172 -0.7529953833013742 1.13080613733653 0.8877286451519227
Ni 7.141407548853217 5.759320678840607 9.827037333499186 -0.03142093751344266 -1.1867186322334335 -3.9271322791241143
Ni 1.213176342418882 3.4720372883562334 9.293953617566883 -0.5111988147117196 -0.6783341470420576 0.07597198465094013
Ni 8.078293461521085 4.052676561095816 12.735246128304404 -0.755308347705267 0.35126539944645957 -2.3373466893918975
Ni 0.35869591725148314 3.9657477512217882 7.035606982530859 0.27132054619070045 -0.765183954947766 0.49517235737647625
Ni 2.9413169756946385 8.742445250307368 1.3562499811764346 -0.9359789955178783 -0.5148374399055714 -0.17687312844339215
Ni 8.066775137524031 3.2129590056478157 9.368490428301131 1.2853662041050187 0.3836592423961328 -0.6483959647217284
Ni 5.673875996612877 1.0656036500417352 9.04964660530039 -1.5964288060803475 1.105971080570721 0.7241041541883206
Ni 7.234711573711026 8.641020527007552 10.840389422841488 1.1779825379120163 1.3354564358931904 0.7982750810747801
Ni 3.1653549113326065 1.7810278486463396 9.431046875299385 -0.2601917832673906 0.4968805983168346 0.9330474236933802
Ni 4.6468596653748815 3.19462676226839 5.783712643402274 0.06071043050617931 -0.7593352094764729 -1.3198827498246495
Ni 0.7552249551065747 7.18524065216777 5.486412006613199 -0.6600024386124053 1.3327570346841562 -1.9044688191792687
Ni 7.8141187404800965 0.7911996492046621 8.723383077481774 0.5567217388441831 -0.795195670818508 -0.07669420752894533
P 2.7290680540017895 6.314319079602957 5.190217464956743 1.0458813143676762 -0.22063921778574905 -0.36100062445635245
Ni 6.178302047767424 1.746706230058688 12.241985570800809 0.03661456589924017 -0.6347066401600939 -0.38801674803388014
P 3.506022878042836 1.8801283720472355 1.7194990900371252 0.3417937125105985 -0.8316053197957937 1.6598795183358253
Ni 1.2438949844564018 1.5288101560009957 1.6929136034825023 1.4174052069528558 0.4671794717079761 1.9797085536498746
P 8.148010124352513 2.3682476873647884 2.932594225471587 1.6331217906260067 0.2733517176881163 1.8166648748904066
P 4.136515771907424 1.289753595313386 11.325125113808205 -0.07793296503205288 -0.17166818720368499 0.19517681184858646
P 2.695110466723608 6.2339521674355165 0.3225410743258892 0.972112765125958 -0.49229889248342307 -0.9527407883572494
Ni 3.62866409278941 8.878910320677631 9.992108730898435 1.580650203089852 -0.16230654348312692 -1.5970106467257466
Ni 4.1788927499841 5.087477561874768 1.4121978597874012 0.9910440548128222 1.337382706381626 -0.702474491733687
Ni 1.8373780285249501 2.8053932852205072 11.683929307038916 -0.02010679805220408 -0.7394582680468879 0.20034575764403562
Ni 9.121709869957476 5.156102130777791 5.201488434346079 -0.06323628225182658 -0.19277745837847446 -0.058069907559538704
Ni 4.821790710779063 5.62554383967873 8.901911498954403 -0.6517355706179226 -0.666950073574832 0.9461525936167705
Ni 4.624056370784283 7.331506565485284 13.490601761316942 -0.8352915103981292 -1.6458667489965009 0.8797302003274784
Ni 2.831528866413171 8.09903391202469 11.841964632615655 -0.753772884897347 -1.3337893326034127 1.9037620229202308
Ni 1.8154054720508321 5.30179866179075 12.099524251374055 -0.15677378659035582 0.3895349844506195 0.14052210061818382
Ni 8.986532910374564 0.5007484015152938 0.5928893930100292 -0.0027852760546210097 -1.120944671161418 -1.641510014689702
Ni 4.621788175702205 5.473938800489001 6.1886106677207025 -1.0617771596623264 -0.937150133007844 0.057355655101333475
Ni 4.6938757091132555 0.18411023488449046 2.6134629110777268 -0.412094100698058 0.8206243953042577 2.3346845691787017
Ni 2.4983748792958327 4.0565315593217335 4.935950929428618 -0.6073945826087024 1.4180842352977514 1.7954615013399144
Ni 0.3105373752495444 6.725431771763556 2.94129644059513 -0.48486634746477786 0.7509860661808292 0.48080657557310735
Ni 6.902033627536839 4.341073365420717 7.218683928544625 -0.38659801330948257 -0.7147535662113562 0.10923794579292155
Ni 8.712211983349139 8.335906284855485 7.0350329331582335 -0.8171181819232121 0.48611924603527246 -0.7907990844127091
Ni 6.696010574649528 6.028797189209248 5.199999639631711 0.9793463067599198 -0.3308899211139011 -0.8695332051898187
Ni 2.467870922389538 6.768872841360218 2.471971408395944 1.2266836026621455 -1.0381718615385604 0.28910255276446983
Ni 7.21321505818006 3.2763377900400243 4.914775508180875 0.3399815990025241 1.3831444859977728 0.24606511405802137
Ni 5.190993131669997 2.7420238349644386 0.5923470797002813 0.5620097267159997 -0.9847582218041105 2.477637133615249
Ni -0.13355842037619498 -0.010930273420217514 4.249503623057765 0.7417758604364708 -0.7802915000131658 -0.47006424945493885
Ni 8.380392777699853 5.957204365013631 7.524180870278442 2.700250187297917 0.5682137986441826 -0.6097134605498661
Ni 5.2746923304395015 8.664719898667613 11.740201080173946 -1.4456210072654392 0.1852839782149067 0.3392256946731061
Ni 4.571514518450889 3.437715669768582 8.076185813580619 1.5184876135181782 -1.5752552573265257 1.7717980962847033
Ni 3.7885485107355295 0.3481950140937165 7.551462683389126 0.6553595405237552 0.5532944583301891 -0.6916609460579508
Ni 9.179936211200275 5.2272375823025365 0.7564262584278233 0.8505762044713415 -0.03530433172824887 0.18842200962325614
P 0.7519029360542645 8.580021947331103 2.0573602820099857 0.3131739918913768 1.430842563404684 0.8372951710917192
Ni 0.6670985755657552 2.713013339840582 4.5269132157319945 -0.7868858654012318 -0.9712162214536176 -0.4264516549713107
P 2.76493913918872 1.1236246402894483 4.971702537672953 -1.5624105401533737 2.4857993577110675 1.301182859422301
Ni 2.8569643873953168 3.423705131422086 0.4247115951033092 -1.692428141695808 1.263892864722591 -0.02476023766381542
P 6.05329929657737 4.486629884391573 3.5810487975108334 -1.107834359031705 1.0199396548012498 -0.21126111900495875
P 8.866971960554269 5.150277629826284 10.972713870419943 -0.013302630646177089 -0.48944085420933775 1.8101936653437665
P 0.27621855690273506 1.811065098745622 8.156515389203499 1.3947589303082495 1.1228621998991049 -2.1302515288391697
Ni 3.7466009029213043 7.499212989516921 7.834022852385538 0.31636833045895835 -1.0365584943048536 0.8694511869989736
Ni 2.53726089045606 6.590814860349058 9.772747197466726 1.3199804517447782 -0.16129404305821254 0.769502636927778
Ni 4.807864179657829 0.8629828897775407 5.067688259843853 0.5381889701473184 -0.7727224294166563 0.465697744956127
Ni 0.9234074200813649 7.341755446967264 0.3083195845026241 0.009198378669816416 0.5255121460105983 -1.0779974781759305
Ni 8.405781628001298 1.785657580171897 6.4162375787045915 -0.44731692845609416 -0.3321068242401377 0.1078598344984723
Ni 7.936125233969134 7.248563431743137 0.9224488042997626 0.6521911700981026 1.7823959264052078 -1.2429154911399753
Ni 7.379885393100131 7.490774930446147 3.265838753709486 1.2828005002603713 -0.2594865296702499 2.3322427925064284
Ni 6.21676802280134 3.6285147466111662 10.45890701244446 -1.7648329778207796 -0.013569511154318566 0.884983735416934
Ni 5.905082548806547 7.830117449824463 1.8149378318302063 -1.5789180508900935 -0.1348826429442193 -1.8451781518387513
Ni 2.7393542720283306 8.503696716112385 4.373796046487547 0.15338995771978745 -1.4418471420453038 -0.5925909419369665
Ni 1.182887070643813 0.4233450775723785 12.056913919893873 0.39670039185080713 -0.6682654499521459 0.8143976976682555
Ni 7.12458743552851 1.0335128899916004 4.476297929097945 -0.21170154897648705 -1.0121088459029215 -0.5855412341790368
Ni 1.7711896691545297 8.581384731207578 8.679967210052691 -1.561929229641581 0.39302448566111664 -0.4966144891396415
Ni 6.787951815630863 5.4593495457018095 1.688528426323819 -2.187780219183258 1.0776064133850989 -0.1633889779140283
Ni 3.6701449937966233 3.6703223423832876 3.107775425724327 1.339432646932119 -1.0160878851553274 -0.13396398778469185
Ni 8.473454115018017 1.3432755319415053 12.004659558953598 -0.4114333271856075 0.5509532117915221 0.3477149630910399
Ni 4.542597364688435 5.8787042800742375 11.499062073713452 -0.10933821881621168 -0.24971762320894414 -0.12445784806646953
Ni 5.732970412516718 2.2982136639045905 3.0023500916748063 -1.2112659825554946 1.7587757158831065 0.9949505889560801
Ni 2.3811101269660355 2.100115292600341 7.280993954348777 -0.6973392273896506 2.0503817517957206 -0.9693385448149305
Ni 3.110535529780995 4.11782883135467 10.211852963911895 1.9185911175132635 1.1732375670278632 -0.2645438895884993
Ni 0.42756504052137967 1.1065898418335158 10.024718468917966 0.7007125147372577 -0.6408891148217221 1.337250808789452
Ni 6.19705432727316 9.022105303205006 7.177166624406465 0.3197565302049009 0.9702744263656387 0.19067223911001355
Ni 2.9027763275716003 1.1214497865687731 13.457158484940086 -0.08545035645502058 0.3752360513294441 -2.223970553060886
Ni 5.016407449303004 0.23267761204937157 0.37947183747242264 1.2840564841546596 0.7222791851644399 -0.9529030249667266
Ni 7.485603819024456 3.407118371500885 1.1855547667526927 0.3084822428426623 -1.3786815651304127 -0.20799993175518372
P 6.1930033121882975 2.347983277804334 7.060306973585154 0.28585164992733997 -1.8788197511525964 0.18532922963054535
Ni 8.356376045411023 7.782093319382944 9.237791987238305 1.0776740333982406 -0.720763776961178 -1.223623732789899
P 5.950418448039678 4.5057741976151995 13.349464955808488 0.5769992581462965 1.7616448099007853 -0.7763474277637533
Ni 7.041046917073389 6.30731847749778 11.821568611735623 -0.17751359024086846 0.6419764343486298 4.01028509779421
P 5.781003877094377 7.521670921070331 9.45724966227226 -0.2703910923978956 1.050112064619572 0.31394609417071095
P 7.127014310924971 9.138221956789554 13.21432626618375 -0.19769237918158855 -0.24464792199552057 -0.29694570295797246
P 7.14819346582717 8.391724418974102 5.317091710442915 0.2936642039932233 -0.918360768215483 -0.1442921091835773
Ni 0.5582065433537506 5.749295816625992 9.318257841248831 -0.42015090956426354 0.09095380277175304 -0.8713028954957317
