# total energy = -340866.79449907003 ev
CRYSTAL
PRIMVEC
9.32792357991490 0.00000000000000 0.00000000000000

0.00000000000000 9.32792357991490 0.00000000000000

0.00000000000000 0.00000000000000 13.65235904016920

PRIMCOORD
 96 1
Ni 4.224299448951971 4.705741569709012 3.263733196452442 0.2427918426233883 2.8931230336036755 -1.5944739963468217
Ni 1.5733781852745066 1.0472086708563726 9.716247857648126 -0.7396881246695067 -0.18030143739865076 0.2793531866871899
Ni 0.09671377746755955 4.362390029923572 5.711491351333664 -0.6762944909042096 -0.6627882288876585 -2.0614632064208624
Ni 2.8866845326626853 0.3634093739021135 2.007988532806337 -0.26421941636954493 0.5324304703969863 0.6747546572209154
Ni 0.305171415699054 1.7331282048448684 2.232843727933939 -1.449143675706717 0.4949391583197476 -0.990541918365423
Ni 6.737176771275833 0.01243132378146801 9.830162326233737 -3.6606029836744693 1.0016897074521265 -0.5466584410709102
Ni 1.7765030495839893 0.2592192656693055 6.210676115569906 1.799769641796965 0.2068521913039857 -3.395696054319597
Ni 2.429476357417953 6.103279067203483 1.978418082202576 -1.06232017664999 0.07086757354483925 -0.37562763034090796
Ni 2.639970281371286 4.944862891190165 10.869749150716705 0.19644153749362298 -0.06709576520723283 -0.12891794072035218
Ni 6.444056100075375 -0.29462246690002786 5.424709937011638 -0.33433545646034035 -1.3353201674256423 1.3390881191085067
Ni 1.0035913001036567 9.6593447253122 3.7693206474475938 0.32880527067073045 -2.2248298157373876 0.34204002419344964
Ni 0.10097477296795318 6.643477778715733 4.309121056622132 -0.46976600148822967 0.8318130649312255 -0.22945578763611452
Ni 9.382025556689822 1.7059932750930185 5.317839916328604 -2.247388931984826 0.6536003917408034 1.6127725375456934
Ni 7.569470082392563 1.3806259720080138 7.720449988194383 -2.6163964859060553 -1.1127060853017094 -0.3195521275035787
Ni 7.414925044190895 0.9055548230696439 3.7081443933105938 0.41782200432077077 2.0235340354752567 -0.37295471149443515
Ni 6.2997717778335005 5.106963547507679 10.057842949419722 -0.6297801493927542 3.4120822089871043 0.8056371778668061
Ni 0.7625260393443032 7.993974557496358 9.650688412211576 1.2777066306772318 0.8595349563265262 -1.0363682326709185
Ni 3.1524184201740986 5.427993366118772 8.225055208834473 -0.4421472113296966 -2.2226842301492944 1.0523021302923554
Ni 2.9372791902680593 9.110825505948918 8.05060531446317 0.5605899635503377 0.3342382687608437 0.7589585428633445
Ni 8.553612661790613 8.685929258053932 2.1093709360356017 0.640989130734696 0.22903489804861202 -0.6973130021374054
Ni 0.1885947577180571 2.2505667827735794 7.82362055437773 1.9590176009594262 1.1198228988521488 -0.4109121645748149
Ni 0.8900527468391182 4.827872073401337 7.754786074965286 0.07668623710914535 -0.812415120020588 1.8969784243394943
Ni 8.613525915072199 6.255240270568002 9.720342816108444 -0.8688073827673876 -1.4505564968938438 -0.5582278910760644
Ni 6.320479768225081 3.1549929270876467 2.6393285202276195 -0.1628531600152163 -0.3554382998772266 0.20845578834567968
P 0.9056574302292417 2.3583322841221954 0.17125974450016845 -0.3389773261077259 0.33954553990637004 -0.10018174912792424
P 1.7849354925182184 3.092822316294907 6.346777050437667 -0.30885968078673903 0.009303536789113009 0.43226414788802975
P 6.264316340230619 7.392556683398548 10.687626106392194 0.2961260352701545 -2.2516145400303995 -1.3485155830699938
P 6.621613125797776 1.1191829293525135 11.711293896459726 0.04534680356591545 1.5971433156488686 1.1109736759916349
P 6.240147690183508 5.957213111554044 2.9934295591694813 -0.8079591411317633 -0.975993588237603 0.753009010148129
P 4.4559304477824755 3.8445690071272685 9.48078494780282 -1.2998577128529742 0.6711286304325539 -0.2903976174268096
P 7.528557809483792 1.5120097759113507 1.6522084676165087 -0.6100865276185687 -0.3635143920171417 -0.21252507331904688
P 6.453495958758384 4.875229941517577 13.352102708644905 0.5056061511152905 0.14350766560906897 0.04713526292490591
Ni 7.145264100843962 6.57750137509427 5.543731443768145 -0.2862450287110167 0.3656160117411768 -0.189021590880468
Ni 6.535852196221114 8.022247493927384 3.093692611566769 0.9047909999508482 -0.466377544631971 0.6223656020962378
Ni 9.217891413027548 6.559293268227439 6.797291507707175 -1.730878732362522 1.1160968561508133 0.05931920658560751
Ni 9.466816382212103 8.982827738312313 7.262590723882383 -2.5974325432090426 -0.8779314565558428 1.8462937535004331
Ni 4.6087778038889775 7.932363622119606 6.663893805098638 0.09702340600460066 -0.022667616800844833 -0.27872018108888125
Ni 4.67229163568009 6.335917481782768 11.718106079064667 -0.6229638978018691 -1.1424306089493357 -1.0674981213065033
Ni 3.7739099858587006 3.8690454786531725 5.425529861496061 -1.6792075292404758 -1.5684911991298147 1.6940175976701148
Ni 1.785140706837414 2.730712322150247 4.1195991032982535 -0.2329496597219859 -0.9304493239489009 1.0549909899784282
Ni 7.309752705603026 9.296973549306745 -0.07666154010504603 -0.8720230614912079 0.9258426784148249 1.3807929550464608
Ni 5.060286617814225 2.947241412672658 11.298255305044817 -0.7375394537576201 -0.6697106670391048 -0.12356438971792268
Ni 0.6551308565626001 6.794888634587864 11.632533573544722 1.0630706816627693 -0.9086530540094158 1.6502815902347452
Ni 7.593209647954081 3.967669614873973 7.09548563655357 -0.6788954188621663 -0.20929756752068468 0.2419225526445576
Ni 7.129415958647883 8.133930723187921 7.794091146637808 -0.4569706494957743 -0.05403790358201016 -0.5985191344959435
Ni 2.746150035707934 8.045567302926912 11.585515241847515 0.0962289351277633 1.5441515939431858 -1.6969537974803033
Ni 6.599841752115818 3.245436474311413 9.218864315459008 1.482078478761525 -2.7425173234972444 -0.26465907501012487
Ni 5.312886788897105 5.523082219295244 7.099281168666334 -0.31875148597915426 -0.785062696149564 -1.134285354134382
Ni 7.9607391657102315 3.0255959709110694 0.2125302096751719 2.3070752921018656 0.6064031652297105 0.9178162085659225
Ni 3.989273085931135 2.5175039724293686 3.3687880032029525 -0.4304803165147296 -2.3327667833306984 0.8340054445968539
Ni 8.964321137890288 0.9179479023643526 12.128387336263472 0.22405415700456896 1.773466999346694 -0.04445848742369118
Ni 3.9370180579249943 1.1033907546980337 13.489868677875231 0.5248917388177798 -1.393181815629117 -0.4876405677758053
Ni 2.33985366747097 3.0508559880193573 8.52462893758128 1.0909550667778631 0.3239903657805904 0.6919892759316469
Ni 4.017704597063359 1.4259316969322955 9.57157362819978 0.3581662403313509 0.22227701049948817 -0.09678480763123332
Ni 4.693839139195653 6.840287638748143 8.871084810340738 4.167541737558255 1.252371751456869 1.571206284068133
Ni 4.946159472570538 0.31027472270051054 3.4011708227720563 0.714199493480099 0.19480862987589032 -1.2636774062776752
P 8.912803015848533 7.938967792028272 13.455832950244242 0.2534488081166022 1.7185320378717113 -2.6088199591103782
P 2.6198779339372935 6.303848080446617 12.747712958088195 -0.38983477507922537 -1.6153626668703729 0.8837056400354587
P 4.278643931844469 3.3089129944081264 1.5110704540048499 0.178230413802235 0.36272223513314944 -1.6742229315416908
P 5.255062990501877 8.91731773087084 1.0046388259239154 -0.4193952623451616 -0.42861832360532637 0.5944241384909633
P 0.32639430747334375 4.39699662647887 3.3662620014921236 -0.6155573209251528 -0.46817191752823245 -0.6953106269953961
P 3.9366635968282018 5.982183963030738 5.232430649471656 -0.2900816288482875 1.293976057261217 0.6822129132711734
P 1.332764396017384 8.116823311305868 2.2036547894054106 0.9489142155223077 -1.4246251217400627 -0.5027838511751469
P 7.245651214625126 2.8150927190341366 5.211555689247639 0.9994088818377498 -0.37583408992475914 -0.18073775360512098
Ni 5.042628858439784 3.036211147967654 7.57207630424635 0.39671504713882644 0.13300805162932577 -0.9413852541351142
Ni 5.8420412388671785 4.5055923130278694 4.978496585314003 2.3289150136847763 0.1685262991405936 -0.7676555564167102
Ni 3.166419633497415 8.084063643623331 0.2615269939678987 1.6637986508845732 -1.6837874353016742 0.9360885245125491
Ni 1.5348258770364882 0.2277104725415042 13.490100943172868 -0.9396808698494978 0.6865794177699853 -0.300153925482625
Ni 1.9001073652050837 3.3316078325264664 1.9400821817920733 1.3155213875321603 1.632426564331195 -1.2095623696008264
Ni 3.47496869033196 1.731719688381297 6.597870761859178 0.06552482117568714 -0.7536361022091667 -0.17251099481995452
Ni 7.987071894032497 4.938613182378291 2.2079008602280443 -0.5375392523784613 -0.17615630488202566 -0.7176134042576545
Ni 2.1181009397326647 6.893018390857875 6.918060134553928 0.5154953852045445 1.45067296786705 -0.714447347824847
Ni 6.7547225955670775 6.8722730887718955 0.793068459587164 -0.15909343586246794 -0.3837687713908036 0.2256443843098243
Ni 4.4011102407863865 5.323679196502086 0.16584301926575826 -0.5304985434815961 0.12496949759556543 1.496770276445745
Ni 3.169563143750551 3.2411642853026996 13.285929485835487 -0.5222404172378619 0.42501003742877774 -0.6122693942025004
Ni 7.287309721421883 3.614514427385132 11.733560582884834 0.6536811243800678 -0.566026818295193 -0.6405818679939483
Ni 2.5829859961000414 7.625428296067828 4.369655549615465 -0.6568011580662882 -1.4277443840953346 0.2416829258299257
Ni -0.021290052824208438 6.432582754047608 1.0068140977073914 1.0590381634646084 -0.8138173996847533 1.5163409994888206
Ni 5.4302600515535255 1.6954247376544327 5.163486100560733 -0.2298080287692107 1.7662619969578228 0.9146162135713861
Ni 1.9639103626277905 5.02501773868334 4.375430467116107 1.918864939999941 2.0371405705150982 0.3919603060626604
Ni 7.7953084406675845 5.989935467542181 12.10819518004696 -0.42957451687100856 0.5593339796560497 0.04749958824286014
Ni 8.761382832052801 2.5102468478687157 10.177000643860787 -0.28090510455534207 -0.18920079677080964 -0.44112905447782735
Ni 8.179898730687789 8.269381501780774 11.196490456947961 0.636530323632394 -0.9572317342490676 1.034428078225412
Ni 4.294118957096556 7.420391207420384 2.717051578038324 0.57199949093886 -0.7059125708809585 -0.9157235877029519
Ni 1.2796511990400607 2.9837042660243185 11.684999412624219 -1.1846609783734565 0.13625586914266213 0.21624854491722112
Ni 5.751877529351407 2.812667458898186 -0.16945012732180514 -1.3693325198153452 -0.5830644905037701 1.4579643593221407
Ni 1.1185766143185258 4.666125878180615 13.46141757810345 0.26680260371568887 0.3559337514564063 -0.2092356039344977
Ni 5.551056662171077 8.34706444952 12.386594522222197 -0.9889522052808 1.7098607353499586 0.9447176609424568
P 2.8759480925993026 7.44875742308741 9.323960165073359 -2.6448040905144707 -0.3660227602612922 0.7302917710562713
P 8.691367437512621 0.3914472466584251 9.529415144698072 3.0100737746598223 0.44843484411062123 -1.637332743383561
P 8.444046871187235 8.737932432122877 4.813248687573912 1.305467345730268 -1.283907103060989 0.8500221317400846
P 0.6834280455949865 4.30232752986439 10.015766551645696 -0.31509203484969606 1.0667319325644402 -1.1895787273900482
P 3.1090529033585774 0.3072832576020512 4.3173809329697646 0.03326621825229755 1.8853164146205337 1.420460963060044
P 5.428655648694358 0.4706627722450994 8.076025771857374 -0.7465414001459143 -0.1259586009817121 -1.430376422401543
P 7.199785814284856 5.97520667617808 7.911323557647873 1.1089304203093613 0.012879684176145559 0.3764460124771452
P 2.697551553752919 1.4977940203452387 11.50188014605925 2.2758140200947383 -1.2761086900624927 0.6367483531804712
