# total energy = -340871.6438963884 ev
CRYSTAL
PRIMVEC
9.20041082881220 0.00000000000000 0.00000000000000

0.00000000000000 9.20041082881220 0.00000000000000

0.00000000000000 0.00000000000000 13.46573123974402

PRIMCOORD
 96 1
Ni 2.114291236339936 5.256903203365493 10.119079335962246 -1.16262173918523 0.5457642113914148 1.028687319086893
Ni 1.7421622149293368 2.304445329709389 1.5959584846344859 -0.07061406277313645 0.5292582433165918 -0.12560301741450625
Ni 2.566362628434065 8.138876728787448 10.394022576499987 -0.12395288340559298 0.4653262205493212 0.7516231855441958
Ni 5.0467750178388355 4.654368290709915 4.7046706174995485 -0.17178388684594287 0.711416274308007 0.753956975883695
Ni 7.149105719952902 4.3705540139409536 3.6649146960529015 -0.13538400806067005 2.568105254999835 1.209680640346246
Ni 7.421529887974458 2.3520298551064673 0.6077947875916779 0.4381316624124003 -1.0598837992943553 -1.1030515929310811
Ni 6.3227616106984605 6.942676099625322 11.969554308758877 0.8387349888620393 -1.3743433427663752 1.0446821518532525
Ni 5.478513501748985 6.921975175003623 0.8482208463946529 0.6410752626905991 -0.7853725140804991 0.925517176754606
Ni 5.533430754667616 7.115478217956321 4.759395581829471 0.5594895313973074 0.053574847902662565 0.27732587184451596
Ni 1.5390263417193428 1.6544086953552202 11.348703217998018 -0.959010423416045 0.36289604170685247 -0.14966622901129709
Ni 0.9183979009033059 3.402219962603545 8.788463463046506 0.19576533736220478 -0.9332723952199927 0.3036822503508576
Ni 8.387260223015003 6.567483341370711 10.015352982950025 -0.0966454538398916 -0.4031716013974476 0.29876578688584676
Ni 8.903927700339775 3.525505469239439 2.414702134408934 1.0703998683343305 0.26775185500283566 -0.668005768532856
Ni 4.018619894550189 7.224328279822683 12.668667775165074 -1.3069184763544976 0.9901577955531269 -0.2603869299973322
Ni 1.3149687340250187 5.620365437667808 4.140483937695394 0.2735674332433482 -1.047800642877576 -0.0032105365174976966
Ni 8.69204223632301 5.655759418565441 7.711164344705946 -0.7684266302547799 -0.481781537891867 1.4086595995497417
Ni 8.003667489569454 8.575252219812857 5.008296139152023 0.9576850197364022 -0.1401030108028942 0.12358393010194844
Ni 5.120801524286031 8.35248266965055 10.564715040601762 -1.5318864034225876 -0.005589321162319407 -1.0650506882072754
Ni 1.6853588777673956 -0.00865390653296437 2.5697060577707425 -1.1664976772008684 -0.37428731426292955 -0.37934133174706924
Ni 7.397148798975568 8.720692315999441 10.983162610863685 0.836236905030534 1.6563825609261604 0.5930028326634045
Ni 0.16416845270210825 7.519440661229621 12.11009610615942 -0.02649907473179307 0.3062996333690467 0.04263788927518463
Ni 7.1770933700414385 4.579596550976339 1.232370204702252 -1.8691742576430326 1.1430479308183605 -0.44705776125743646
Ni 5.201378723324625 6.047862532133244 7.241291077478251 0.9543608404591758 -0.8487412081451319 -0.35491328061169203
Ni 8.651956045844459 8.026318901311065 7.607922853350421 1.0829928745079929 1.3723677070972429 0.9072823989141343
P 3.864476209611549 6.375562769100207 10.73620058012682 0.029224186972439992 -0.35708072057665596 0.4065109501833257
P 6.993554372139986 7.251561496213896 6.5661060398525475 -1.2342156493731324 -0.006114083317537857 -0.3096906613284666
P 5.947421645868761 1.5917078947788301 11.300980686436796 -0.027798510269506967 -0.7402154579278865 0.7264726544204972
P 0.6464328333878051 5.0477318605769055 6.137169081074536 2.3979046534806123 -0.9565403646089978 -0.651024146373195
P 6.10962489079345 6.1413755089576645 2.7772664086032144 0.4518153305470799 -0.14535526034076904 0.42512496574008724
P 1.9199325551695425 8.887109349136013 12.427281193459653 0.571415593410932 0.2540126510398722 0.08894217165836293
P 2.7813578313495566 3.2010713781572337 10.21872622676235 -1.0464700969916108 0.4772625669755909 0.1558556456514606
P 4.4976392902962985 3.701297721126905 6.586089332420694 -0.22940873644826296 0.42123925753243585 0.6219238865731289
Ni 2.6568210688254164 1.3302138149575318 9.327268049141175 0.41480584320226627 -1.2811794197171806 -1.0783026681211751
Ni 4.026311438098518 1.4681831774584182 6.875023637879422 -0.23076833579995093 0.04399671729592423 -0.0004072627407476857
Ni 5.7421880789637685 5.787408098748502 9.934397647021674 0.8534362996279561 0.6097821090042724 0.7128203537443853
Ni 4.67929220395444 8.267498473770269 2.7594783340860625 -0.5930951352668947 0.0130383212411969 0.3530222342365662
Ni 3.7103417250838517 0.9125473595846666 11.679408309178957 0.7734639355683711 -0.14121629847173098 -0.3981270969950047
Ni 6.672110414614248 3.866242688512601 11.972435877466216 -1.211600740187094 -0.10645575506209409 1.1894476011288224
Ni 0.83793386691931 7.512991173158594 5.922336725432734 1.5594450297671465 -0.9561197321318113 -1.2324259044625614
Ni 0.7101742004418455 3.922411197319476 11.762666507966335 0.572809131324349 0.7381917426296384 -1.266995929127947
Ni 6.674907339540913 2.6167348783468647 7.721182672181754 0.295419239011117 -0.033551867813516406 0.7781711112360534
Ni 2.0794768813317104 5.926352704809345 12.583241039518436 -0.6077522230584372 1.4025046356919395 -0.3583215349622926
Ni 5.74432257430254 3.0559164947098822 9.772902833739597 0.024574604015570583 2.726574684125059 0.6410153559869413
Ni 3.0932793635493128 6.10662555682604 5.796324216993342 0.46353750408001465 -1.1752294006469113 0.022215359754774643
Ni 2.6564806536205268 3.994928836372023 13.387252991290989 0.18341350066507123 -1.716292092797599 0.1264360548387629
Ni 2.0575799032874245 5.424369083349564 7.800348528181695 -3.0811112981236226 -3.7071525492992348 -2.9463950055539385
Ni 4.272100416440154 3.5906351783047747 11.622501927414454 0.3856104525852327 -0.40767797390823335 -0.8437404124964308
Ni 5.7907478479208025 1.026931468633231 9.084319237657635 -0.4183745343901311 -2.730061871342711 0.004067228090838156
Ni 9.087153884269165 5.5462009250564686 0.2811102759928202 1.480620663269076 0.10763229186869851 -0.26817017348717687
Ni 1.7072190541679093 8.998756335929041 7.494191053437714 0.721301394632203 -0.3214447165406012 0.7685317883740764
Ni 5.003965505721163 3.6937809853864927 2.08304112053102 -1.32130328432126 0.6637837600317084 -0.1527700647476014
Ni 4.229714123225858 2.1489031823074165 0.20344960722314948 0.9545673000430271 0.3294439326959939 0.6138166840849623
Ni 8.179514943922578 4.014847726063569 10.181156348676701 -0.2856135657746049 0.007827723574534907 -0.863501397173442
Ni 8.750188833482627 6.148745038122989 2.458451928524979 -1.6353110849678418 -1.7727555751019664 1.0694781278510097
Ni 3.8667671119363503 5.8470635633027666 3.121948764088724 -0.35024724259459034 0.8239388043894712 -0.8917961303530769
Ni 7.129380038891158 8.226427839320818 2.691274767724678 -1.1111261424090992 -2.3127576871986233 0.3666729922507814
P 3.02522392380411 7.0303376150900085 1.3954806101459178 0.12756785445036095 0.38357439599181037 -0.39394905435791505
P 4.839719769567133 4.415084002904964 -0.020806729347542973 1.0822649952030328 0.8439802964213787 1.4796449296193679
P 4.0389896043779405 8.97879144418278 8.498829006315017 0.33474580452488156 0.15445156621508238 1.6654953218607056
P 7.61400248490154 8.68147096414953 13.224613646887603 1.144118281064404 -0.1287114811365009 -0.39437380060015953
P 1.8509110722753273 1.895799877266113 7.397063235153798 -0.8170415630490058 1.1406290369642227 -1.6466131402442221
P 0.6333231678351569 1.9646925544071268 3.507756036448248 0.35419825682253836 -1.2293125556445603 0.309589359863912
P 3.0794603463129606 3.819200987361158 3.271903501925027 -0.6231155928883849 -0.48086236851170744 0.19077482612614885
P 1.012367218110498 7.011375568136533 8.772802523539369 -0.003668449990522715 0.9555941986456447 0.8603733930674214
Ni 4.486111175384748 2.4383941126281945 4.395969229129834 0.11797198323180974 -0.8559276985912421 0.8712393892476479
Ni 3.5638987841044836 9.157693434968973 0.749740567702119 -1.8161465404930914 -2.0703959901341182 -1.3971102041492456
Ni 1.7223169285253348 0.6207931281719162 5.064582413218968 -0.1192163971618721 0.649736537910023 0.06926397650314522
Ni 6.756487383372292 7.962992472790553 8.848736275175042 -1.464637400466942 -0.8225041288254739 -0.2410506915625655
Ni 6.253500917119728 0.5847440780151428 4.252208207940344 -1.5810857479653737 0.8987093125331426 0.9363847155967292
Ni 3.3134083957709857 6.795524727003345 8.597451891377167 2.9779380704675424 3.4612453009753166 0.8878291752855291
Ni 8.211467971127538 1.8909420602882212 11.621613167717362 -0.621600184685123 0.3887518264276918 -1.1034460001560222
Ni 8.991037191147884 3.4265458491367764 5.024885400123305 -0.37661056307946755 -0.17670292141411503 -0.9948068642893643
Ni -0.16805102612004463 7.886058636485377 1.0816159511550045 1.2142253222941348 -0.726555958162923 -0.8704474894739719
Ni 0.32288382183831393 0.9587932251895417 -0.18408182214708815 -0.02490653343369259 -0.689492220541406 1.0359404011048805
Ni 2.5885540196285257 7.674743597947076 4.15179492290869 0.6485582013312057 0.6832860917306942 0.04544244860351528
Ni 6.954618233029306 0.302481910572262 7.042685486616579 -1.3130803821908352 0.6134970959620143 -0.7240141655776757
Ni 6.700199269223157 2.4642380669670176 2.8522442375419126 0.4174255402133004 -2.6845307196801316 -0.2801047201412338
Ni 6.97347907546241 4.410980619624396 6.226998213357388 -0.38651239557421174 0.47173906605420046 0.1394715478664824
Ni 8.906329007595893 1.5829767047939451 6.630337788809849 0.962015528790956 -0.5873060393889433 0.9246797684549753
Ni 0.3939247949345125 8.926183494410838 9.917282122544455 -0.7192193152921936 0.4172548189633911 -0.40527656355559233
Ni 8.238480377656119 6.061681549369596 5.158882945220108 -0.7439186178110866 0.46130090144001196 -0.8490050033294798
Ni 2.287185358780364 3.2113666380024255 5.417048316362237 0.10963955210671442 0.29570823100644555 0.40695857924370554
Ni 3.6062206744421785 1.2543564267326848 2.5299013998670463 0.7274401605400891 1.7968704658722991 1.5481825694794498
Ni 8.447973734827709 0.5410099245977007 2.034403148080971 1.3105938683235556 4.182155887927004 1.0208354271426419
Ni 4.076453677737744 4.507916149319604 8.861407081125712 -0.08129133998132451 -1.0025618256444346 -0.87805384106632
Ni 4.186104175356147 8.063212549192404 6.64381639084131 -0.03748848386376124 0.41584636865163865 -0.6859582392462187
Ni 1.792552865664023 5.11909944826158 1.8200823352875994 0.18634738648241453 0.17983118263045159 0.17868832727526002
Ni 5.597005594283588 -0.023091191384684216 12.95920479221007 0.3330622461748715 1.0471375553722804 0.31291096803797724
P 6.8325931826926 4.714630982386416 8.524670200530556 0.20537406409656242 -0.6282228322079633 -1.2048266546880542
P 0.31399254470302074 7.604167245603498 3.6964104628339958 0.7909353528802572 1.378664081628916 0.3353654403867515
P 6.967489607938532 2.3251002522763735 5.687588240222671 0.5666906771314368 -1.5057650237451874 -2.4202647663433674
P 8.570468006122509 1.512648763545827 9.071607029857724 -0.309975282448421 0.5308816378526278 -0.14040922918940335
P 8.056983870984007 5.483711733931767 11.990291114983252 -0.16053839583911061 0.627778288471377 -1.7786148620962208
P 5.61996981999726 0.8699926988501141 1.8099830441954932 0.47993805692522507 -0.1388177163325674 -0.4837306911984378
P 4.01670620907405 0.11938085223169517 4.933534519870483 0.1419215520688717 0.49630698520155175 -1.4521840051949377
P 0.3067748223182551 3.4134536643649196 0.20133719287064192 -0.24111188381780413 -2.017291396999655 2.2035117709859016
