# total energy = -340892.39218011603 ev
CRYSTAL
PRIMVEC
9.08827144696667 0.00000000000000 0.00000000000000
0.00000000000000 9.08827144696667 0.00000000000000
0.00000000000000 0.00000000000000 13.30160391919111
PRIMCOORD
 96 1
Ni 6.545200394646636 2.176023001010903 11.545632761756321 -1.049134016977019 -0.3746344131897032 0.14499813411166643
Ni 4.907702916226285 0.3652394515546217 6.130070877169125 -2.1111734291617967 -0.42962028250727946 -0.038092178886031176
Ni 2.65656535198509 1.4752627454229004 4.836237293968403 -0.2661397733207094 -0.20235558898521278 0.6229294450195078
Ni 3.4537249024531538 4.408447814412271 4.976808314398152 -1.0437447276406475 0.309153557878074 0.35321095320860457
Ni 5.005965306746056 4.387672025961642 2.538358749849 0.5686519146228659 1.771623775490368 0.40916844241083083
Ni 7.2437340237384 6.05496085807454 2.5122072488574494 -0.11077186593894471 0.6456245726241784 -0.5842212298160326
Ni 5.066729489414868 4.4725746575039755 11.526331999756058 0.6637066269368699 0.7227173011431229 -0.40406325997378156
Ni 5.757065497691904 7.9137940984925335 12.420492488671739 -1.123320627592762 -0.7596152026107369 -0.729061498193596
Ni 1.987923047571419 6.509238104664511 0.5526923200694848 -1.781952411109886 -0.01367981147993773 -1.5482707583178819
Ni 2.490904340664854 1.6804850022048976 0.4511754195566381 1.7229576777432327 -1.2642980705808098 -0.56394962405119
Ni 0.6050216780396837 -0.19665019918504512 4.728081411188196 -0.23044720501510635 0.18511454251657797 -0.4034374534643245
Ni 8.458745028972235 2.430121981453216 1.4996093157117847 0.5897794406301003 -1.227234590069609 -0.2465780491386979
Ni 6.770425936809138 0.7117379786280355 4.991599476123174 1.3839402424261906 0.3069398380562069 -2.1897566261833386
Ni 0.9670556962668615 7.434187839473909 2.6341300451744067 -0.2660364149736257 0.3628158232882203 -0.445896908180116
Ni 7.406468611663577 4.151849559331322 3.7963709112745017 1.1850728690998946 -1.2432787880166651 -0.34705933178491194
Ni 7.706908688041916 4.002156640884119 12.719911043343231 -0.31086796946601947 0.030831897779192062 -0.7188693881519426
Ni 8.047355335181264 8.898017539458973 6.834537329839439 -0.15643902895875636 0.26715021686309476 0.6779304838457357
Ni 6.671754574075772 0.5873967932880196 0.40734450418494433 1.424702254834901 0.8885030614241021 -0.16594285468413356
Ni 2.060256599749264 6.5532707796615774 9.203526144804467 -1.1601483379440727 0.02714339318401132 0.47117342335871754
Ni 0.031540845939591784 4.691883734976469 1.2403191146382384 0.43143265312566986 1.7369856165912085 0.7874857037687599
Ni 6.548899321111818 2.1034622420477276 7.113444564758429 0.004638012992643626 -0.006425443910369579 -0.0228427089261284
Ni 3.224082460383825 4.365014965328476 13.84603875415574 0.35831125054964746 0.11887701154458238 -0.5192939330150282
Ni 5.688021899765645 5.454853208387985 4.973097573180133 0.6624624701171237 1.938521023667971 -0.9659354326706525
Ni 5.36554276521024 2.857697886631137 9.353688018056591 0.7140498552761122 -0.6670066378443802 -0.11761511411302324
P 0.17687502941701233 5.74766822505063 12.489886893874548 0.8886344447956437 0.17476688073366675 0.32833938677790553
P 3.9756915945288123 6.193702409468808 12.523912473218514 0.016176609759862463 -0.6660062216043239 0.673446222822137
P 2.4798530026263745 8.609392215917826 1.2106786262511517 -1.1442789750119842 0.28651987963895814 1.2671710212532306
P 6.326709261601332 7.7190051772929165 5.845509828603969 0.7689819885376177 0.024218249117416355 -0.5729618548521294
P 4.728491292228933 0.8703401295416208 12.846277095554115 -0.3830712311031467 1.5060768985586515 -1.4017757279457148
P 4.165754614593554 6.056305922243697 8.235887890340019 -0.716004922119954 -0.14298418900543117 -0.04434458755364621
P 4.791000423009083 1.0631823430045253 3.895667547081098 -0.7389689871152951 0.289872598161275 1.4293508093505063
P 0.27939709274816144 5.511309550406929 3.3611290491595267 -0.8689765613554001 0.6204493589101314 0.48626477047420125
Ni 1.4617303092886107 1.2138477064929425 2.566065254079353 -0.1723536433064838 -0.9323401132137104 0.3406644840021617
Ni 1.9773988292749058 6.42580777309112 4.748885373280206 0.3660021914360019 1.284639610351639 0.17029187568144866
Ni 6.163983761947567 5.58095297424646 9.212504448133592 -1.1689373969906127 1.651455298827872 0.33103853087662344
Ni 8.802299864934906 2.416071513848373 10.353423320671121 -0.04533060561599935 0.4554560126234608 -0.723355191837438
Ni 2.1011719976515955 5.534993585709789 7.0813747814225865 1.9350248375892545 -1.9992134564520214 -0.6190941304338176
Ni 0.838195822380191 0.15128881890736454 9.444404416821964 -1.5681602981529574 -0.1251448468311651 -0.1647838013790259
Ni 1.7175742378422623 1.2595071820729768 11.373071025952024 -0.3808132883069054 -0.6864084394097597 0.9264540867465787
Ni 4.078352708412584 6.861917565126058 1.385388829417534 0.6538528740712417 0.5786851304891517 1.1805675250303733
Ni 5.843385899574699 7.866144291473003 8.004000645231624 -0.7304501510110065 0.7873589483829084 0.6868720093097397
Ni 5.320801205042941 3.143733052819517 4.88794047003823 0.8554888112816106 -2.2930892622354184 0.021496479310879106
Ni 0.7045736942729914 7.286021750624128 6.638963181989721 -0.614452003676116 1.2727292320672985 0.08588358733769724
Ni 5.248549447307815 4.47351983773095 7.147537397310853 -0.07422132050842056 -0.2197943532869505 0.34529555501626985
Ni 8.33619877723633 7.507930073720803 9.051155821598929 0.023778076256204213 -0.32780665420288707 0.07800675569278179
Ni 4.939584572343873 0.3299878643970108 10.489884624767813 -1.1192821958573305 0.16469304143743252 -0.0698545588992926
Ni 8.126941327946861 6.854855978237983 4.698232801385746 -0.4399900557773777 1.102024180107831 -0.1537095458427353
Ni 7.308224397686632 6.193457026140651 7.056301149420644 0.7942567039440063 -1.1146678370137706 -0.4719262423643421
Ni 2.352544496669941 5.071982510291711 2.8782273829264673 0.6184212727365092 -0.09050540238042477 -2.1621239520677342
Ni 2.209331515740367 5.334024639949181 11.377114397903767 0.6826070633857987 0.19497806557421904 1.4828562374678138
Ni 0.8963934772019082 3.3685041814113577 3.7755933051695907 -0.2950968226746918 -0.8042073873988149 0.2792122902339514
Ni 3.6201675051149267 2.6699341992339414 2.937632869019002 -0.9225223557923403 -0.3210384822411181 -0.6167827086918217
Ni 1.1574095410168255 3.384981217483532 8.196448427715193 -0.25986216784211374 -0.13558532543819876 0.15169380096428714
Ni 3.6476595261399276 2.660418779064297 6.73303224407943 0.509190268922123 -0.4525851188335689 1.3423202528925593
Ni 4.151922265502627 6.887719167668199 6.136801650977758 -0.03134534708050086 0.13265555338591348 -0.534397621425686
Ni 0.8237391090431765 7.7408897348559575 11.5958590937215 1.373429572702854 -1.3359158920281122 -0.2579536379654912
P 9.318386445406208 5.774051476963217 8.096340209271398 -0.7187380047804008 -1.0327206086160021 0.8487077838040351
P 8.595977927311907 1.7404403287179326 8.087600927480441 -0.21277215633284643 -0.4708890593490794 -0.018991967721470517
P 1.769804533654057 3.3373768518210674 10.543928939553686 0.7344009081286385 -0.668305816271778 -0.8215332802717722
P 4.022932429334748 6.265917814118281 3.6830946963800857 -0.34175848839728884 -0.48838927301637175 0.2146076668796885
P 7.004948780627368 4.096620133953163 10.474228259604253 0.34582083139212055 -0.6106634831679612 0.4032641611112539
P 6.459997850147667 7.817258479541275 10.165657815619644 -0.047448680400266674 -0.567100768085662 0.6943505770749719
P 2.510425947660458 8.471732168821731 5.823695250730809 -0.3124247724301781 0.1636795125712536 0.03942298188231275
P 6.878485483912364 3.9096562144403313 1.5067926854367963 -0.7024688353067321 0.6091092513069639 -0.044728453255626195
Ni 5.063648565405784 2.864159647605939 0.6172635796332956 0.3000983896543412 -0.6782978944874835 -0.8237153755247556
Ni 1.384934415846873 0.7356274088648345 7.21408535590704 0.02124296853917632 0.9129236563603117 -0.8709663380919194
Ni 7.113062857359073 0.7508757106419406 9.525052828515767 -0.004954772902114047 0.4470744734279849 -1.900460469350824
Ni 2.8351771500691694 1.531837234970216 9.184956988652969 0.9246581711884204 0.18873696976051366 -0.19656932132073887
Ni 6.277469007084488 1.953069526701707 2.601447712345314 1.9867598040697012 1.1449981125661959 0.8428526105748386
Ni 4.08863154338094 6.774552012030742 10.39953993630324 1.4217570561636483 0.5388916526412977 0.12283753885422714
Ni 7.785522235766298 7.238426473233076 0.32215195678452957 1.499189941630831 0.18435555286336638 -0.43459408157278706
Ni 7.654451185444791 4.012626329552153 8.300161054601475 1.3144474377416913 -0.6843417866887181 -0.3801538003460356
Ni 3.1628729524157655 8.393164062454414 12.416914436216352 0.3690558906606612 -0.19468213160035505 -0.17732692815135911
Ni 0.21193303639352157 4.9445649450783185 10.265526103698132 -1.1356920046739214 -0.1616614536999603 -0.7549771896180933
Ni 8.650334878634396 2.079469205516818 5.65201144194503 0.9051589248132282 1.1888130528686172 0.6515039142230908
Ni 3.61935864895915 2.7573633702291507 11.720136661161623 -0.01740174041621519 -0.8163270534804843 0.02621471072215485
Ni 0.96414744941463 3.2365606570341807 12.728065040455176 0.6568317541939075 0.9641305182514298 -0.3975300868409541
Ni 3.298551756343777 8.259521031322965 7.946364645583243 0.10962746792185635 0.5553935069510629 0.5203480853111555
Ni 5.529758741375773 7.933388411659442 3.70850005028861 0.12316946827234918 -0.29149830669015603 0.530218550347332
Ni 3.010498993901662 8.49380758008445 3.556303313067065 0.5436548783578959 -0.49708063014278264 -0.35008294910258414
Ni 3.4756094600161953 4.12198549946747 9.389429463043376 -0.5172990140721865 1.1077322862362018 -0.4338271214997754
Ni 7.4376050295252805 6.203663154937701 11.35978215549161 -0.5016841903530651 -0.056134895320354934 0.08028860974842301
Ni 0.3425224083301285 0.14267768174333537 0.3587349757041777 0.6315644949866865 -0.005667225588106369 -0.481717517423151
Ni 4.773151057953512 0.46366179565126575 1.8253256925445802 -2.169109896467264 -1.4007840534564069 -0.8752909336092022
Ni 5.940757639495974 5.593294846825618 0.25800421066857493 -0.42582713401343436 -0.052826656882728376 0.6315099875996673
Ni 8.01204740074089 8.828683116847492 11.473430989513968 -0.9633039085850765 0.9480577810592834 0.7120945313219543
Ni 9.281760711610918 4.990824246571626 5.5608688032503775 -0.43900249505312783 -1.1691811375703025 0.7604559533444775
Ni 8.05949726578933 -0.3057503533650853 2.2233229095810243 -0.4584888859125136 0.2887323139092447 1.6049612690313908
P 8.58828924969632 1.4570589377822138 3.563166775638331 -0.8044688685903177 -0.39484739780246836 0.1136324753161914
P 1.687528412550146 3.2438130976219326 1.6667308122481255 0.3840428509877966 -0.08715808317474667 -0.007247682701348809
P 4.759509562562264 1.0783143149075423 8.126601426596007 0.07643889698502965 0.4786987852014853 1.2113534000629782
P 8.507676282261029 1.7861725104692725 12.419295563326617 -0.5217503649753208 -1.6135214998965761 1.1835368920713425
P 6.085442920394491 7.729665719660627 1.5822253381665505 1.1710035354910222 -0.03110957692061094 -0.7506219979731912
P 1.7509827235572717 3.327870519922836 6.04124302120342 -0.4221951936878019 -0.0391779557510422 -0.632299316270182
P 7.18571449903638 4.086195886642196 5.927686887549476 -0.5505675463173292 -0.6135929981099304 1.3014559105780297
P 2.647349844772082 8.458545087001143 10.193896892554813 -0.162822563887597 0.9014933030361828 0.5888451017412891
