# total energy = -340887.89188784553 ev
CRYSTAL
PRIMVEC
9.09727367292315 0.00000000000000 0.00000000000000

0.00000000000000 9.09727367292315 0.00000000000000

0.00000000000000 0.00000000000000 13.31477958683722

PRIMCOORD
 96 1
Ni 6.4087291650812395 1.3863699398032705 11.442481816036137 0.17719605900044966 0.2858141118211852 1.7626951055421707
Ni 4.761067327886803 0.3848537989974638 6.024964309754751 -0.0063141151434859 -0.637881952564282 -0.19765072731037572
Ni 3.0157007703392855 1.830498845542313 4.713871581264852 -0.1966323133481904 -1.6643378112174951 -0.09278828487733051
Ni 3.6010648514490504 4.1321636944856195 4.52902225595775 -0.8119206968826727 0.5387229882739174 1.5645340142542798
Ni 5.299280239016118 4.4451463014714045 2.947745954688129 -0.8293432632344943 0.006472495098221112 -0.4034510803110794
Ni 7.202802901157516 5.912145378750405 2.6572035929253364 0.18490576893988153 3.198890448618336 0.2220299274856886
Ni 5.202203230553576 4.680529163148831 12.101070763495432 1.0549817340070478 -1.450583236366721 -1.5134289680483484
Ni 5.7466022878505 8.002016596917171 12.859068350686032 -1.0460854599586822 -0.6839990586373188 -1.8719258522462408
Ni 1.8131594417254633 6.08574865421575 0.593224125652135 0.25831642062154864 1.4691795113116697 -0.3417772574503662
Ni 2.59275031795052 1.736496715616022 0.29209799557846994 0.5892042848529208 -0.8988738631354648 -0.3027936770983172
Ni 0.9106552995143311 0.10423292401465906 4.654687447261034 0.10055738729978811 0.7351997498808499 0.17439021412053837
Ni 8.719072813206747 2.374161023663389 1.3085063735554114 -0.043848107533201904 0.8951100252176585 0.27001236890223823
Ni 6.827540357901975 0.5210090566917275 4.672715514702718 -0.1608592695136391 0.44675025731934676 0.29330553510222385
Ni 0.9600080097485446 7.465050012295152 2.7483964847096316 0.7531627621171738 -1.2017094492153109 -0.5141620111051015
Ni 7.573707850274404 3.957405065250736 3.662563331901457 1.1949045104783356 -2.0739181443547636 1.6054466933082416
Ni 7.4498848569107405 3.8306618470050102 12.545118703497868 0.9354128386017633 -0.6001448430248244 0.6082903549500943
Ni 7.919795436530661 9.124838515432854 6.998035094918099 0.5230433727551315 -0.7953548221041916 -0.1454287938911818
Ni 7.2206972386746955 0.4502750239020352 0.5093436225289013 -0.48437500965065605 1.1649822689976066 -0.08935200550227193
Ni 1.9966423565114269 6.6353786439338105 8.949941607636577 0.15703655333343924 0.6835370313992357 2.0587306379810477
Ni 8.890210727478825 4.949817564189008 1.242192706093425 0.30878691856727464 -1.2405634459680313 0.7213103934932675
Ni 6.547116893760108 2.0610419575709655 6.920237029041426 -0.7728242451018432 -0.379214833471534 0.4084588179383159
Ni 3.5893930491945807 4.1913050713026925 0.5693528792641946 -0.07994870991050101 1.3351263062472813 0.6281652394971504
Ni 6.360531808616565 5.890812271745938 5.039404787151859 -1.0319693322722745 -0.9644884158114809 -2.2270170531966937
Ni 5.110866601843622 2.5214822751901824 9.789212419286239 0.12714079421527136 0.08244756507295478 -0.5467695127274776
P 0.06599253369769745 5.6415014839176205 12.539580283223106 1.0318459193205327 0.16003883049487275 -0.7767978850376106
P 3.935353273617974 6.192050298287047 12.825115505499648 -0.6034463965942317 0.233151748430463 1.3998746542682603
P 2.1974919669355684 8.431471600055701 1.2087911556978603 0.6663157824249428 -0.08420517119400982 0.25723270063906667
P 6.669347864212991 7.7770865028082445 5.839862080236679 -2.233108767916728 2.4490564937640786 -0.5595401821295848
P 4.458073527506947 1.2090094902684818 12.440957647946039 -0.01885081415791592 0.0904552658687797 -0.4269013409142196
P 4.0474953674533936 6.093999881530483 8.427244096932045 0.44036260862544807 -0.27438350138674034 -0.3456434252739918
P 4.8889749971758425 1.0079688370950468 3.4607375840011625 -1.267326315884172 -0.2583048506573229 0.8122045466716787
P 0.07244795916907035 5.652818492494831 3.575138530915136 0.8860152620052418 -0.12920024784746134 -0.049656743795178995
Ni 1.5230928673811497 1.1868849204455127 2.432157963439455 -0.4385898329957414 0.4661518017744101 0.7105122744364989
Ni 2.210373706602231 6.622023846030802 4.958637371114734 -1.4200830108953348 -0.4549849865243132 -1.0202790404185398
Ni 6.251983137922623 5.716472117104746 9.449432882666187 -0.6279145569389251 0.7305033728464452 -0.027075001839921113
Ni 8.770745328253813 2.569479491631788 10.144717503355299 0.16654732103735187 -0.2923148890541804 0.9619561363079304
Ni 2.3021561017272045 5.216112962156915 7.153937804797691 0.3138797597091498 0.2548032652619676 -1.84928317514606
Ni 0.5033494288379662 0.20983589745996742 9.317722552938825 -0.4937405100259561 -0.5225978005772806 -0.07886447570738676
Ni 1.3369990350215049 1.1912334173103891 11.47527657827085 -0.36477268990427497 -0.010742069007852469 0.1310820382512065
Ni 3.942358174425411 6.897753116904309 1.6390630940214646 0.4099973660700294 0.45023590187510204 -0.3552416104853882
Ni 5.3437204214113505 7.8723895428844886 8.209254312986745 1.4049726376164577 -0.46898078658277287 0.04974364708203046
Ni 5.42556859357305 2.658423537338683 4.890372338427819 0.004487346347392272 0.3550708892354788 -0.295970997749529
Ni 0.9176238112266643 7.793798194734558 6.936174542969412 -0.23511684257663376 -0.26479611480862136 -0.8717281559586083
Ni 4.976072296306232 4.467416427674788 7.1997944327198296 0.40504644982265725 0.10965292184315309 -0.28894314436847013
Ni 8.060493872748605 7.591911495099965 9.02221489914915 -0.38260920386506364 -0.5487903998122484 0.7104055736553055
Ni 4.542441644504568 8.941983312537426 10.336104129597757 -0.18551100662404826 1.3845938168497895 0.3396679244168473
Ni 8.330328110215335 7.596114435584426 4.534654378152405 0.2886631512342061 -1.9620659008674468 0.8085813480967946
Ni 7.099248633766539 6.38888801097602 7.207477080423569 0.9943983159970357 -2.5087297412549954 1.4305671982561103
Ni 2.4305459265263667 5.287262740358166 2.706615435439093 -0.9554502168686126 -0.8894695391024293 0.31482978232724484
Ni 2.1325738212708036 5.414315265912272 11.650951302974965 0.13245115068459123 -0.5911259273556658 -1.0793725041465865
Ni 1.2004762474666952 3.2924307413281415 3.917793715775747 -0.6856620481620385 0.3883728458217182 -0.9686980830174542
Ni 3.676881531097333 2.6324508207085118 2.368899160511413 0.04763020028345346 -0.40214830233925586 1.0842743123235778
Ni 0.9772564408276357 3.450805180492644 8.09326862098101 -0.3534027575044365 -0.12901872796427455 0.24771087719156046
Ni 3.4834643933480955 2.379655777024028 7.0959117537455425 1.095111769258714 0.1251890698055392 0.14171149294059462
Ni 4.16593277474173 6.799975618361023 6.139897447184613 1.3302273262837672 0.3167473110649319 0.46604741498606195
Ni 0.6334650064724152 7.098420781852933 10.850494009890145 0.7362888691799706 0.18092698679779162 0.394660735712959
P 0.17590852464015616 6.068127234911848 7.884106831507837 -0.3020118046269702 -1.5740897762635149 0.023893261677829816
P 8.566839033840973 1.8120495743248042 7.985179362612751 -0.2448140152597397 0.08012457336673297 0.7017684668055978
P 1.8144785464229674 3.4701823736352932 10.388244244516905 -0.9098257341612783 -0.2838554454329176 -0.4052539378477731
P 4.122675237937364 6.155315506779995 3.880206509715895 -0.11042219590900983 -0.3694096744556541 0.024001762231236082
P 6.976817523290586 3.9857066839675355 10.446003745447419 -1.235224036032989 -0.3920700921676473 0.6593069552072773
P 6.391580804013684 7.816541379174288 10.624675112133312 0.1674844881396406 -0.1470025661362049 -1.2326297929432515
P 2.722613901101376 8.618957315303057 5.658808137548877 -0.11618429520376763 0.38644091890632803 0.7091717012482044
P 6.851529868849002 3.9598340373488994 1.4830530363113168 0.8083118964854917 -0.3898656283171609 0.14486109431316985
Ni 5.429507713118012 2.586727922710879 0.6441279210651382 -0.4973667939246337 0.16275005877844875 -1.8461171187132528
Ni 1.3790557316874534 1.0348603783765833 7.185041383837465 -0.035708509145203016 0.6731816563068407 -1.2239764881436275
Ni 7.126704206022181 0.7774593849793651 9.37474972333038 -1.0572692444896439 -0.4957693675305268 -1.3145500247578261
Ni 2.494508858444663 1.4622866894630884 9.294555435541138 1.5656884395736972 1.174870731755912 0.307511908509593
Ni 6.558461194158644 1.847419774765472 2.509822299391622 1.2279904943990272 0.4499430532250316 0.7106331162850794
Ni 4.309960813161651 6.507725698310495 10.777462005744662 -0.12011294083421249 0.8445454248962294 -1.3771471307637573
Ni 8.413722818918936 7.370238225002806 0.4727389220368451 -0.04519510847939959 -0.8379927113793763 0.9326257627749293
Ni 7.425376801358487 3.707038993664415 8.378018748530693 0.054717960368170275 0.6614769662754028 -0.8701608114714884
Ni 3.0873145095031065 8.39852127443942 12.497012319770953 0.3740991095115234 -0.07518548419390278 0.11786065446492605
Ni 8.971522160487748 5.076569879708509 9.899405877078863 0.10717386417504123 -0.12705440514905214 -0.03517474812892007
Ni 8.911625709947275 2.3895263190708707 5.780878086255927 -0.6563455585861083 0.23619464902184484 0.13801398948434943
Ni 3.3949388222348915 3.2425140001198227 11.819676620241676 0.21329100495079395 -1.6301228558986829 -1.2929815545584311
Ni 0.9228456463740263 3.291584694866984 12.482898809235035 -0.6674462964849602 1.2372456944487078 0.688374304886879
Ni 3.0206042009044913 8.501329565380775 7.883601023085896 0.5766565300948971 0.2671489313115141 0.21476013329715274
Ni 5.3767617197653905 7.869778625310807 3.524448521435866 1.0082938430322053 0.3187481435450446 0.8302616612837056
Ni 3.053900222924256 8.636060190001734 3.243493776505486 0.5783570577257717 0.3538059064801261 0.8641950808063568
Ni 3.3292110192040725 3.981567424399505 8.932100034307298 0.214896658875017 0.3253983018717106 1.1675657134540665
Ni 7.227793112219891 6.221325325297867 11.887249350394248 -0.22288713327966128 -0.4523120676778403 -1.0145040856079754
Ni 0.5136120633845498 0.3158928248666928 0.39022664888950553 0.136069721273785 -0.28179676313167595 -0.469552599925843
Ni 4.701962340164833 0.27480316840312186 1.1662231922457071 -0.7480519232531697 0.3021485873151506 1.238183632881945
Ni 6.001189494468834 5.80774506489827 0.6978409546201366 -0.47776496053330625 0.2695495703332067 -0.6019916664255761
Ni 8.20329377920878 8.493342159005541 11.606307341647152 -0.7111558215577688 2.2351759348584026 0.11663320981572817
Ni 0.20814744344716188 5.043947055948161 5.617585660888179 -0.5370628269626752 0.008835338903442848 1.2097657438608844
Ni 8.334549245247349 8.901755167900433 2.6878150094538347 -1.2357691099031813 0.9190418534429076 -1.7885601462343907
P 8.482552792307334 1.5936513227869673 3.766152168932783 0.9849847359926197 1.673069534663538 -0.466861426246925
P 1.7439746746598053 3.386714886741485 1.4240290143259524 -0.8993765138034963 0.19198093061910806 0.8890512206180882
P 4.789305265687171 0.8630792868485493 8.188496153684914 0.20766851655769397 1.4788489160806335 0.9326121359281745
P 8.38235541893966 1.6838962786438152 12.389069527510486 0.5437291832392571 -0.09635954716835662 -0.23906220037762702
P 6.449503146144788 7.874891293172858 1.6247357975518124 0.38222816637656104 -1.1201059773102062 0.103702360686673
P 1.8552616247602909 3.33780794292229 6.0610077084548335 0.09976368775389916 0.1496330617805165 -1.0682146877575538
P 6.881387121381479 4.1357935067222 6.099966783400092 0.537016547105772 -0.9874820484931768 0.06627841151226006
P 2.289483599357387 8.668874056511376 10.450717042990709 0.05238854090404527 -1.293940576037591 -0.8821848325155581
