# total energy = -340856.9346558988 ev
CRYSTAL
PRIMVEC
9.41752008988804 0.00000000000000 0.00000000000000

0.00000000000000 9.41752008988804 0.00000000000000

0.00000000000000 0.00000000000000 13.78349258906663

PRIMCOORD
 96 1
Ni 5.186897007328042 9.300234384161074 0.5648685109378314 -2.5994356896820006 -0.01178233734690874 -0.6063982801337041
Ni 8.98868398155014 9.190793382143612 1.9215564681390598 0.4846262064295138 -0.8566357804018602 -0.799026614528824
Ni 0.9446243617039374 1.344219160482261 3.30343440831906 0.052946213179728176 -0.22652678691477762 -1.2116663033177069
Ni 7.586528236917512 6.3288372518535825 3.8035819535684996 -1.2947340184731637 -1.2819936880883598 3.261082348766048
Ni 8.47104056730939 4.906744616998859 6.8369708542160765 0.7262237716344848 -0.9095413701516402 0.9714352794429593
Ni 5.849428969545615 2.964136224248334 10.490106039397231 -0.6209679504177629 -0.17301698792209558 -0.6134960675207498
Ni 5.1976329803337995 6.974135152140861 4.457802012474773 0.44951522165899355 0.6812235527747107 0.7081735990009933
Ni 0.9229235699520367 0.7323958356765302 5.41760176619755 -0.5345539444978923 -0.027706207666016797 2.661397218986462
Ni 4.681044328353263 3.1969844107109218 6.140256118999383 1.7152906481162784 -1.866500310355295 -0.461998698837985
Ni 2.523189094357484 9.160158188996482 1.3402816952947987 -1.4580738883168114 -0.23168544829758161 0.9994801013953174
Ni 8.950317004334828 4.177790884948298 0.7675147101815912 -1.1064536766340944 1.9442877509484193 -0.9665005611455033
Ni 2.9482582852240298 8.992629922505765 6.952090620902372 -1.521070029533374 -0.7754603971731097 1.0892707370969048
Ni 7.905518480471031 3.9434924003779144 9.719333808985207 -0.11350057772401743 -3.87766451141129 -0.46125050781805077
Ni 1.676987236059836 8.378965472504749 9.416344873970356 1.7369429362787312 -0.0954563186277969 -0.6446490960847865
Ni 6.165791724968779 5.239230166971019 12.781970702057329 -0.7885707093028226 1.4569531444488069 0.41700233663295283
Ni 4.38799935289699 2.5155703205314683 12.68246706733432 -1.225047609720619 -1.417969821207074 -2.5988255669018274
Ni 8.370866405149528 6.528375669437781 1.896939070387262 1.0408391239580785 0.3404194578708911 -3.664220268712083
Ni 4.923338287556881 9.235922138848515 11.595666403465541 -0.21073712818068868 0.002573160043814923 -0.6400820455393944
Ni 1.9989345809500287 6.367251316669797 3.766380865351532 -0.15413634896750872 -0.3352409989937452 -0.4650644822475023
Ni 6.647808660366741 8.147379233746346 2.8497368978558457 -0.11424002699320326 1.3583757636935252 -0.5570007035371827
Ni 1.1523654393653415 5.036781735651049 12.346977328424583 -0.656642778111553 -0.10353626742245393 -0.9361476598852588
Ni 7.470730408778221 3.5159934893048024 12.27482028880168 1.5482818140614756 -1.7722686081632186 -0.06017409838673507
Ni 7.415383642677487 8.157663165783442 7.640437889438703 -1.1620429838636244 1.3713649768643414 1.7526410637402783
Ni 1.4941931693565464 6.847450670672925 13.778392366505972 -0.9650836261933186 0.08153996565702086 1.723637734529393
P 3.780362115811486 0.6369323171109504 5.499062374006761 -0.7326451017797962 0.6815858212101358 -0.7626835571234155
P 7.691053293400758 1.4715911209233734 7.3590480369578035 0.06959924835537691 0.04452559321620074 -0.08037525592495835
P 6.153652541456128 5.169597022756484 9.780090940429632 -0.665194524336306 -0.06786812459688311 0.03111703311977866
P 3.253235258748982 4.656116152435509 4.470621140944455 -0.07001936661193103 -0.7906545884150448 1.7491243088362716
P 0.6172525251897828 2.839777870264978 1.844603085488231 2.0330990534558726 -0.1806248821763405 0.36690593419719386
P 6.120031994411783 8.727978770393666 9.543580280368852 -0.15064067710942444 -0.8165864777894583 0.29733213976311373
P 7.099152732536852 7.015779426378984 5.954055735246811 -0.6844829402522729 -2.8598475593799972 -0.6819210930623675
P 9.205663646508604 2.6273939551545933 10.991136006287581 -0.7482974636050727 -1.9272256532598098 0.9497243701284289
Ni 3.4190307015264887 4.826808705706869 6.707405553324929 -1.092336777616738 2.8757058665684925 0.3533320521675012
Ni 8.124023783698734 5.593978734649855 11.133739863868616 -0.38774163999562256 1.3061887972773247 -0.3003390449102376
Ni 0.2536835081099012 7.360206391940003 11.739318431042665 0.4947257567573608 1.1771649271067275 0.5041197963777512
Ni 7.246602846002765 1.0479157230435394 10.071363538587937 0.0026495218077051143 0.3649745215024359 -0.6803133822556154
Ni 0.12072224944166893 5.573335530414223 5.130697955650975 1.0465994234806233 0.21156373784704208 -1.7505623268343788
Ni 5.784391575179159 3.06827516240418 3.4629097533034408 -0.7221889394434788 -0.6499249997717453 0.7026470127558092
Ni 4.769069889480291 5.225687772951476 3.1792587542272055 -0.3350219410044037 -0.9067581509795479 -1.0203903691854233
Ni 2.261947084550722 2.7999511774216908 6.292908470612999 -1.0138160584020153 -0.3613384674117454 0.9384477687733451
Ni 8.116348504751636 3.0577652098827546 5.61573979853091 0.1947626071293033 -2.059751108825762 -0.7334274884717755
Ni 3.1352243133672757 6.472266084202428 11.972094102599863 -0.894958844351775 -0.8641153766083569 0.08608516182554206
Ni 1.4454669199426973 3.6687362491121513 3.9617200106872508 -2.155250879096985 0.6966092912021616 -0.4386985906594638
Ni 7.837458062126638 2.704561115513519 2.4621456702995728 1.407512373319176 0.7037831832427814 1.632944641618194
Ni 8.45683894687721 1.7682524241289537 0.5533358157248048 2.6727679227172487 -0.01489979992996789 -3.1289284176069017
Ni 1.957506909676058 2.822214195128367 11.570483954502913 0.5960544750055348 0.1809364998794884 -1.3506524269073383
Ni 9.39377861211387 7.907345479386046 4.265921922301349 0.18635972777758875 -0.005470536196267998 -0.7015712631931272
Ni 8.006596724568219 5.861634075699529 8.653676419673646 -0.5942189644586928 2.299760503608007 1.1322323282600952
Ni 3.3573082742635645 5.841923205961766 8.958829500825972 -1.0091636472316685 -0.03400695307306401 0.9030228523068319
Ni 0.7666247545245349 4.179420115939522 9.986375127719116 0.8694349890490575 1.1096796397705597 -1.4772993122053268
Ni 5.43669673011551 6.716839083289724 1.063261572177646 -0.2806760192636715 -1.3559067333277424 2.4339558906772143
Ni 6.582837188641548 4.780361496176698 5.517986880809453 -1.2870677601771576 0.988789968671323 -0.6811808724622332
Ni 8.916602282088679 7.97695978856022 9.459473349388924 -2.043083161251778 -2.038987651026166 -0.7452908155682648
Ni -0.04550828276817643 0.19933688265233598 10.772571372682743 0.8749826583401641 2.1029870366962617 2.445452064242272
Ni 0.18581144016911783 1.6556471353308477 8.8437370449482 -0.2497767585816537 1.5829847647602995 -0.5152053647679513
Ni 2.539858105076949 2.433449544557605 0.8203771344587114 -0.044085420354988594 -0.5356687748286258 -0.2896298860228496
P 2.8023243925071744 0.25546341942401357 10.691290639508978 0.5714351337949578 0.7606816962020384 0.5140272852994502
P 8.350825922205448 4.2732751220582745 3.635754209936043 0.035169091701965235 1.9906187728044746 2.0328108327914927
P 2.401429975943943 6.961882958386045 7.246106542689254 0.236063008539987 -1.51731133382189 0.24202976764638318
P 0.9111723882708228 7.414366550497994 2.0787433557195816 0.6734084276056661 0.26334549840502386 0.7659141482455712
P 6.277069143421435 2.14034806398025 13.531186228776214 0.02069223824202888 0.7086770209999731 -0.6169410886465568
P 7.794919123471369 0.5935599279197089 3.470931596993181 -0.21074612704175316 0.37920891993426303 0.9974993235198627
P 9.16302111513135 9.24238255769233 13.347948596872422 0.09387380463202542 -0.1190644449650401 -0.714499284108705
P 3.705163217170282 6.939977806446228 2.4240753449699466 -0.8887822832274178 -1.6315271924453774 -0.9644637332211324
Ni 7.129656080401455 8.132292366417204 0.3610225196230774 2.1321567162816826 -0.5888564145951988 0.28443754318863274
Ni 2.15095219170348 8.750665576508464 4.105303290367056 0.8619029423380705 0.11750712778024924 -0.21258240891954358
Ni 5.600005947565367 0.5621402553415438 4.666676959565908 1.1039296246606602 0.6359117162117887 -0.8891810613277331
Ni 4.9432280901780725 3.5244033348259785 0.7591867970859849 0.007048679316665281 1.3358408158158026 2.172686815185245
Ni 7.170302097500445 0.44670500172920136 12.535921035805734 0.4955929898536626 3.0688684762005276 0.32540370118834927
Ni 5.120701257979385 0.7102608962443091 7.785689011942472 1.0533107740625278 -0.7278947315790044 -0.2901039974457907
Ni 7.5711305914224125 8.956391304851243 5.376982118155066 0.7374957450038783 1.635103854053042 0.01610436176103033
Ni 5.525541615498241 5.998159865756077 7.706777726846121 0.6997527219271497 -0.9033326702377668 0.3823317818339609
Ni 3.2993151849921136 2.3788844326318523 4.247342096737262 1.2843508754666269 -1.3867728267789794 -1.4834835866391676
Ni 2.32605214441931 4.726125997457262 1.6778781334689101 -0.06685125329659455 0.14371952450955894 -0.3355929830165253
Ni 0.09271360267287695 7.262857485834289 7.079326027300867 0.9574870447929833 -0.3921747360663117 -0.8595277572376745
Ni 5.152438300987634 7.977223479125273 6.560335907674306 -0.37827818058987756 0.9393602532852855 -0.39760464883263136
Ni 2.690830371090366 1.318848361116024 8.441424349845787 -0.09236739528982803 -0.5819118649565655 1.2383199013494932
Ni 6.667632540346671 1.1754571988479003 1.558774755746267 -2.709198911850773 -2.2583410601209555 2.0495294310977545
Ni 2.9458474000578247 8.465371220160735 13.059239447707247 1.7727031245974758 0.35416123293701585 -1.3741142574747043
Ni 4.276966789969026 8.714605891737373 3.111430948631271 1.18225262604228 2.019617731139986 0.2333129565986756
Ni 2.805573436969443 3.620377282985341 8.868175509816568 0.5914416588238717 -0.46907360340689536 0.019741187182669227
Ni 4.127388316942321 7.905057021982187 8.87993234200989 0.45155719178968684 2.0716537738006195 -0.5119855722790732
Ni 4.103957526733264 4.39512841567362 10.991852679573316 -0.45428050425812083 0.3440272298268075 -0.07313965740846759
Ni 5.036894745893215 6.730164874345117 10.761255280433865 1.3313205593479458 0.22488822287009008 0.0063220855632858865
Ni 6.607209730868653 4.787434053832245 1.993203078168183 1.7917830240470625 -0.22118763409005132 -0.5909528921129112
Ni 7.1993739822976135 7.945533523717929 11.677127011274752 -0.408834970330812 -2.3981427376333473 -1.8783865202699197
Ni 1.6932230408509987 0.8800446588182529 12.50457764514103 -1.0684453157111213 -1.520358091068014 1.0820364241319946
Ni 6.618256482040367 3.433354749721012 7.727439766122112 0.04580214593577918 -0.11129997052827284 -0.356590925424431
P 5.184495539682017 7.456735973790014 13.00702683232258 -0.5042200694010412 0.344492085278368 -2.816875426693845
P 4.7248169621521745 2.6707428005453835 8.39926117024572 -0.9637602793962048 0.5781164024698753 0.7617939554296107
P 3.7755591805194366 1.2198608064989054 2.235144822117051 0.7052929350190886 1.1739857580477975 -0.0968287734952913
P 0.9342707400175079 3.868952728149345 7.787066795144878 -0.8017319292751289 -0.3397232031348149 -0.870549819379791
P 8.73668997656062 5.847790321034211 13.095696551829954 -1.1707237994670738 0.6081854539411138 1.9051455335313188
P 0.4960245549144216 9.290845116541126 7.661127239523218 0.33230659895576964 0.33850347179510093 -0.24172792013524824
P 1.258783417404866 6.260268287419443 10.08161827631247 0.2491987745909966 0.7516180433378733 0.741982062910006
P 2.910682379703879 4.124421798085467 12.932114226294864 1.7836369979011604 0.24752241532983824 1.7181088342913637
