# total energy = -340872.8346930775 ev
CRYSTAL
PRIMVEC
9.19401619315128 0.00000000000000 0.00000000000000
0.00000000000000 9.19401619315128 0.00000000000000
0.00000000000000 0.00000000000000 13.45637204407439
PRIMCOORD
 96 1
Ni 1.1021143237925464 0.5496228953432409 0.4115499157696979 -0.6655583354336279 -0.7536687552193149 -1.2925372679321612
Ni 6.942006414954399 4.021600668555194 2.384819355841314 1.0466498171025846 0.027366822048727063 0.13763320910616295
Ni 4.672638161419091 3.7244316715865455 3.3338836474007687 0.05019796101062968 -0.907956027942391 -0.21198154211075104
Ni 4.306799056215841 1.2781521551445263 5.908396707101875 0.3012420163404812 -2.262774413301961 -2.204979870890996
Ni 9.054074242490803 7.864019152161375 3.823991836006263 -0.4088413980887152 -1.0279185592416684 2.131354789205678
Ni 2.6207635590282146 0.7650083585350427 11.532232171877238 0.10741477654125373 -0.4415890248333814 0.35201256202512926
Ni 7.287352057678746 7.366089613833672 5.541240099353436 -1.1134918144277985 -0.7905039217697933 -0.7281207315468815
Ni 8.757429304454995 3.684410118347126 4.927938527260472 0.6850539822643944 2.318863542986045 1.3818090550158009
Ni 6.597616949932074 0.5113665932460149 6.224742583405873 1.0766911006596813 -0.209034286556969 -1.3286661524442345
Ni 3.8754709724404823 5.568172131493163 12.121715725173502 0.2760470051320923 -1.3675044654676707 0.8509194467433733
Ni 2.273588307047115 5.58202751415611 9.530636886784873 0.19600316440462373 0.46826781967614844 1.3181387705503491
Ni 0.7050247569626508 7.072359178985756 0.15189250557266357 0.17592439137687768 0.19370639795064704 0.5410608923784747
Ni 2.4715538674310307 7.496948048765136 5.371985613275989 1.0675719119672324 -0.8844425182014832 -0.7387306458522438
Ni 3.0370226499803685 2.0121840337406183 3.7950067800120992 -0.05177456146913019 -1.0175133047479443 1.4025403740258813
Ni 8.42259242243652 2.102276200107049 3.5769458580579103 -0.666432253398149 -2.7009865512433096 -0.6304162403148562
Ni 9.041772648593643 4.153874982006958 11.535906100816929 -0.5208589635093029 -1.0502701874639913 0.248617705276546
Ni 2.3642505024282126 7.467334122051565 11.688433912920454 0.605400692107125 0.06322059852254273 0.7682247986566189
Ni 1.9703144832117145 8.633815754419619 7.532271459641738 -0.234381507072506 -1.1181851061384096 0.13735450152347956
Ni 1.503975585116184 2.8283092844650763 13.00937869783699 1.0126510915596367 -0.689347981654058 -1.147192034893721
Ni 5.686830106707486 2.237648897074018 7.445101151676291 0.008499295720262782 -0.9348875622259125 2.307298720966581
Ni 5.9703551833895965 5.381689897549871 4.128051748240921 0.2403567508193344 1.5511138841936318 1.0705582482890659
Ni 0.154043905402212 7.524015232945437 6.229412224317957 1.798204868413006 -0.37753590310721435 1.0440139221416342
Ni 5.506691744056453 4.528328880544768 7.326281361773934 -0.2279504067351816 1.9845900501118918 -0.8354288073069419
Ni 7.09349622261025 2.0780039969018875 11.247091706519694 0.07047368054053024 0.7620196982871715 -0.4580170884824177
P 1.3817595255683768 7.516853094196641 2.5253305885550117 2.0419804151059027 0.34422391921864587 -2.379470615145141
P 8.153520339481119 5.546943147705012 4.059168338826637 -1.3851280920867048 1.2276320826183438 0.7096098172268875
P 8.679739866165747 0.3663843103737298 5.243773216254542 -1.5301578507672549 -0.1269433334924846 -0.0012683251894623317
P 4.055544976976957 3.631939866948696 9.042197412149733 0.36597468063217614 -1.2829321407422292 0.5637305660618486
P 4.483921781498961 7.24342304748395 11.054073446342104 -0.3851049737037239 1.417077905520424 -1.101746243856096
P 3.1052606394457882 1.4152349391554953 0.27949258110416136 1.3543334753033514 -1.1745596282733963 -2.070738975295834
P 7.779719216105267 3.2874400737299836 7.312084881103824 -1.031252508710908 0.18127459994519746 -0.17326638492874033
P 6.448581944645837 0.5234190292996687 8.791653110974272 -0.6297541812508252 0.5087305556768851 -1.9625189292444651
Ni 4.013896082840827 3.517051438444265 5.798701059040731 0.9282993674854336 1.0233574222335473 -1.353122485714386
Ni 8.548495282546929 8.722179445709317 1.8200824169946768 -0.4758034659315612 -0.23443601445952528 -1.6594444876809353
Ni 4.405634732145949 1.5955112120520127 10.108494606386845 0.6774651141735429 1.2597762714510563 -1.1686242366255681
Ni 2.728149670178323 4.3326710182686154 7.595355283532607 0.09892396546142318 -0.2616539696352139 -0.4570236142208967
Ni 8.598060224773832 0.39946989766694724 7.58520876707154 0.8379168638361182 -1.0695591176005903 -0.23274422857939914
Ni 4.886399041919092 8.627297196816412 7.3391722921201294 -0.21564305012273827 0.8009415721633497 1.3755754154012632
Ni 7.031795178780766 0.37913733047444176 12.917376934271427 1.9387375105541516 -1.8735808713511604 0.7069731509349889
Ni 1.5738868855601416 3.1113562722961756 10.155174466278226 0.8473720957117471 -0.36154415566464837 -1.4539143576224831
Ni 1.2988294979507415 8.202129104006001 9.729993501844902 0.06127581609134608 0.9673513391815729 0.8435015570127474
Ni 7.947960521579224 9.115867226483944 10.121358874085578 3.1431677011347348 -0.9501681425340669 -0.07743751345287309
Ni 6.614009881111923 7.345954717993026 9.40220934978047 -0.6735058724154788 -0.8008662388407239 -0.5911398113127367
Ni 0.6734975554434011 5.382820761562839 2.7895730547135664 -0.4804633333010758 -0.009996963311711815 -0.5007385386103441
Ni -0.0917829459760631 4.679735942053327 9.122411527332972 -0.135333871549025 -0.922105837080212 -0.5438006599071409
Ni 3.194267911881079 1.2626142674866767 8.120260985278593 0.505741134031258 1.5135768064801223 0.18480061082058494
Ni 4.917529981332985 7.492764771318791 2.5518663585893817 0.36353367529085134 0.1806364521405663 0.0801687963411071
Ni 8.903172851882351 6.922956413044894 8.74981757830592 -0.542599440510188 0.8702505429718174 -0.8385424132352591
Ni 1.214492785829171 0.8207305335219829 2.7646113002809853 -0.9061544559572781 0.03316774500122029 0.9009243179065903
Ni 3.4177744497286078 3.015536233733981 11.6524779537179 0.5535212296290145 0.777734537919267 0.158487683957669
Ni 1.6174941051821419 5.242244251332945 5.440707208002239 -0.10014395391145334 -0.14568076200098784 0.18754166390083185
Ni 0.09594231897985668 3.431004639278694 1.277054389590475 0.024571775802093167 0.5209384105969866 1.6174833127578017
Ni 2.120057427758103 4.815448817625823 0.6080481111416651 -1.314649269339852 -0.04874837304829669 -0.9107942687221346
Ni 0.35813543889052113 6.462887834110697 11.02021740047745 -0.8141580708536237 -0.8229175622138084 0.48477584463350065
Ni 5.5089810541314845 0.7464851737632855 1.3784037095949357 -1.0960965017694866 -1.5323283760560125 1.1107055099319127
Ni 8.480937650292562 2.1999534299750927 9.101177027135002 -0.21007943999203177 0.854861719220573 -0.5736028308702379
P 5.977894276809382 6.812094963708592 7.357217388040876 0.8717572094243309 -1.559697512097585 -0.4511363022021843
P 5.8607165382299184 1.7249905445286375 3.7210372407443697 -0.5114659523301772 0.8433364921897928 -0.8101319804133661
P -0.07593338116341997 8.339175111951507 12.044946607922448 0.227001412558351 1.073738188678944 -0.3740574576403107
P 1.9582703217727897 4.656429110566553 11.723595509109023 -0.6342430702601141 1.116097884592078 0.0437329221115763
P 4.197592529825346 4.7304685243586615 1.3707735954131315 0.1391830700917861 1.0805076461922942 0.19100056898370976
P 1.4744719865990008 6.19962636949835 7.591628029297996 -0.7753572959363421 0.5206604743452516 -0.7245129595909652
P 1.233984100524225 1.022659634361105 9.040865199178358 -0.5232850564522924 0.48026998634334706 -0.20125284283933725
P 2.482071822153267 2.254345230793932 6.310419783113547 -1.8405416815080045 -0.19417613849821397 -0.1736962733773073
Ni 6.902628442860571 9.094647436712158 3.6909075297126894 -0.08159627281625302 -0.4322595199023394 -0.14667423626250867
Ni 7.917914476096472 5.442885270479247 7.017026830292716 0.011374817495844926 0.19848247918305173 -0.6740540316094649
Ni 3.017834737825379 5.6743997965812065 3.081966679581926 0.6909528642473326 0.3070395968588648 0.49890097118097304
Ni 3.6958290866731907 6.592624599045558 7.493867133881025 -0.014043365466943557 -0.2234939136257248 -0.22962650888602387
Ni 0.26635249291445806 1.3112322260279243 11.033795123846154 1.111983348203072 -0.39303811250787146 2.248041735077477
Ni 5.061692157945459 1.3896204095609574 12.480395449832866 -1.7570073111287738 0.15657889697073032 0.2724078657176083
Ni 6.293809873147469 3.5932146700168244 9.278855071006603 1.687151980898533 -0.08824463137070608 1.924504911894537
Ni 0.7581992700146857 3.337014209973253 6.959757302351448 -1.0433091827651257 -0.1924082479645138 0.677083305354092
Ni 7.223389285823326 6.5240004608927835 2.0176351660437772 0.5107342163704752 -0.19080876468787783 0.4731542012341722
Ni 2.965916127408884 6.775502778573538 0.9411464046654076 0.6429241429738799 1.2472187465010196 1.0402768236967053
Ni 6.383810099350244 6.938475912670013 11.853960225361655 1.043023276093591 0.2913484113758531 0.30294948594989113
Ni 3.1802746189726494 9.076268597997341 1.827429355472421 -0.3071473260813226 0.07105680673750989 0.8142753131577782
Ni 1.6002461304802924 0.42728179717286147 5.425030490697269 0.47498791200880125 0.9770053173315689 -0.8615357888066388
Ni 3.7199909616819653 8.559721176529315 9.5254293959154 -0.13297282751601613 -0.90105981504319 0.10386999661278885
Ni 7.558014705465394 1.6875341218552176 1.5090644731745388 0.35734425865068775 0.1930235129510095 -0.44613087856779293
Ni 2.9840651157145617 2.9262715288404535 1.6767853973222049 -0.5553451702116307 -0.13151115536882513 0.43363120343888545
Ni 5.904314563835552 9.179259969324697 10.791068494786357 -2.7139945334672038 -1.1578052916331933 1.0948366612204563
Ni 4.92334059967604 5.51232767608856 9.58400539358222 -0.3450482148921541 1.389669431600484 0.664648936245481
Ni 5.044030452507159 7.7184043209631366 5.064978099394523 -0.7736685953800094 -0.5204946381913488 0.25033957306365917
Ni 5.955276996550026 5.325523651572473 0.099009442839418 -0.7734405385296034 0.637725886602392 0.8773087353701794
Ni 4.205462607834292 8.229426138595443 13.225622882157339 0.43752642472823355 0.9852801557458516 -1.4998591997837136
Ni 6.459936554857342 2.971110746655443 5.371231703934011 0.13971683110806904 0.7848693491918354 -0.5603359385580027
Ni 7.375329600281091 3.5347683079807592 13.189330421955804 -0.7149559120301493 2.300254669635606 0.037656891120825466
Ni 5.44283930039742 2.972572595257572 0.7856599580954342 -1.315173003053806 0.6176573979872911 0.869389994743735
P 8.636279750805596 5.4237709104551834 0.6758824832886355 -1.0941401493740641 -0.8266119803462602 -0.07825229604468459
P 1.159622896159321 3.137697129183595 3.1990644302190083 0.18566578703435768 -0.28675153603379006 0.6420905913289909
P 8.737349572712542 2.1258496580684256 13.07291946434123 0.17544693751982687 -3.277570062008426 -0.7028305895215251
P 6.090778409746113 7.762121868781524 0.5986766502602178 1.0691945351723198 0.08204955830358772 0.3301972659222507
P 3.6494544681251475 8.980917454269791 4.0548627809626305 -0.590666214110428 0.5271607373576147 -0.2708078682203401
P 5.475992923411743 3.5019548635719633 11.954748710367815 0.8324355290065727 0.5780464684638884 0.2468683266856071
P 3.9082844168492787 5.495309551795851 5.124509355361727 0.002389326167782982 1.5137251591325287 -0.45800449007692734
P 7.497839868352598 5.364846459568107 10.4619659207751 -0.7592724745593376 0.7045871672013155 -0.3640741211753536
