# total energy = -340860.0090633552 ev
CRYSTAL
PRIMVEC
9.33310453257457 0.00000000000000 0.00000000000000
0.00000000000000 9.33310453257457 0.00000000000000
0.00000000000000 0.00000000000000 13.65994188808886
PRIMCOORD
 96 1
Ni 5.40038610978686 6.877975174491975 5.665392138331173 -0.3808153451894345 -0.01661858239328751 1.3824281766570385
Ni 5.542510621224858 6.920347467762825 10.735061565828621 -0.688236493757434 1.1214714901991654 0.0156454198467408
Ni 1.3375085030967018 1.1686166486849598 2.410405767958641 0.0584889973748283 0.5726489515974009 1.5219755720667787
Ni 0.18928935373849165 2.2280733101241346 11.664005030820604 0.12165585984130017 -0.25589212745077217 -0.05740424895108178
Ni 6.195939915603443 4.553556229250002 1.2003016042852264 0.8483234038814229 -0.4496892853430126 -1.8599118585045
Ni 7.268854913363447 5.477430885326699 5.770123567612858 0.041057175051626066 -0.9546549746608268 1.156677348676337
Ni 7.1724532796201395 3.324647727144404 12.322291272648123 1.8443145182868754 0.03473586081928856 1.2850198765091936
Ni 6.389415166595674 5.059951799357887 3.615308592636495 -0.4775194201814035 -0.5333894918761459 -0.3972894315850577
Ni 3.759299724923429 6.247262655844942 4.068654798217615 0.96237522612322 0.5539786288814073 1.3598765166087676
Ni 5.013006285007142 6.179093662441795 13.032403309035926 1.0125914419662947 1.586890527572609 -2.6120196969945986
Ni 1.5574244384141132 4.760881806941338 5.9348761902920835 -0.48167406577972527 -1.0825406174619228 -0.550957068446264
Ni 7.778349074080567 6.598504700989255 1.5224411637737767 -2.8080503722030477 -1.4280883976983147 -0.6485314618583283
Ni 4.911266115635879 4.630638337206819 6.179211259555277 1.1081045819739561 -0.30925665911484157 -2.598564599930957
Ni 1.5380115815851774 0.48424811373525817 0.22123096970548686 -1.2895298485644051 -1.2740829178817152 -0.948634736608676
Ni 2.2568939360317084 6.221521954338113 2.5022687131077594 -1.3936438428671998 -0.06848056136990141 0.39222667235016967
Ni 7.581383242100825 3.879136783425129 9.796226876958125 -0.5165235693587428 -0.14939163519367177 0.23060301386668025
Ni 5.153805495642396 4.104307256432295 11.796875769400001 -1.439125886459399 0.8785644621541514 1.0255834833505884
Ni 2.4525811327299287 8.723913864421903 3.5095122561604923 1.3810842610346343 -1.0130562974178552 0.02403570079296506
Ni 1.0357319104491962 2.1264824704207848 5.073097476686519 -0.953145737105152 -1.0646056302500568 -0.47494060371063357
Ni 5.92565321667749 0.5846377829223172 6.255269525976454 0.4057301061532432 0.9106202050381157 0.3899473893976897
Ni 3.495154208590476 2.9193483422149 4.866176955719402 -1.5226520293085133 -0.4708075553788666 0.5241134658908586
Ni 7.112161426199503 2.928662780251091 5.957892558669891 -0.49783679158251687 -0.1975460834117114 0.3747619399065029
Ni 8.062532765226848 3.4551711900062636 2.6001011117317763 0.5010347296945242 1.2813845937494512 0.48408987431006956
Ni 5.64223484007927 2.579455351832118 2.1404037287121507 -1.7532995232598838 0.4837959972187346 -1.0391733062198814
P 3.7695661395925777 7.387292006228445 9.413407206912357 -0.4299424417333886 1.135522826085909 -1.0115835695270707
P 3.738701563855419 1.2566371548165438 3.2569257894345767 -0.08229561287612279 -0.4376446954736527 0.33868344901639097
P 5.094381620916514 3.081072372566727 7.605732377764773 2.8270348837253505 1.010146322859912 -1.2865759081424037
P 6.186616144463007 7.976304215110244 0.08750811870855073 0.06332961329658125 -1.4004660079953557 -0.040314897568962824
P 5.836298076638917 7.167534733683193 3.605240973087758 0.1613981727362446 0.962991262440664 -0.7989294268293272
P 7.435301494463083 1.637726467335346 1.7449349024835688 1.5934959487042686 -2.0766329721827654 -1.1628906765759004
P 2.7072348820460417 6.638814378222032 11.916933089161876 -0.6240419613573962 0.7568507524917223 0.40249231594223583
P 1.573477377714964 6.593082167423097 4.902539663167102 -0.5138671055725021 1.1304587812994402 -1.552920084164435
Ni 7.335735938380829 5.640769542712857 11.4445585506467 0.03532695743606819 -0.3274454142087264 1.3365008179973048
Ni 1.0228615596957815 4.023715901279478 10.111334875708733 1.0444867480129945 -0.3368525664552392 -2.265797259288685
Ni 3.296209758510862 1.8621409588986935 1.1490003301834901 0.7305612226675742 0.6926022269252975 1.8338053912254353
Ni 2.987647999077473 7.379060208284637 6.2685057344162605 0.07636793453777815 0.6420119155722556 0.06461465065659194
Ni 5.820161139399865 2.120518616808434 10.794304378332155 2.5334190164715595 -2.035837278322642 0.11864561226006665
Ni 3.79798544201763 1.610165810500804 7.912084058113021 -1.1830938909966529 -1.4449486637887632 0.6364598754057749
Ni 0.4736914395240998 8.912507901894164 4.5390479187016455 -0.08198630916582009 0.11117012981862788 1.6288223919197045
Ni 1.2857191076429686 2.0526576158453604 7.336344456777582 0.2902472078918743 0.6642892389132172 0.2736039429082385
Ni 7.751516399377109 7.945159646245745 10.845979909914105 -0.9086332565150738 1.133857522568344 0.10044348742974316
Ni 8.424143889187002 8.67272178763983 0.5862337437481576 -0.16181931943406325 1.169269840629367 0.3865039109337795
Ni 3.7026944476794403 1.4811169781096039 10.290908467928512 -0.09985419058517642 -0.6126684294131319 -0.5736455111827153
Ni 0.25143009511000025 5.238494083558629 1.6331420465303588 -0.7123336439159538 -0.9406584032714187 -0.7980287693919289
Ni 4.327685773424483 5.883271590302395 8.021800298371788 1.5395886571628516 1.5381601522464412 0.20260138644743172
Ni 8.495168812489023 0.802131777688234 6.816597881047681 -2.0826177290112904 3.4063622757841916 -2.2326377418175807
Ni 7.852360590740885 0.9510993211584315 12.74028554597124 -1.262476958211671 0.276654299698788 -0.5256761823922882
Ni 4.701000610107467 3.5930211397001974 9.5908089857744 -0.6695265760527566 0.9251731631516261 -0.9048365084768031
Ni 3.210830520880523 4.080545173025339 7.5379385751522605 -2.4674360247125313 -1.5704043569921278 0.4841893760024113
Ni 3.2060239721945125 1.3365658595679892 12.632549790433194 2.8900901603146223 1.395442072418203 -0.10468220810143906
Ni 5.100308142111887 9.149988739400065 9.007543169176051 0.10305907067571929 0.15834447351158534 -0.2861133882291588
Ni 3.312104035039553 7.904616641406852 1.3029806839435056 -0.15877847572521042 1.7283780774278557 -0.9033085018680508
Ni 3.6364854061676755 5.5518343923652935 10.383085005380252 -0.9958731007703494 -1.7803506138404048 0.21692448793832317
Ni 6.7405545475932955 1.7596821405005887 8.19099267874021 -0.4122568515281675 0.6063589422553364 0.9565542485660689
Ni 6.752192928586412 6.453300265150514 8.816891182217836 -0.18126251576033944 0.18628979377160174 -0.42301614692720046
Ni 2.0237529919995847 6.225199197410517 0.19289566521863627 0.3088884771421454 -0.4719784357585162 -0.30259030283825955
P 5.488742607671252 3.076816477031153 4.2689096161331825 0.4439269289379386 1.4436821383715137 0.8181851897351456
P 5.0130996160495895 2.697603118465531 13.640653845697285 0.1430867760215665 0.561612234167265 -0.7747536009140721
P 8.167324859686124 1.7800189746497481 9.830103245435042 0.5522050819207522 -0.27047979545696 0.6260183683574767
P 6.029717329005679 8.084922882309838 7.401666853386102 -0.5613764640073752 -1.094745901278863 -0.7054960521688302
P 0.9853798130491438 8.36433735718709 1.846824401522748 0.9608852718412548 -0.21297784458574937 -0.2500415822072662
P 8.567855028346596 3.960288124832628 4.750681657312327 1.401180260453561 -0.5730909242308259 -0.6833742805691263
P 5.462404587492763 -0.05025689973675664 11.092965580782788 1.61241412576501 0.903316986508483 0.12891614094813925
P 2.673281048803893 0.5508827448005805 6.4761505042727645 -0.10069031333322657 -1.1742228137592683 -1.2268576663461646
Ni 9.288389342244436 6.793669243849774 13.225828161265236 -1.0613375010217463 -0.23808106741128032 0.08615766693469032
Ni 1.8757486248874378 6.451564307761003 8.186703184029355 -0.29985490618496746 -1.198388098151562 0.4385759490386705
Ni 7.845183433576725 8.714702090532404 8.414837850944632 -1.2169512058657297 0.6132237876959697 0.778889991679949
Ni 8.83026458729004 5.888694123868555 3.853332616809436 0.7688981705745597 -0.051624151934194965 0.6681782895549783
Ni 4.453076028951769 8.862221136223827 4.886270195847774 -1.1121620398727814 0.3756885654858304 -1.204916386188383
Ni 5.441134442919136 0.3178388650526013 1.0454196726551748 -0.03197423891375139 1.0576903911874622 0.4036680814178919
Ni 8.955878837319197 5.941976816001437 9.748102591541278 -1.2550572687088322 -2.7959731293235395 -2.2552657636297417
Ni 0.5884596891105139 7.229067889968373 11.071014119599297 3.318087048285866 1.3316779426873646 0.9528714003978428
Ni 2.079798282988892 9.528819440691654 11.234441441475779 -1.5899946204192295 -2.3453986131620965 -0.9307298313037969
Ni 2.129291734798434 3.348624471948989 13.240376604161845 -1.3247331359384151 -0.6958317896061886 -1.2274652180231764
Ni 5.088315103157471 6.450994988402077 1.5341756757406135 0.07726242132758952 1.7091706512614695 3.074198115943557
Ni 6.1371506919662 1.096387754935376 3.7468941627613996 0.22434186344831689 -1.7251672838000418 0.7962729630430866
Ni 0.7611967824710644 8.88504057610207 7.044240693369263 1.5638439301657905 -2.0301759662718064 -0.6999080165580914
Ni 2.3856441090870786 8.85170272774007 8.580232591195891 1.0125670164862626 0.44530632578396856 1.5724398993649178
Ni 7.494352045019177 8.025676336564604 5.8312647335197605 0.4656728052554625 1.1462831499262065 -1.287076501927906
Ni 4.046983330161467 8.371887838521035 12.242134840153106 -0.7346469627011735 -0.41353803223343616 1.8649712753052785
Ni 0.4151878088767433 4.754787289869562 11.932149782322403 -1.3602346712791349 1.1582925156822568 3.292832901704768
Ni 8.549394148150618 7.999170320509712 2.9343055750774254 -0.792496783830106 1.6093288019714673 1.1402132895830428
Ni 1.4509990507120192 1.841841457166513 9.605725152978248 -0.18182121647728686 -0.6403792650648391 -0.3296262239101291
Ni 9.138994342599831 6.634950473064734 6.427111574639939 1.9537093013726354 -0.37659565068113204 0.620414391907138
Ni 1.3566040343813188 3.7340910103585463 3.467507687196883 -0.34568713402773366 0.6387833813326289 0.2763493668638595
Ni 0.21174573586161785 2.4443120023691414 0.7890402323642203 -1.2725438555293698 0.7122277144657089 -0.0865872982729412
Ni 3.9709371967758087 4.23982393006506 2.840366014233865 -0.3390770849103838 -0.31969379528776554 -0.13060561283542024
Ni 3.80091603675046 4.702335244014456 0.42618500560825057 1.17114777437837 -1.5231515946527512 0.7540986436678819
P 1.0693030864173128 4.208343369447752 8.002458373135113 -0.5756319454851246 0.3151048903655025 -0.4622894906055264
P 7.993411795190744 5.001321238492803 13.609359013854448 0.2302739126620357 -0.3303595025317278 -0.6301575873368308
P 0.23907026515876956 7.749425784026301 8.883414749342647 1.8295167911524106 0.26729008487506867 -0.0846970232287638
P 2.038405965663733 4.105548559296838 1.519313640541384 0.180909760406611 -0.11015762939371351 0.6594005433623482
P 7.663906549832292 4.79505963468536 7.8282121168181975 0.7151024649103426 -0.49910845920608876 -0.6215644463511811
P 0.1700071603689813 9.092888807631109 12.024436450404231 -0.9227506697530624 0.41745433656870684 1.2668108097003343
P 2.76515612698853 3.252502831333022 11.20370659588762 0.7286030704999388 0.021130354220711994 -0.8709359990746162
P 8.073349833046434 0.8275000883357005 4.584795062467372 0.47348175977692003 -0.4585580485875522 1.4560306326345376
