# total energy = -340871.6197375776 ev
CRYSTAL
PRIMVEC
9.24323398621021 0.00000000000000 0.00000000000000
0.00000000000000 9.24323398621021 0.00000000000000
0.00000000000000 0.00000000000000 13.52840725922875
PRIMCOORD
 96 1
Ni 8.988093089092725 9.097006116250132 6.269185617083841 -0.1977890526604529 0.08418357392745501 0.8020057517618059
Ni 4.494753651953436 7.270838845653995 3.4114318286748677 1.165331424806909 -0.49840783359463836 1.1893110755509584
Ni 3.414654020074942 5.179261351702368 5.50744145336756 0.3766804970854545 -0.23944375208676183 -0.9219631408547606
Ni 5.960665874305503 5.309646411626186 5.725858150340045 0.09359509704934203 -0.9251477092303292 0.36337272423295486
Ni 1.297176984232875 3.5901275758380056 5.570023694025451 0.5692502103284971 0.5009072029777244 -1.3577936659378098
Ni 5.062602494386437 8.654911473467179 1.3463251084797865 0.7808448014134746 -2.817956061352534 -0.6642349886365141
Ni 5.178041244803889 1.6384556729119657 1.1522088739020087 0.8000062048332739 0.8588289313984371 2.528759149102045
Ni 7.1136391636658765 5.802015004566922 3.655483711043121 -0.18089484800827557 -0.23998908306727057 -0.9446011899692507
Ni 6.538441950139765 3.2637304940267273 4.108983580356629 0.5204051638013361 0.982825523557772 -0.4320489465534302
Ni 2.0877507950427616 4.799235025762491 3.4424789276241174 -0.5980008000986282 0.768155121760948 -0.12821731510890175
Ni 5.633695711981302 1.1221748334078596 12.471676678667874 0.7255899947052278 1.2805217315285238 -0.24107923080765578
Ni 8.628448094297896 3.8505464527906277 2.7916544971838766 -0.6231320479486172 -0.3386675081767909 1.098210977009328
Ni 5.605660983018525 3.978879514748823 12.659044428044291 -0.09052622831603119 -0.9500416442585317 0.6509837800535627
Ni 3.828861825640388 6.584944660793155 11.994191541241767 -0.19376476199240825 -0.94201645996121 2.6840092999590226
Ni 8.84187436919092 1.2388706636601081 4.03372424415886 2.098658070303605 0.46229977501817154 -0.11837024711149292
Ni 3.332379993534327 7.910341238670395 10.300110085640055 -0.0982163978714373 1.414016492986281 -0.19750725975397598
Ni 6.938036202625701 0.7624632873276574 4.972203665090041 -1.0714761321176451 1.8148131663936484 -0.7221033217082079
Ni 5.873613095745846 2.815858829944157 6.15128539343105 -0.16973086097165607 -0.23040915268831935 2.529484971524476
Ni 0.10152583448116015 1.7082236037431713 1.7730870745718548 0.5431311446439421 -0.6933699583292575 -0.8368634828709394
Ni 7.814276306883337 4.346677042001672 10.708397599777655 1.0138867637389506 0.02026749199978445 1.2089453048421177
Ni 1.6446301532769956 0.26910659266383663 8.226421946925672 -1.71647001313636 0.8041119994715312 1.0681758640998185
Ni 5.376853966617403 6.6040781553374845 7.839293119919196 0.6739131351562264 0.8676203044378219 -1.4333038804609832
Ni 1.3007171428852802 7.678548657661634 12.63070282371008 -0.11967328219363263 0.376805452699093 -0.8356784614239027
Ni 2.0943134912391255 0.7391934455328031 3.8689894777492264 0.1769345778089469 -0.2283640972338325 -0.10985938142700434
P 4.292548663232788 4.613011588765101 3.3717524734188795 0.9660287637154072 0.09878615433197825 0.458271627695385
P 4.826049647826791 0.2381380612042617 10.65483860422806 -0.07008338708064704 0.08645385801887046 -1.1452855618996274
P 0.4606051433503323 7.040164695968838 3.400054331846552 0.8202140472397164 -0.4464324689686118 -0.27504915999519725
P 0.3413415426708304 0.27456194941749024 -0.049542810342101125 0.19622890726218464 0.44219863339292226 -0.5691545652908973
P 1.3647542685872662 1.1634458735723183 5.887725665538253 0.4004719430780974 0.7272409000450895 0.40118388154345747
P 3.9038059675560497 4.472135458161179 11.27027254002515 0.41587465078641284 -0.2015832295955625 1.0185090930023106
P 8.560048162110439 4.511132662742108 4.903750122144925 -0.8607338617306338 -0.4467970513968821 0.037048825223181356
P 3.7935988876275304 2.3415330299263837 13.38771167860749 0.04977964252628846 -0.6649590112867323 -0.33387959986984433
Ni 4.511114176273949 6.0415441725001315 9.870068620096621 3.048327161714066 -0.7271732800319476 0.7577174713673919
Ni 8.644669970107218 2.3441581084049297 6.194820101621549 -1.6733402718264214 0.03343771083315532 0.22162086497272798
Ni 3.9636743946882333 2.6675696256085666 4.475832751792933 0.16687153714599004 -0.16905851749497983 0.014767131006845536
Ni 2.4124563650175124 7.3241076036534976 2.455527987180636 -0.4077610205403429 -0.10230136657408832 -0.6454646500075465
Ni 5.810796076942339 6.168583181687213 13.46468840769721 -0.25924870262783095 -1.392562179767247 2.0706199332194664
Ni 8.713994225702614 8.902195714792992 9.921977698363046 1.173584923064953 0.032319795178628215 -1.2559538123811727
Ni 4.677344497957627 1.8457906565466735 8.912528726170338 -0.03496623166253979 -1.4646926791849098 -2.050810868913339
Ni 3.204462877109704 3.0351360720094314 2.235353227086253 1.1262437147768283 -1.2202429892431241 -1.229617745589805
Ni 7.2848608317524235 5.90109323066386 9.17970070994136 -0.3824369399532575 0.3309783670626494 -2.6383634770954494
Ni 7.61249650693034 8.56411518510537 3.292422416932549 0.15211957564779607 -0.17702328086801125 0.16446884124176836
Ni 7.56100244987408 0.26720433509029895 0.8407959988568222 -1.0964034914869438 -1.7099887762873904 1.038918767006914
Ni 5.819336825231691 3.973592384855414 1.7793105440775054 -0.6956911502632664 0.5410074134327199 0.4034377105746407
Ni 0.43862935432659206 4.9765757148095915 9.153658822246097 0.2141870344025021 -0.6113882771491278 -0.8064504177967209
Ni 2.9265003418744073 6.28348582452806 8.346473071148738 -0.584082133135007 1.7324964704716033 0.05010591551745565
Ni 7.639218696653845 3.413313751133431 8.37647845761724 -0.4545013620196753 1.0676719278802065 0.18683049676642016
Ni 6.595546650282212 0.12636979903973392 7.02557240232771 -0.3257687978372519 0.46793794714055537 2.4665929599859453
Ni 4.709603384894685 0.16690969938851305 4.827760570454884 -0.3847876995736212 -1.6262181215276381 2.0072355554255497
Ni 7.831921640740886 7.384549111298602 13.11813183235879 1.513672194407406 -0.37512317990066363 0.590376450784151
Ni 4.366522265570114 8.755801373443678 8.352493189504642 0.605552644303957 0.31039668625655575 0.32626090698232196
Ni 9.239841812478884 2.02770674646307 10.816462098046573 -3.3865472979407936 -0.28640932220302284 0.8977461772889248
Ni 3.7443509364525616 2.2120353204741856 11.07501753900879 -0.34066782643627136 -0.069793366644054 0.2041661598313903
Ni 3.8592073631230126 5.581397493560137 1.4119326596518604 0.2614660219941239 0.440114497170384 -0.12554619603464184
Ni 2.8059223533088167 8.473873490788325 6.718761733530651 0.8366490528672882 -0.024484101184293318 -1.561449461791685
Ni 0.47861003901356836 8.76041374724929 2.0782607666134556 0.175035303903705 -0.8143185076908878 -0.04056866545098175
P 1.6617116498557007 2.6223702109603693 10.053690086700664 3.8794655691757707 1.2535847979283634 -1.7675269797131754
P 6.504315929918671 6.154274655332323 11.206377760127985 0.19028091720886586 0.4067667749478737 0.6400486211982978
P 7.711149544259627 7.4652333015775625 7.297412219308822 -0.6065373768147296 -0.7294381648067244 0.6039112520457922
P 4.431280363530292 7.046588743654011 5.9260240816227805 -0.5190748750256867 1.05912172431735 -0.7211725823638224
P 5.7489773274194045 4.503719589010441 8.100471790713142 -0.6611753758745839 -1.1229935832706466 -0.3236530370458297
P 8.528806030922114 1.5675785539912337 8.51526654164263 0.7055112216774817 -2.12650851685697 -0.5412113019134098
P 7.122105966082595 1.8087530175905737 2.6528664131584874 0.07916503766694108 -0.7819565464204146 0.4387870366082121
P 1.3610662181895912 7.605647270477515 9.773016510909883 -1.5407716217273593 -0.011651982416631547 -0.7523914311687881
Ni 6.481152385315729 7.706158197856759 5.356315500493007 -2.186286922467183 -0.25519947225912176 0.11661392654201852
Ni 8.542837260254622 7.092407454985527 5.129850719607602 1.8716944529617248 -1.3982844269630048 0.5464864342694201
Ni 5.761409477256178 3.2859419855194916 10.275122850953252 0.5085549493309693 1.0260974468725297 0.1160580540385485
Ni 3.460250893788553 3.1464800697297153 6.781195158119864 0.10055790152042036 -0.6630803062067806 0.6290070186721555
Ni 5.79104328571469 7.973426311262206 12.304302968928576 -0.825429787112701 2.5400820303140317 -1.4121915239624
Ni 8.573644959441216 5.272239043306913 6.952207929116216 -0.7691133719091592 -1.5299380214469653 -1.0662732477604668
Ni 3.6114239871569116 3.9000162415835016 9.17796945219829 -1.1644461939884783 0.19516601321530905 -0.5721013066240469
Ni 0.6938979012501798 5.634767927134511 1.5836756461404844 0.9475774989887553 0.11145860759332418 -0.00024965411696086035
Ni 8.808192024205637 6.6098644198711805 10.769681166047393 0.9950747732387701 0.10691778230017715 1.5285249431495225
Ni 1.8862113191758285 2.098620838320119 12.484338985033224 -1.7555101577579573 -1.2088923401169955 0.8459379343683818
Ni 1.7566304206169159 0.4154149719362141 10.870535017410981 -0.5843348725757613 -0.4050886159145023 -0.8622808945027794
Ni 7.880651970807408 0.436070827133418 11.99392071448324 0.5034603084168814 -0.8889537758082755 1.0708932630309813
Ni 0.5588357648821914 6.9866833435855105 7.659418860410936 1.5563676763934036 1.5843878157554132 0.7192092879898646
Ni 7.787517144223514 4.985754246250421 0.9054588915059829 -0.5542215981301486 1.3789839268621797 -0.868842092660065
Ni 2.124307785826733 5.49822687331382 10.641797325265454 -0.8500288166083038 0.41201722471353563 0.6021366766438727
Ni 7.501827265297852 2.500137683494568 0.6708840970393245 -0.7222182500195174 2.3533500067986886 -2.0204451121372884
Ni 2.2200307179528544 7.277734298277217 4.874028502962659 -0.41656936286059226 -0.6870535291929264 -0.7403728094413571
Ni 3.4423744790790205 0.058481942020275346 12.560328536723265 0.4425575593942378 -0.47719263296960396 -0.566930561056385
Ni 6.355592293581351 8.04126240617082 9.811815910281515 -0.36951380413368623 -0.5188293346737838 -0.18147540310209392
Ni 6.843921593229393 1.0816617384379108 9.965592822690036 -0.2229249284961322 1.3741263416595626 -0.5344629274459828
Ni 2.7381971772091553 4.1187666193062515 13.35046791553142 -0.41404042579115147 1.5987682528468015 -0.011656096181689602
Ni 0.14178751348414978 3.7919258622591614 12.711616246194207 -0.3881262770285509 -0.9597205621091923 0.33143216677061627
Ni 2.745545548302267 0.1561191479242378 1.276943544833099 -0.909241579523034 1.272170788460667 0.4512268050334615
Ni 1.1350321720122856 2.8792211995583483 7.81767411973092 0.3536480407460232 -0.2964474231653153 1.278082783069728
P 4.070498450943697 0.4376856201270867 2.9984496759483483 -0.5089305875028332 0.9053427586892601 -2.836784506912947
P 3.0649085289791334 7.425801664994902 0.2954100638835454 0.9458723433721904 -0.30507784514680364 1.292393029044813
P 1.9682542648644588 5.005950712713879 7.1264271780147075 -1.7751333313055233 -1.5609743219274794 -0.15508791424750065
P 7.02084633674292 7.153819502208968 1.8940579005858194 -1.2685599311809572 -0.6056287489575312 -2.374861912728536
P 4.480158585342086 1.1050193909565191 6.702717327815653 -0.19498397911148999 0.7158519414818574 1.6883138624171181
P 9.42477119670516 5.823681145249003 12.94837706552064 -0.3759672730685138 0.7129962172006173 -0.4069830047237377
P 1.2061681014872403 3.3844656175716668 1.835940141988272 1.1170095977730699 2.2570585938641066 -0.732234753715255
P 7.3383884003061475 2.6463194304600584 11.866754148665864 -0.25749701004404685 -0.6433725433652081 0.7322057002495326
