# total energy = -340864.0454385383 ev
CRYSTAL
PRIMVEC
9.32043249997444 0.00000000000000 0.00000000000000

0.00000000000000 9.32043249997444 0.00000000000000

0.00000000000000 0.00000000000000 13.64139508746605

PRIMCOORD
 96 1
Ni 3.2428115009602703 5.779460428462885 5.185421726745983 0.34678139553317694 0.5419746624419957 1.7665337625619704
Ni 5.1860844095015155 3.2805778937227648 1.397738669947566 0.20486884232536975 -0.14719796997646264 0.7465056618119724
Ni 4.8229323953837735 2.629405872411881 7.689081915220076 -0.11736828820953982 1.4984268382125614 -0.002742595742143664
Ni 3.358021367924041 2.7892326500750753 5.719905660487932 -0.24408613595477965 -0.43114468957160584 -0.32734874072986203
Ni 4.582381351255632 7.795255622809898 7.0848904663076695 -0.4915985239822888 0.8325154903148887 -0.8571451159381109
Ni 4.69285643847524 8.115701414904501 4.660118419082776 -0.5286504345292637 0.5232927697617761 0.895420871589858
Ni 8.113697521902543 1.3579777046156798 0.0640267115207202 -1.661480801384674 -0.1735875157135849 1.0217355703594082
Ni 7.586552496764047 8.25230167461011 12.993510653157728 0.7179741300311829 0.17905625213764 0.2524039117918556
Ni 9.176375961490058 6.8678259802057395 6.0643776636543905 -0.32862015124311794 0.9006754351205778 -0.7960747309893517
Ni 3.4627643891147906 3.3384577799653843 11.491129622691137 -0.5969934418800363 0.562397706183038 1.5101454122010702
Ni 8.487223177467632 8.60840744170701 10.810368956152262 0.5017096442743617 -0.4234177532409934 0.03734167387325182
Ni 2.566138776145392 7.779438848743275 1.8271011729365338 1.6532666410049979 -0.17597684188136792 1.2455819822285452
Ni 6.631040390834767 0.35057688649800794 7.42383824909152 -1.8389877067573233 -1.6196065297483915 2.519638417747699
Ni 5.018913130975329 7.756641070683783 9.315312853640275 1.1517066349346232 -0.44785377479617056 0.8041868185735247
Ni 2.065594265553827 0.5028503856087028 8.668110404559783 -0.6512046378151172 1.299733014349652 0.9354094961676536
Ni 4.200635074166229 6.3989616199102555 3.20192183124449 0.17714489404754008 1.089017483435518 -0.5295953149410362
Ni 7.657425066005413 6.0980421340440385 3.6402338135845307 0.45810656287243046 0.2622021288292001 -0.09595896929582828
Ni 2.4937562968281326 5.424361268083247 2.010523557686976 -1.4474313210013008 -2.152817329954828 -0.008309548306959883
Ni 5.212181620689813 4.434344920790009 12.990455415362183 0.23458668110477665 -0.3781889633101809 -1.6746075685746191
Ni 4.478039108665275 1.2397852992303893 9.29587415947802 -1.3695749748434543 -1.386803937127231 1.4320224426453982
Ni 5.7988003260399275 5.758191201344421 7.75591034877051 0.24301450015715567 2.0531616285337027 1.1369119931239517
Ni 8.426919978757528 2.4535199894353164 7.371400563424918 0.16870499081030302 1.6831680565501206 -1.9449899192217666
Ni 5.6304733138754015 5.840686349997147 5.271853826115115 0.25018273577082073 0.7028311037421574 -0.3392436923952351
Ni 8.163039891913561 2.6447286635524394 11.746714524550251 0.19328113748777037 0.29388377620319706 -0.6705542459863225
P 3.637569101913554 6.709434549157902 12.03368877920935 -1.024932480030151 -0.15518510194699728 0.06391299660387703
P 0.15824696434304505 9.086545632406908 4.778853273643481 1.5682813971118539 -1.387404289715391 -0.7778237551989636
P 2.5380656332528364 8.068008761457886 3.992563873448438 0.48224150824742107 -1.2929959527361343 0.36613151792501464
P 4.349156167125349 0.6916459997341646 6.297795780738816 -0.6822424809575283 -1.7878487219896626 0.6955798214963828
P 2.9962487778262528 8.006987889440104 9.052334052625561 -0.5069402965456817 -0.719376152585032 -0.8621585099923023
P 4.409617813189096 4.476305508207766 6.5562867934724 0.36397179126953444 1.106590716432591 -0.1397512838904303
P 7.498977712362172 7.3322351737340785 7.882175180802296 -0.0325985027613116 1.1846823185296953 -2.1099608969109336
P 4.0302202851066395 0.30582576156961633 1.002429299386301 0.27925445632579643 0.17306892420595354 -0.0810087757438992
Ni 0.6268233232722014 3.694572867494852 0.8725211102639779 -0.15008197639247703 -0.0023903546090474964 -0.22448250279123919
Ni 0.33016607121898833 7.510059706684631 3.2295867391905997 1.1842778840024248 -0.24729255870721928 0.5913277589538268
Ni 1.7112593806447034 5.839185760353819 13.332158318012912 0.16689853372918353 0.07293319782461634 -0.53811646503817
Ni 8.733851143629622 1.2031746401062335 9.119968703593065 0.7277026701728564 -1.6805599295033122 2.007841564440665
Ni 8.060002509882619 0.6538889274042371 5.870929289591357 -1.1530433514681755 0.26803133391646744 -1.4588344206319197
Ni 7.876548435661447 8.248797191964824 1.8334987178506938 -1.971428573029269 -0.4993496286826174 0.48298944215703915
Ni 1.06462640999407 2.373140578975357 4.695027167220153 1.7808339812347267 -0.21295136222318808 0.02260745298687074
Ni 1.974151501636542 7.978625813137963 10.985606137022147 -0.08037988391064867 -0.3306358961215661 0.36981230921071145
Ni 6.2043509879060865 0.9475244952191479 1.8479314076810796 0.2500037869907953 -0.8588723830418628 -1.1734738514083856
Ni 2.033858192662342 7.163414178643489 6.981720734134272 1.1315283602145352 -0.06168205039082925 0.5130412672370971
Ni 0.608329720972265 9.135207610840517 6.921712061093292 -1.070860610020833 -0.34156051345386984 1.256454406166675
Ni 2.1576521780205495 3.21156941099485 8.391259071711975 0.322769863109928 0.8047853713894721 1.656154504075754
Ni 2.307002789478155 0.4644958735512145 5.5182310726410435 1.4066425691197129 -0.5628329939482435 -0.8922954385869988
Ni 4.888194064219655 4.177399235776075 3.7797989028897807 0.047627114959659905 -2.1452845119128923 0.4585081691862232
Ni 6.640276939508912 4.091455527073468 6.526466069473485 0.8110521782347904 -1.229992098210088 -1.0257660316750399
Ni 0.6349171869136009 8.446679295800097 1.0356286801908436 -0.26469712733691186 0.42622591211374977 -1.5335373087624493
Ni 7.762773915313033 6.431256918755774 9.681162200942978 -0.44616044625414775 -0.11486197684791831 2.1366432912981264
Ni 2.4659814077777287 0.9912839261223843 11.714534799068566 0.3352379136699517 1.0914857424703526 -0.9298276312045018
Ni 5.859457701187587 1.9362173410878367 5.832187979582328 1.9428142517266866 0.72824568716052 -2.540638417038134
Ni 6.889738317171343 5.842848690352749 0.3904851146644567 -1.7273666054442058 0.26667816232268265 1.6164541001623387
Ni 8.445038899668262 5.086709957469501 12.88088720623137 2.347466551434718 -1.7933591102849307 -1.284985423726832
Ni 6.923385078739114 7.6979409863752455 5.703344183859185 0.035622120078983806 0.6486512752656441 0.4178657130745126
Ni 4.73511527973515 5.5958479068880695 10.391250540597959 0.29850044903960204 -1.0781350321950594 0.6474875939748461
Ni 7.80073603715944 2.6432094330439777 2.2330824387872994 0.0701782607872985 1.0534784099886438 -0.6768843019694084
P 1.3945138002792978 1.958539777086399 6.977792171807176 -0.8457253041369435 -1.0633997828674138 -1.439106088965057
P 6.632550300910661 0.8483178109733446 12.221202833856815 -1.0090839430336687 0.04264200304024269 -0.3992105598671706
P 6.743109272023374 2.1056162029975956 8.771594235310697 -0.20575947246043919 0.08844672007918317 0.5895742665978299
P 6.185039051626745 2.313210197567943 3.694772324751791 0.19841614472149052 0.792150713344597 -0.7816104759349055
P 6.720563145643197 4.911299416553867 11.350241031961337 0.40105378372349637 -0.43164425491584374 0.02655718166323813
P 3.198269153721385 3.8935920641033297 0.3266681128764996 -0.536176824813296 0.40185468235823696 -0.5942199928999572
P 8.822889235944555 6.300211636860247 1.4044223521415409 0.8129887331358707 -0.4630870468061573 0.13611214447594622
P 0.5352677821208532 1.4860124867919857 1.1261011870778774 2.2950618125807574 0.3008769196915786 0.2537704531220791
Ni 4.6212848367913315 1.9306810041428906 12.863590347473066 0.47510181187884626 -1.565099914060079 1.548610658155804
Ni 5.89970332901297 7.82099865756064 0.9078604623859611 -2.277833621627929 1.8361188698499604 0.19484205421698703
Ni 2.746871284056926 8.24430474346741 13.260759144331498 0.5075709881511452 0.9547861009220524 -0.3289561944262979
Ni 1.8956361776900326 0.6043079543194969 2.960837658373502 -0.32808639022683495 -1.2351517880341567 0.8845273646058056
Ni 1.3782030432866113 4.322257398736267 6.405126154010234 0.057384451456739885 -0.1604322092785495 -0.25999740786839737
Ni 4.474571907750258 9.080934732001422 11.364850810010502 -0.31207587373119156 -0.3125548702501391 0.750501670345243
Ni 4.430812476847022 6.052828715660311 0.8020269505848434 -0.776752890732288 0.15757005723940606 -0.6046018503549137
Ni 9.251293598465608 3.728424678579102 9.664969813443895 0.0947981162185077 0.9621242864546785 -0.886169528194919
Ni 1.2127467243527987 5.42130416620119 4.279524147458685 0.2671869836383011 2.9068316414390196 0.4236794915428122
Ni 6.999663498869483 4.314912897873274 9.172528486926296 -0.806562775004869 -1.8653152889082585 0.37171672532227595
Ni 0.5181573320138967 7.5305553379000125 9.084636807817136 0.28039911145320096 0.4062605247354164 -0.7313644352951598
Ni 5.719763057869652 7.030029468173582 12.019379119088851 0.8844630870267736 -0.16510210395039307 0.3787756890515864
Ni 6.405644370060973 0.2205978620881738 10.169277914706116 1.3874945354363521 0.3875187253515391 -0.5609807712308532
Ni 2.7491361491707678 2.1460016373114876 1.7011364588334141 0.6822936459104378 1.4952643813241795 -1.3277698658822101
Ni 0.524214681139352 0.22221961735487522 12.526756438795468 -0.14504955617489212 0.19889951211581228 0.21761302936491556
Ni 8.20313639281787 2.604585560485296 4.69791929744577 -1.7418799685690323 1.5633515639104045 0.015885303771688772
Ni 1.5104320201181793 5.36406738980571 10.552888278308968 0.11270173597180591 0.581260861636128 0.011867183751231174
Ni 0.3753888100352828 3.937155765922654 3.054935813529196 -1.1560749392056477 -1.180575238339857 -0.31299838554546094
Ni 8.593746401278727 4.9953417570127545 7.3916715722154285 -0.8819169235661523 -0.1151424842028146 0.588357106361277
Ni 3.501350979943203 5.385252733031069 8.434229061976765 -1.3595612993611939 0.580883166581735 -1.116112539880097
Ni 4.477358717087865 0.8758345240416352 3.3362898473502423 -1.351257407481189 0.4047186341695933 0.5157352691294924
Ni 8.884870112516763 0.6887855589792758 2.8506151548764667 -0.6975783399836502 0.5068762760769657 1.3592085440074657
Ni 1.2836472548918656 3.289357741201114 12.400914754402237 -0.05994064221969031 0.216840155754633 -0.7590446748192475
Ni 5.858413812740055 2.6978551291857613 10.850679827005617 0.008458929400630592 0.5228739370568027 -0.05919785051639482
P 3.9299231102504684 3.5719252953424165 9.582630316015043 0.982439858083579 -0.28743287837153075 -1.1775235959977268
P 9.129512826541928 6.602818121021135 11.584136355193206 1.0110852897344134 1.23716187648565 -1.139521919942973
P 1.0973970509005193 5.579304139081202 8.206254077511614 1.3314773966407845 -0.44341759340168796 1.2643983436040998
P 8.69423930521881 4.856961294686802 5.145657033241069 -1.4226957659278336 -1.2735388724527872 0.6101585185070847
P 0.7581044121116803 2.109316414726794 10.648377974046955 0.7912210024414761 -1.5970715818706689 0.5875960598255363
P 2.7782811418085567 3.9529166173938726 3.889312121468449 -1.599143376798033 -0.4476833106565774 -0.6504271362191444
P 5.933079798036291 5.403921559463269 2.4538415443588866 0.6860058046547025 0.31062320044506503 -1.4086493151370967
P 6.443531928446842 8.906605361263589 3.6842812458540948 0.7780456414017826 -0.6573122933747517 -0.3025599638209564
