# total energy = -340892.7225159758 ev
CRYSTAL
PRIMVEC
9.09249026277099 0.00000000000000 0.00000000000000
0.00000000000000 9.09249026277099 0.00000000000000
0.00000000000000 0.00000000000000 13.30777858256905
PRIMCOORD
 96 1
Ni 6.279464545909237 2.2095478133047095 11.816455451510109 0.4736699645283262 -1.5048949624354082 -1.0619339969551647
Ni 4.762237107245062 0.42476567273967997 6.212855691814202 0.39457923174274623 0.006389705576427706 -0.9645501222873517
Ni 2.869508015985674 1.6686628598461515 4.682301390536612 0.005069701213423527 -0.00571993320291273 0.6270838335075136
Ni 3.4458536804985522 4.386489957419472 4.685495582278506 0.24212926933872495 -0.135681741806747 0.8068129433424621
Ni 4.968472965740985 4.732131872808946 2.635858300097756 -0.312226797486759 -0.811461240747751 0.25234837596357185
Ni 7.130057894222223 6.113090163634375 2.829765651383794 0.1756549397655749 -0.4896848518993438 -0.8529711870660793
Ni 5.385490927739797 4.504455922860179 11.703818594466567 -0.5830176964262347 0.3794652589194432 -0.6464943768236414
Ni 5.468550824017033 8.048363015668935 12.660447652072985 -0.042593923411126645 0.25430164303520075 -0.48873971437725505
Ni 1.8124787743964568 6.640863746492848 0.1760396991596675 -1.2984083820009575 -1.5565957332438096 1.2718779398105966
Ni 2.4392150185665264 1.5309025436451225 0.41781628262203446 0.3745148568927034 -0.1857632318441704 -0.027361165621772234
Ni 0.5645026962697369 0.020289891466081195 4.772475251000746 1.0237302321919337 -0.5409346512132555 0.6138418808959428
Ni 8.509079484674686 2.451080718034703 1.580937606942769 1.004654189397089 0.7663013563816609 -0.8848214988074568
Ni 6.942134310614351 0.6674078612513729 4.805225490781914 -0.4904587539508907 -0.47035247011931897 -0.40820119340155514
Ni 0.8016111953589531 7.385265903933165 2.7488679492318706 0.6858389400595349 -0.40430417233999405 -0.8276198527854844
Ni 7.604031213668282 3.773437910720364 3.8520824938468365 0.518935521234345 0.15570883566095117 0.23460236483406047
Ni 7.795037151390876 3.9834471525720683 12.842032860892147 -0.7253593667516604 -0.19066658268305872 -0.12923907150519676
Ni 8.024040604881677 8.760186781389347 6.8629014433839775 0.3187265462784898 -0.32911688837387837 0.1650383405919932
Ni 7.135731607990914 0.5319179398068218 0.5771712626061434 -2.518370863889185 -0.24298853201522672 0.2857130674669466
Ni 2.0165506202690655 6.457068153351299 9.284211530615076 -0.41998301652783154 0.8750410223819252 0.02912185706662081
Ni 9.379267148967687 4.977483623344789 1.4976176654511348 -0.3770905880396796 -0.20353521111561076 0.5760376655639756
Ni 6.69583694111706 1.8882646786625499 7.03348019304128 -0.8322110717005925 -0.6404736245508582 -0.11221554036400674
Ni 3.352173755885048 4.560565678736131 0.3240045169033283 0.609727087396621 -0.6834832953431648 0.5495627592018987
Ni 5.7902158432397774 5.308995809252618 4.957093714488555 -0.3881262770285509 1.6972541023295415 -0.7313549222134631
Ni 5.397984009018935 3.0882915107008184 9.512320283088506 0.5618878564261548 -1.0802482218833203 -0.11104517420498941
P 0.01888146476292369 5.687134283951872 12.395463397099068 1.672461982986526 -0.24259952410692415 -0.10341671112545414
P 4.072280780008149 6.2952309235933885 12.439618347104707 0.2929782336697922 -0.4917260506990886 0.803307501292365
P 2.2551466507245603 8.544794785449398 1.4349376762911181 -0.20118085195082128 -0.46924561020838534 -0.6331030431183999
P 6.339520442451234 7.674588936176367 5.894773113656944 -0.16518309369997358 -0.16570554186234687 -0.26585335242854213
P 4.414494826662371 1.1908616021042289 12.80317428631962 0.7474384580388869 0.006403332423182521 -0.09830227271702426
P 4.047585577130319 6.319053247429881 8.47611011588418 0.13361226087222797 -1.6549926225571692 -2.1174296944841533
P 4.7567634282566775 0.9373538880258914 3.6083110180754137 0.537084938449862 -0.03819502301248261 0.9349569820112672
P 0.04409130257554153 5.538253852463809 3.6923365367921286 0.6768297945823891 0.25971432941033984 -1.3216370135115947
Ni 1.4300850143706847 1.0868253313648601 2.7069088355645947 0.47023445648421597 0.03244192257878929 -1.0363535773828991
Ni 1.816006660521861 6.592973601589487 4.777053319722759 0.4909272089468771 -0.1955956445535599 0.4873451480225736
Ni 6.0894042271480915 5.668894748983932 9.19841570409265 -0.27884128004777786 -0.39685542937143264 0.6209378685107758
Ni 8.608660435307229 2.2324972580998645 10.518867110871392 0.4638684050568721 0.7436229409475387 -0.767049547401595
Ni 2.297835891339954 5.30779560057078 7.069131846385893 -0.10120839062022569 -0.28671245526573846 -0.1307843045051296
Ni 0.6863657029304135 8.955375264518347 9.059056928147172 0.7192298568151548 -0.05419911175022279 1.4562077816423502
Ni 1.4916320792749658 1.2125744682574897 11.483308435897777 -0.35087124933183444 0.006591280064272519 0.15424459241059887
Ni 3.994603637819158 6.77215020980396 1.5385920624499017 -0.1936601180937439 0.802729774412024 -0.6735742637595691
Ni 5.694190056202681 7.807830284840473 8.002405934142535 0.9100987853170067 0.287133344853241 0.339247549049977
Ni 5.349648332104891 2.782238296831989 4.724913344986888 -0.5819573734825203 0.015256411938438241 0.5942760429488734
Ni 1.179805134247292 7.666923967094625 7.068173497938425 -0.3186288443583609 -0.7193270445146516 -0.1818001334313643
Ni 5.098995659890928 4.417186203706494 7.2145462206806465 0.0799538521168236 0.02668933636572823 -0.2661963375902577
Ni 8.289141243727773 7.226138236199405 9.038084190681046 -1.0601344818525806 -0.4756394295498712 0.15716073761612934
Ni 4.75021683544665 0.6579534901348901 10.324386932714475 -0.7087443839027987 -0.3767697143651511 1.1712161657224602
Ni 8.192106190299128 7.231239123097218 4.725126109253214 -0.2980363649189899 0.027415673008791493 0.8596989927082163
Ni 7.196151204133469 5.806855099965267 6.963987201113826 0.522712471778274 0.7761224562371408 0.16157352197184432
Ni 2.538359529678402 5.214852167648403 2.629669951394276 -1.9330288902051485 -0.09170765021864206 -0.5440112332560502
Ni 2.6228287619077966 5.1302374555787855 11.392229872677257 -1.0023180850647448 0.45650939358863957 -0.7012925556104438
Ni 0.9688593659241532 3.2752785678372556 3.727615398046171 0.33805687117598554 0.9023276260120202 0.35277720810529567
Ni 3.8622351681963885 2.4107918947829865 2.2938615639548656 0.2994209039713424 0.4338651738265625 0.19218507621011416
Ni 0.9502561313556558 3.3384259109839887 7.946527127512937 0.2182115821808629 0.09637060291195015 0.4483253151159505
Ni 3.4493451966639004 2.592023405740607 7.064713805488125 0.794458021321535 -0.14244914243756757 0.22420765186329775
Ni 3.980182948657068 6.694800397255471 6.252167072389421 0.9958579312616979 0.9497369685339192 -0.6696870128900209
Ni 0.6995489042016083 7.631299591220053 11.343550499640688 0.40181688714176605 -1.2292621620225992 -0.2223364029825139
P 0.22288511696042795 5.658665697718263 7.816123544982177 -0.15903198649691322 0.25863318053101914 0.3245215556937121
P 8.651540618212916 1.370238245099008 8.122083106203863 -0.13424680913243334 2.0550876419118222 -0.6493480442223526
P 1.7542504683472593 3.462247439993665 10.255306739833655 -0.24458955795375945 -0.9464233307796538 0.16042063931432374
P 3.910925452220975 6.412342194972785 3.7084256978717747 0.5510023198619026 -0.3945339803271076 1.6859520470531608
P 7.181639590071239 3.8682453040955957 10.473593784594039 -0.734811770413812 1.5507248762853294 -0.010723814175407338
P 6.287375012221354 8.009301678569098 10.482164365681168 0.7694627848287781 -0.33943446824980256 -0.5862678279324162
P 2.720272977387067 8.718252217445109 5.900335899047466 -0.9853122945353676 -0.1083102917723296 -0.6546005508705436
P 6.860210975588857 4.1225986197452285 1.7826035799576925 1.0290706705682406 -0.4731667996396625 -0.5694651545527805
Ni 5.5013019730472035 3.091919414216376 0.4771093192518629 -1.0616483473939458 -0.31319378938571873 0.4196366889320063
Ni 1.5204825500891608 1.0704679418298029 7.0981696224943756 -0.14430882135412565 0.07863153376097426 -0.7246150323864682
Ni 6.980295491202809 0.6203987786303617 9.333064570210913 -0.019753271367527272 0.2875742890454015 -0.6813065994068201
Ni 2.6160639493374336 1.6570153801383094 9.288070383376988 0.4289003736221194 -0.11342910105613369 -0.13358166474460864
Ni 6.456940858491104 2.023015380668969 2.643404157560315 -0.7381794013344642 -0.7709141725633238 -0.21874868563125552
Ni 4.177717294209662 7.24649632134059 10.342938340089892 0.5589963938109728 0.38344018440679123 1.202551228390316
Ni 8.221556765454242 6.99228848553118 0.4979574896047993 -0.28573080807875956 0.8267299939813632 0.31405742293759464
Ni 7.642228764216795 3.6564084717510923 8.233243342869144 0.29516392846720135 0.581768911620798 0.7075760746263104
Ni 2.8868201169721934 8.22212959232512 12.431221432576843 1.5125753617988014 2.056487607583142 -0.11672114154384412
Ni 0.09417819306626746 5.045040824148277 9.964758039936575 -0.2898324889519589 -0.7969728173235888 0.7590403039438735
Ni 8.708896045220776 2.0980466082639055 5.677085263988478 0.4773636113298295 1.2941220959207775 0.43685048170713153
Ni 3.5247583088394228 2.788957646952282 11.500515064000135 0.4370885658598666 -0.060470032360599085 0.17885981985611776
Ni 1.1231134590104483 3.595325123837521 12.917580541919875 0.09699023877382007 -0.2924580995002641 -0.6237393425153129
Ni 3.4341334608705987 8.538348210029522 8.015807355174065 -1.053455012949876 0.2650519395731693 1.3036683448483162
Ni 5.61702209345447 7.929596911107002 3.7405103673839237 -0.4343853079960906 -0.19475875047456134 -0.014189918347136853
Ni 2.9983485994830392 8.47078191673602 3.626981537070014 0.6355828721174602 -0.15962693976843476 0.052147885648148894
Ni 3.5447163244199955 4.2389733994334975 9.061319139662638 -1.505684033995607 0.5024400946824831 0.34876911538716704
Ni 7.22710204014088 6.230856094294775 11.333489659440277 0.552490474371655 -0.1623916469977655 0.5421525827807565
Ni 0.3411820490376418 9.180959941763911 0.29717076037422285 1.3273124666298175 -0.6975426016497084 0.17828852073368004
Ni 4.515848812847631 -0.011276506115273985 1.5447667724183607 0.23584215077843254 1.4564972878583111 -0.4898907972625627
Ni 5.853899643297332 5.62792398898117 0.4913654343447012 0.7159856388462443 0.8088011774170845 -0.459643311231931
Ni 8.026522854655479 -0.042890184644701596 11.474445076632199 -0.9008011620651647 -0.37769865393732377 -0.19929854732644386
Ni 0.1125432043964 4.850034190819555 5.651387159462113 -0.26689567765012745 -0.7970070129956339 1.584371360695181
Ni 8.02923241667963 8.654450215017373 2.527160309728246 -0.6555482594957935 0.4978858996528973 0.712423889636915
P 8.602859426678345 1.480202819327458 3.527279656320285 -1.234164741530539 0.30767311667780556 0.6444243816684901
P 1.9900005494283945 3.3248417309031795 1.7469255583920387 -0.9623490008709749 -0.605008598875029 -1.0087995790240303
P 4.975165038391237 1.269275235984347 8.273698558688116 -0.49044358444223923 -0.05045404288549375 -0.3578368820163902
P 8.307162558935378 1.7149800039771028 12.666583264334385 1.6765091564727064 1.8128079630381615 -0.20256847632696723
P 6.299049769399239 7.666851227174514 1.44710070018275 -0.12769718093937363 0.019651969902972605 0.14790605178708074
P 1.9170515020466472 3.4920435297693087 5.904288404456521 -0.9083038982001131 -1.1134200806495986 -0.826023454832642
P 6.914183996311535 3.810080645476496 5.976044517148441 0.5456186869524862 -0.34642041264933243 0.4278482782085212
P 2.4680018419506236 8.653522781035951 10.346465316966295 -0.481513628942461 0.6191198414654305 -0.9944317403381325
