# total energy = -340869.50399180065 ev
CRYSTAL
PRIMVEC
9.20591222855775 0.00000000000000 0.00000000000000
0.00000000000000 9.20591222855775 0.00000000000000
0.00000000000000 0.00000000000000 13.47378309436305
PRIMCOORD
 96 1
Ni 3.6555572911660907 8.64204093683233 2.1848143028944773 1.1596549432474221 -0.8579737824869934 1.952646921546392
Ni 0.3350344475791865 0.16799501063636657 2.225073598430297 0.10480947770792272 0.08604556683685827 0.28847803180659354
Ni -0.14703959253790633 6.975080372680556 10.362067141077658 0.509528111877516 0.26960484905117443 -0.034500604880030906
Ni 5.677847657085808 4.953158243251608 4.6629796032042705 1.5979133610456737 0.24616898662573736 -0.09219153183359606
Ni 6.573895921899553 0.8281104734492424 5.426930391684305 2.5969437764980823 1.3969106865439298 2.4786177523609636
Ni 6.274068565202829 7.676718182192591 4.644049485805042 0.1949407845783804 -0.2093479611426459 0.8747774843078935
Ni 8.102694154714644 8.29957179450451 6.277879812882293 0.051809271361807546 -0.045176339426322196 0.41236843740536727
Ni 4.166614304880417 3.6888182521948374 3.67068996975426 -1.6591655229879363 -0.35902730278006556 0.05716847879119187
Ni 0.3947311062802695 4.028534826754157 8.156502711928324 -0.8733284105661928 -0.9353513892362085 1.582671604395255
Ni 7.526790694975825 9.257097141452208 10.17946971239983 -0.10814419850811052 -1.6748369109766061 -0.9022651482052009
Ni 7.790190256823184 3.970279813914437 5.238781797908128 -1.0773127934040803 -0.21247570813835023 1.0561590421446003
Ni 7.623056919575219 8.864464983169324 0.6763151066330491 0.5754910490318863 -0.0881322741625579 0.676047665000726
Ni 0.3574499233635475 1.0401392036518151 10.996546899994394 -0.9309118654076162 0.36703243247272915 -0.5671092527260944
Ni 4.696101554957751 4.688027969897633 9.996604391674968 -2.6783518445629295 -0.18053592200696006 0.8522728754474742
Ni 3.3474814370761323 8.077166159992055 4.863658364170103 -0.3765971933430288 1.4778970936903257 0.46790683679230377
Ni 3.4997840496583605 6.365934363737528 11.912225852131057 1.3120324005422952 -0.126122380253086 0.07820961573220724
Ni 7.6553604657279655 2.3960504040506683 10.128781959445421 0.6736372557870205 1.364380060906076 -0.8612455112597296
Ni 8.28716222476558 7.150001911708295 2.4606363227579426 -0.41783743093973846 -0.48206641612213746 0.770472457040215
Ni 6.863661216486001 1.0985046874387665 8.104372392521325 -1.277517140374245 -1.0096292740141772 -0.20285643988103128
Ni 9.112223700071253 2.875558756418326 2.009614745316207 1.6641845734690823 1.184615726957818 -0.4421826925533223
Ni 2.150740459812357 3.309055959264345 1.0193430478356127 0.8475389603069144 1.7666214371797706 -2.5498293395087828
Ni 3.880871993955624 6.109687795723365 0.9307554746599886 -0.7411996762180266 0.139228835728057 0.5768629896787484
Ni 5.042381944965037 3.0352353047282117 1.5292879873478151 0.8769261552197801 -0.05289736221966374 0.8092058690546708
Ni 2.2928521275125413 0.9305612299111078 1.121301287991074 -0.31392655378668516 0.46390337205986554 0.351124245882905
P 5.794164358607595 1.42878520192212 10.824608076541889 -0.10195838141237279 -0.4826899086387493 -0.6534497250955521
P 5.783614383147052 5.683914353271233 11.745110006116402 -0.8825820679539768 1.3109273404035744 -0.6243561501637054
P 2.51929915751119 7.966538712252655 0.5921215153835311 -0.4982263137114516 -1.3973053508791868 -1.6831117493908883
P 7.926962495407213 9.051961798356837 3.8064919051851107 0.665728285352589 -0.5741113950755402 1.0647532115715148
P 4.36002131574478 6.175740216255128 5.845411831027975 0.35865706392484037 1.530399791574732 -0.9789146185391399
P 1.31081143619187 2.9874105904895343 5.574009569644969 0.31787731090431703 -0.052107262218200584 1.2563397349656815
P 8.151973403091862 8.064305500551933 11.949736262263283 -0.12211994396191225 -0.13943246709843085 0.8633018795681261
P 6.043396021472601 1.0479918468174727 0.833832868515799 -0.5958945523889028 2.1796871577624786 0.20649403663361857
Ni 4.57611169444054 4.12708411759632 12.933726765802579 -2.1594332926094486 2.0159780775048697 1.631459058211603
Ni 6.235624675566503 3.6634559638930946 11.648099023214428 2.9570954226905783 -1.911057785250696 -1.0098447324590931
Ni 5.405076476548367 3.1047307364486683 6.2050140966800695 1.1930448315617777 -0.337140015788671 -1.2665164183883673
Ni 0.9454748077872689 8.621180339630243 8.661971736895225 -0.9608641887953324 -3.511066081152186 -1.0042983487195671
Ni 1.2905676351118218 8.523505610453658 12.298734237572445 0.7670418340921114 -0.4939505691542332 -0.8093444515150642
Ni 2.270325260189723 2.1356059400417338 7.572589187924043 -1.3102814792894595 2.085382693350937 0.7575290095056696
Ni 4.720377545611725 2.6684073185359938 8.360091461762462 -0.4503459450904051 -0.20024291351758416 2.2148480219343276
Ni 8.275664040341304 5.448703294792273 12.38228525614557 0.260492602337261 -0.23807361121211254 -1.16964753568376
Ni 5.881694172463485 8.162284024833404 11.62404857741105 -0.003754581946425792 -0.19732265454699566 -1.7364102037037126
Ni 7.596746422309744 4.7986738294615705 2.804339057329841 -1.0651087951387206 -0.2288243246997027 0.26951948842621964
Ni 1.7318806574744217 2.97313222055995 10.030059597452595 -0.6007688497620686 0.3270921446343657 0.19604070251077851
Ni 6.7566240745316035 6.781627332254846 -0.12720545455383897 -0.6417072398476432 0.26811052389383505 0.23368345256421694
Ni 4.123134781232819 1.8141999249859233 13.331257390003922 1.8305040947663442 -1.343455394938267 1.0227717249334065
Ni 3.236605429705463 4.350170989616698 5.77940451946633 -0.8735423263492117 -1.0247231922328222 -0.022396879637961428
Ni 7.485658678956882 1.552402191873411 2.570245596600365 -1.9667345099877094 -1.0101735765534214 0.18679784375627184
Ni 2.7327106157366026 9.213184939927956 7.193073613442366 1.8843761621944515 0.25152176629721845 0.5312328505444592
Ni 1.536586434594865 6.7993303015485855 2.2570742700693853 0.6639038305493405 -0.31472539553889667 0.040908051068271487
Ni 4.869485706636529 8.149745572322706 6.870160590548082 1.626283684658251 -0.744021461937538 0.31075355537534227
Ni 8.67791637694554 6.556892601938275 7.990842320643436 0.13504385111243195 -0.6341224855218498 0.20564480125944584
Ni 4.015416401770497 2.6989617413575857 11.208705433559963 0.44853923089896947 -1.6681540996397914 -2.1882877549472957
Ni 4.362111057829897 6.522011400350142 3.5440092521997673 -0.3890269344659494 -0.689018109118465 -2.093908985654394
Ni 1.7996085540391853 5.3740801699378515 10.441225098315904 0.36580858736795707 0.6457824383582813 -0.8488391671755768
Ni 5.1380405793546595 6.9346572119063445 9.26784780580022 1.4320131866740178 0.08898459486052417 0.3670807692121614
Ni 9.182851459000826 3.2650609045296695 12.119264057292476 0.6070891355531415 -0.31501515886517356 0.003988809444418937
P 9.471502838202698 1.291515844075553 8.738327414438716 -1.0888069100866087 3.0595700816177374 0.24888767110848106
P 1.6939707107497108 7.670890839726165 6.443742734237105 -2.0323508624359388 -1.6773979868355628 -0.6460305498133454
P 8.133672049500621 6.028592914543672 4.6641119304133865 0.10507841509859323 0.8370701995651068 -0.7508089171730166
P 2.7693041170068122 4.144280761715252 8.516765041490123 0.13195467066414696 0.5962092554158442 -0.19469113046141953
P 6.9944404061827585 7.9059546036088175 8.33423573656309 -0.5765973947221876 0.3233439904458431 -0.1549678437298686
P 2.5144568476575726 7.741030685305468 10.362552292654247 -0.6209352974076146 -0.6923183771362916 -0.6322584357299175
P 7.120036667271934 4.189168789940044 7.41004223616861 0.12829881907911453 -0.27658308014122046 -0.10774953417285313
P 2.446811804303232 3.8735440877893126 12.033867253309369 -0.4953186531463534 0.6823728358878054 0.7117949978036644
Ni 5.095361970074485 8.532315668495317 0.2420133070546988 -1.1753137328306016 -1.0450652462242842 0.5184549820535006
Ni 3.205894506375295 1.7541405533414325 5.353160654897242 0.18680324307291055 0.41180099493767147 0.02343843352859834
Ni 3.5963448634503696 -0.3944742613279578 11.807682591810394 0.5373664742460229 1.445746219989394 0.4307608238696259
Ni 1.5247660432411667 5.508468077244148 13.136682148872593 -0.12435834637412775 -0.3598796234780318 0.703798095641117
Ni 4.45043258014094 9.099611600262401 9.267443666251602 0.7559899471533238 1.4780176784285899 0.13265555338591348
Ni 4.559955318408032 5.01055710625029 7.647395510432623 0.7187426327660912 0.7498630083199795 0.4485867963074533
Ni 8.975193695943686 2.156742714611898 4.398206519246341 -0.7843903526728878 -1.0891761205005692 -0.7373008553842528
Ni 3.0370304576207126 7.057464081577943 8.387915411004998 -1.0306539558949606 -0.6557017543545224 -0.3424922812395198
Ni 5.085437996648249 0.5534051307440353 4.039870987122494 -3.5673202756592244 0.23937227541887807 -1.6185359223920321
Ni 9.302114052448768 7.3540049275945485 0.2901482605368492 -0.3259210071444 -1.2913098232829632 0.8629594086270429
Ni 7.673155494144396 1.1386977004062477 12.438080449226952 -1.6673434308130384 0.9038270933756821 -1.5820383416866302
Ni 6.710143423484234 5.186960797153376 9.384409384588368 2.9492934101476562 -0.29068403831897677 -0.695248406298893
Ni 8.395920872314326 2.293818748300811 6.929283720914791 0.8569540829732274 0.10980256004713992 -0.19929031979632775
Ni 0.6571539208358629 7.965323531833116 4.424331977675204 -1.0226444553269225 -0.5798184727626466 -1.2963008487396512
Ni 1.4284261713436197 5.526493253467311 6.915890959745508 0.991421749867215 0.9778797495167223 0.06258785003455028
Ni 7.418050459251618 2.8861455555279463 0.5232760210692822 -1.3763763140360037 0.5918756610374968 -0.9723917298189577
Ni 2.286260694327769 0.7088285475855342 9.87589186704462 1.9082570825771068 0.2938953461674229 0.1508093414768048
Ni 6.126746351158258 8.397982996662634 2.544820708095191 -0.16037538789868508 0.2909066958527442 -1.8360322236734252
Ni 2.1938149233201085 1.709114436432603 12.353424721181517 -2.0131370085116487 -0.03911162128948102 -0.8287981893643016
Ni 0.7585993916779278 0.5143472067593509 5.7791209773684376 0.7739347045572026 1.434503042975407 1.6250269294330144
Ni 6.744582741283443 6.280190496861871 6.423343353239706 -0.18747790054243196 -1.3020176966187706 1.4013687223152833
Ni 1.9255638457068622 6.126258437807988 4.700868376330762 1.566534075403444 -0.06772877080554142 -0.580073011975614
Ni 1.9109540629355861 2.7190582478413265 3.088460207104022 0.8039957856086412 -1.3473750417076473 2.213441628505104
Ni 0.5844336580474928 4.427224475310197 4.123031675015403 -0.2632701650823982 0.6131870209207634 -0.9404442303780836
P 2.6330197917730533 4.838636694622322 2.6987720995648394 -0.34803995053062636 0.7724383225173342 -0.37314111647362835
P 5.912395889881384 2.566157250961598 3.616080498173156 0.7515758772460283 0.660561910660301 0.8785773176699578
P 4.6845665468844 1.1349785118494766 6.892661681316547 0.4405682968783509 -0.6159913231387779 0.22589840930215935
P 8.572296945480604 4.753353123360126 0.9231477087606925 1.227644423913518 0.3565197058668634 -0.9113437134677014
P 8.886089671089756 4.73560412450504 10.288459428346535 -0.6964722514036651 -0.6592511622686775 -0.009776619770789615
P 0.32630263979181684 0.9703952123000887 -0.05258693265555257 0.4724409772172315 0.7623696254274225 1.2716115735230873
P 5.915562723702001 6.368576460558798 1.7548254732142636 -0.037928656724973385 -0.4712194461053046 1.9345070174125716
P 2.668250818027417 0.7211258051947786 3.6091143843590254 -0.3140908472786913 -0.8564727724614346 -1.3420811402985595
