# total energy = -340897.02069405996 ev
CRYSTAL
PRIMVEC
9.01621337448781 0.00000000000000 0.00000000000000

0.00000000000000 9.01621337448781 0.00000000000000

0.00000000000000 0.00000000000000 13.19613964638379

PRIMCOORD
 96 1
Ni 6.169650537881318 2.014772052021525 11.247571078700792 0.6522716456270508 0.5559941166495392 -0.17764394517114565
Ni 4.825765905225453 0.36386281417073524 5.982522636230087 -1.152888571057866 -0.1829059649010334 0.16132798161994152
Ni 2.6060643399090027 1.572229252027913 4.713964859651205 0.6967800124520709 -1.1137862057397656 0.599007901206904
Ni 3.248911335747573 4.109337592214993 4.680472331909701 0.07602520648637874 0.7083209232121349 0.16264310088693923
Ni 5.0799870569199275 4.46669520845171 2.5049439006724366 -0.6975881101756631 -0.19334104419142834 0.8679450347670923
Ni 7.108148185770303 5.877408014478247 2.5672558527747094 0.3139692340991625 1.083453359084179 -0.133616374637286
Ni 4.999859968853931 4.4971068960905765 11.637886561227196 0.127813909022896 0.22415057337311717 -0.9231862146285842
Ni 5.560397952995139 7.82352160181849 12.3094907695544 -0.9792396059787263 0.06921538265339693 0.26720935223580433
Ni 1.7986083368890586 6.181597020573728 0.5443764217063811 0.5441302753324176 1.6821738109576514 -0.530300568538177
Ni 2.749827861818791 1.5338111669317946 0.5012933478215437 0.3884798037132277 -0.45129108261249373 -1.1516523846579199
Ni 0.4216910033726795 9.160292442139028 4.864532917778322 1.0027795980821956 0.05713556867072741 -0.12456120641355323
Ni 8.562301107730447 2.259445033775424 1.3763312796484497 0.3844007485478476 0.24177882797784167 -0.23373256063459746
Ni 6.8327569651235445 0.8177894851435443 4.775642971954779 0.8009171466833174 -0.3987328488998036 -0.6935419651307475
Ni 0.9678364061388725 7.382430412174673 2.668008430506483 -0.809274260398761 -0.024223648434055056 -0.3948880212324167
Ni 7.295604277587576 3.8439814170298576 3.884982647251542 1.3514589819690337 -0.7374116699305042 -0.09728308742389052
Ni 7.63796793101865 3.7594634330610672 12.44325981896265 0.24210021587300237 -0.20013569851575855 0.45732494751139946
Ni 8.058069375977238 8.987947523900983 6.928989715101578 -0.3570537239934625 -1.2250643218911677 -0.3335319867224385
Ni 6.803832952687884 0.797205470059189 0.0768262523575488 0.17823735578077046 -0.42394380094779244 1.0777025726433311
Ni 1.8702151033366936 6.485704880749034 9.128561682486652 0.5614808507957233 -0.17131748873248562 -0.26317863380985645
Ni -0.021566782339806443 4.868971599611887 1.4100338851610734 -0.2599189892219782 -1.0213409060241507 -0.19478446150617423
Ni 6.537061232006365 1.8287856029807528 7.062534260797346 -0.3537357153638231 1.4866876953987622 -0.8006479521823309
Ni 3.3595402735859614 4.189645004548043 0.514819471093357 -0.2347437755079312 0.6818637574618708 -0.14537480072479478
Ni 6.072004947270907 5.701573821672684 4.827148090732431 -0.5952800587333554 -0.5931974651727139 -0.19806210381618147
Ni 5.459966352458724 2.9899927368963093 9.070893981882387 -0.6281896649771826 -0.3700578495626143 -0.4799843367821282
P 0.04730536659793581 5.726133986845608 12.507815906568426 0.21559137094919648 -0.6436057424219368 -0.5470345934634063
P 3.848011664398542 6.189648499097744 12.68532981992161 0.7323563668947839 -0.5749308056530421 -0.19220384526319156
P 2.486626561624966 8.310929079455445 1.3761861186134703 -0.3646932428165913 0.14689406558279866 0.11161390222426583
P 6.41155554213592 7.744278102661066 5.700864245681822 -0.07085857468377474 0.9179067113971998 0.7972525533475366
P 4.680622902672692 0.9474687801749834 12.474640749536938 -0.18417429009049574 -0.46789346705586515 0.3814432085814205
P 3.9963644389048865 6.181308501746439 8.256124928212017 0.02719558657818542 0.32214559926236774 -0.7043190011415934
P 4.654484900163035 1.0564838158232275 3.9077467827245953 0.46747797678500136 -0.6414920385130436 -1.3545090816492673
P 0.11375035090111457 5.41575084217678 3.639732627843066 -0.16674221065697734 0.5276291923536011 -0.7462320964356116
Ni 1.5546115711366162 0.9818566179024172 2.498095185009679 -1.0605384021592188 0.2528929356131322 0.713569573205584
Ni 1.7834250336030077 6.567968811379633 4.792481652012397 1.1130040761581026 0.09555762009235157 0.3517829625128264
Ni 6.044929258572563 5.565807681006796 9.051825592262631 -0.6220107898599804 0.9716890473249781 0.43453006110407105
Ni 8.612133718931162 2.271066932787135 10.224738475974078 0.0892347631981173 0.43230862797272 0.028678855991931252
Ni 2.49202727342327 5.1647755272893 6.996026163000698 -0.40174489625325005 0.12856827069041726 -0.3472735046782471
Ni 0.6307625650818633 9.006926653008547 9.037099410993564 0.3848658611097243 -0.10605877673399153 0.9155680359616941
Ni 1.5640244978768998 1.120453849561073 11.484297170005567 -0.26347585333530105 0.20936595886477494 -0.6624485861600528
Ni 4.201510341320278 6.673395394113478 1.7107606653290937 -0.3230871372400307 0.3855996539519553 -0.29785921591117737
Ni 5.689780614607272 7.955428803169396 7.998998752575282 -0.1113429079510663 -0.26083687305055725 -0.08158804528613692
Ni 5.223741562616363 2.830144290365194 4.9353561752856026 0.2165766176806012 0.5515702765502307 0.4699459787095197
Ni 0.9048311072297723 7.4451742408965425 7.040721335833009 -0.543211105952258 -0.1988357487574124 -0.10785032141677554
Ni 5.080915726895261 4.770072755345443 6.90697843344348 -0.4415702557803041 -0.614558190236677 0.08923630586001405
Ni 8.030010920023443 7.359105468231078 9.001733314117356 -0.11407470505993259 -0.583900356141504 0.26379698412014563
Ni 4.5504468142855155 0.3427252035865203 10.298900437285885 0.4687681563513346 -0.6569374265338364 -0.21663703860489142
Ni 8.257661290967327 7.209508456282053 4.675643248037962 -0.3574748706912811 -0.6802665881780802 -0.36333210080300654
Ni 7.32610612735997 6.228571492141617 6.919976206612821 0.0074934801635677395 -0.7197811013329346 0.26266389895696696
Ni 2.184033425292924 5.2037886824667 2.6135748456318533 0.4531268502696519 -0.9060145879453042 0.8548403790643342
Ni 2.2124344973541237 5.322838763576568 11.523621384543638 -0.2341997300790031 -0.241299574348578 -0.7085073281913281
Ni 1.002386535706656 3.2541497557055274 3.883214567813065 -0.7888669003870027 0.3053534674056935 -0.6948426862200421
Ni 3.6397371359497424 2.518309535346571 2.569512610976906 0.3546191464100409 0.39504023053956483 0.6501268313699062
Ni 1.1905188435253855 3.4675094284852848 8.29977782678075 -0.1400539027325136 -0.05029900536486821 -0.06744209280305803
Ni 3.5233648702056444 2.8608354806179954 7.283199771256846 0.20788166100976455 0.2757634124534025 -0.3954922304753189
Ni 4.258673133976788 6.981416290883882 6.006222654649156 -0.8268467220648857 -0.07449797120857492 -0.37301333264651243
Ni 0.6992542298161191 7.259079597295537 11.011953981638406 -0.07050350533720115 -0.2803597735748333 0.8949267055622587
P 0.1519980295648658 5.658223867872605 8.01328945073941 0.5503544018652586 -0.7753853209608 0.3566606023201018
P 8.674616077465801 1.694579267224892 8.041383971546617 -0.8439517571762885 0.6000908498584375 0.8181342818925522
P 1.7894298316959472 3.4002755255137393 10.541234613296078 0.4533484793621547 -0.852912308803686 -1.390342546408109
P 3.921033976342561 6.072004947270907 3.8790319464387193 0.06272823226715649 -0.0525957718188449 0.10504807608129006
P 6.866234165302349 3.9760689426478195 10.309655878194395 0.2046320437242153 -0.1719813475687296 0.8856159696842941
P 6.288285873176959 7.723703103790063 10.250180426812902 -0.11242842770576121 0.29084267538402814 -0.687176685034352
P 2.3348025449778085 8.483616613800894 5.856235240661956 1.211836510346984 0.23284373027174093 -0.9815816238483419
P 6.84707471192773 3.7710132023659555 1.4498206314441413 0.33467664184984297 0.8516146730381849 -0.2297892597161333
Ni 5.11365359757914 2.7212735141305937 0.43105343931818746 0.8462256408121298 0.04690900584671276 0.13894781415252844
Ni 1.5866101123255683 1.1037828710718163 7.152241977171986 0.18998729722784702 0.6979825174006044 -1.185054100046817
Ni 6.837724898680916 0.7605599725082236 9.11750329680949 0.23101207637964088 -0.3204412149767514 0.9383143285192742
Ni 2.6804661324959937 1.5466592709594804 9.307844576899646 0.1315350666282251 0.8491561841953634 -0.1288930010196877
Ni 6.316127940010287 1.9644886301531719 2.5459974249315676 0.21461949395423038 -0.6021251066796469 0.1094426056045599
Ni 3.9903957056653576 6.8209276932047205 10.39170882943254 0.7043143731559032 0.33618999317057585 0.49022504067352984
Ni 7.834241879494924 7.424572193385482 -0.0036317307384924895 0.43821239505166465 -0.35942813776291005 0.3772229998524858
Ni 7.720042521168842 3.9386246085937993 8.199804249882655 0.055848217317871554 -0.696310271904504 -1.018242726714801
Ni 2.9416748495388587 8.37202294113376 12.412024951044678 0.9729686853683501 -0.951698206025348 0.1092006647970829
Ni -0.014700034250342987 4.741500375230539 10.15394136548552 0.7175218729851127 0.7270969182680576 0.6169655141265891
Ni 8.621871229352145 2.2780454819221725 5.896813610477396 0.30073165236296595 1.166762757936797 -0.6266122931877337
Ni 3.6273037777362838 2.635898989893292 11.502177222705429 -0.3462206379337005 -0.05650719105810913 -0.2717141820846933
Ni 1.1305700409428718 3.2505883514311864 12.646058801042319 -0.1080287559761688 0.9119229830099391 0.6722542593965648
Ni 3.281667238858157 8.43208895448986 7.96479394397891 -0.33385671705170894 -0.4712078761410788 0.28086602378729053
Ni 5.592468623890913 7.772607045015444 3.6470438752508203 -0.3244022565070284 0.6308026771199974 -0.5148994034917584
Ni 3.1057428839190666 8.335209742014433 3.4953542001826197 0.4609036660015933 -0.2351620939922724 1.3740864895605625
Ni 3.5961617768158445 4.366173445781768 9.450692953154128 -0.9040543788951397 0.12215773917838314 0.18614066978824717
Ni 7.165978178214918 5.944416512115973 11.316217822304715 -0.05734511357837221 0.7002564010364456 -0.2812421761797866
Ni 0.6044054685877345 8.936519042936828 0.26952437061811707 0.08816132762828043 -0.058208747130248144 0.3222790395164385
Ni 4.578649529652955 0.29122008480886796 1.6909664705344403 0.35982408764974805 -0.4667500974800413 -0.5774715697970249
Ni 6.004554655178896 5.549055556597365 0.2754588422469049 -0.048452953295064945 0.35035985691305466 1.0568380704894962
Ni 8.09943576283971 8.859962375358528 11.141342052978551 -0.9152574466998108 0.9271089467217583 0.23176720937811052
Ni 0.227555700703681 5.010643360023836 5.7684678134008305 -0.40322328057098944 -1.442670666387864 0.886357732946325
Ni 7.9411110563652105 8.62009503532165 2.4527003540211934 -0.43775988089527834 0.4457578114990904 -0.25182592780119856
P 8.58833091567987 1.5287801198809534 3.4557522862732832 -1.345726707470947 0.08235269136630333 0.6315297850940091
P 1.7622910295041336 3.124181040225465 1.6905571344482249 -0.5509380422828705 0.6009693958086488 -0.3811755567423306
P 4.671300138065936 1.2227518062615093 8.015599404600389 0.1837917099400964 -1.1356351832940572 1.2592592226053216
P 8.668593246946157 1.650048189475601 12.369190724648377 -1.1465906538642963 -0.7378274173116841 0.37153880498351494
P 6.212216081119707 7.643837485911298 1.381398391552702 0.1883163372833273 0.20819636403670594 0.527701440352433
P 1.7576927606942252 3.0956627573906785 6.012689082865757 -0.12028571896665091 1.0133763997614356 0.46382032542775603
P 6.871175050219662 3.931123119084301 6.048212963475638 0.5634539153616941 -0.08492328030695696 -0.056846062454766616
P 2.4355136481281585 8.508330054600814 10.242118128832862 -0.37213581513756555 -0.22172190932696653 -0.7039312787848716
