# total energy = -381173.54013949604 ev
CRYSTAL
PRIMVEC
9.21208137753662 0.00000000000000 0.00000000000000

0.00000000000000 9.21208137753662 0.00000000000000

0.00000000000000 0.00000000000000 13.48281226748024

PRIMCOORD
 96 1
Ni 6.799971594706028 8.845624818356805 13.522316664142467 0.5259032108014298 -0.06940281607385466 0.607648093380405
Ni 2.3917050620852742 -0.10742576623772265 2.266703565711809 -0.07327155500064156 0.8929055613671719 0.17874180622101477
Ni 4.703734831993789 0.3860912291059126 3.3341645544194765 -0.3698822432166985 -0.7645697184025348 -0.6144949410989095
Ni 4.650793000089542 2.6908858302694134 11.029223433980258 0.643904247498962 1.3545599894918607 -1.2208991347698845
Ni 4.106101050057465 3.147482645709474 13.41938915726073 -0.8334012353539518 -0.2272045297080926 -0.7722467753318184
Ni 3.42580726156523 6.584197011672587 10.62988983783722 0.9742511516251995 -0.8321809897936054 -1.379072115700612
Ni 0.2033078732516394 0.6628157064195133 7.0116965467484995 1.46911574795327 0.6501597414903707 -1.9399420723852139
Ni 3.1610888899625755 5.0441396645195855 8.346844960899563 -0.04838404773034248 -0.608601715542926 0.2931468980371726
Ni 3.238424313459384 6.040813177201742 6.003653483181322 -0.283668269122776 0.123944912985793 -0.07821321527663305
Ni 8.583209467108432 6.953804142290687 10.687677224566878 -1.0227483278946388 -0.5806918765065354 -0.9339308547395981
Ni 8.02852240873877 1.7979956268326471 1.2357095225019932 -1.0087813241915853 -0.660547769592914 -0.7937049452055943
Ni 4.232067051355304 8.999779788791063 10.582793992800283 -1.2992550462719687 0.3803913702781384 0.16607115273188175
Ni -0.06652688837008951 8.755853084946871 8.88111528322444 0.05800177332576462 -1.07404929216146 1.052897340674193
Ni 5.452022993425862 1.7252846682072382 1.1712737766135919 1.0839899483139395 -0.5481195989974689 0.9976381630905721
Ni 5.090844917304437 0.9711376229938705 12.51376233005664 -0.7883652781602358 -0.9772441728152524 -0.5855941989041592
Ni 6.54816856125019 2.8735153443640207 12.668504110077167 0.8636353516481449 -0.0989843863857134 -0.4157118999563035
Ni 9.2979380159379 5.616873190385408 2.632289622791331 -0.11889449504607912 -0.9413392313885273 0.32331725097296576
Ni 0.8250984962881047 6.552396906620653 0.4271218397378107 -1.327165656639308 0.8880050387417611 -0.04099649701701972
Ni 8.93696260560765 4.028157629187126 11.721646770074427 0.16958199409861763 -0.1846388884317401 -0.3218038996522329
Ni 6.888002244728125 5.2531986401999395 10.345483405829874 0.9421254747352483 -0.5235313681351436 -0.7924160511908417
Ni 9.115612500530059 3.9336416738473696 9.307603331760752 0.515022559333184 1.3090193247475843 0.15030257704371533
Ni 5.548934089934072 5.906289152267389 5.7481674595749155 0.5248570289251026 0.7988026714434758 -0.5500219582265043
Ni 2.511066001007031 4.126183387546808 10.816276038733731 0.35488422714596946 0.7123333868056376 0.7947256731606248
Ni 7.82596716253891 3.38340405080218 2.985957088933371 0.4165765619494439 -0.3473359824850663 0.9001393601114498
P 4.214425915441499 4.268298167568877 4.536345785395683 0.21593281344901522 -0.008994233078810315 0.477754419010345
Ni 6.898642198764911 1.267167859333351 3.93692762328886 1.5417028752923772 -1.7033812982732017 0.07872589324699344
P 5.502551259998822 7.777041798132531 7.033753954493676 1.3944393421853016 -0.5818864110352688 -0.9264165486404239
Ni 2.655050833556777 1.1981509453562114 7.019435616347031 -1.211726981352313 0.47422455148021553 -0.11130999783060183
P 1.639557038539424 3.514040577378504 12.768762876972362 0.043322574047035066 0.3194410558470111 0.7902408979163938
P 0.5538054621780442 2.1681278460915236 4.778618920625499 0.8743874479583263 0.16229497351890115 0.07131520260521912
P 7.551861679972199 2.4757284566909195 10.741271271835458 1.272402701965815 -0.30380617752323164 -0.2791878647539192
Ni 6.155678620391939 1.256343663668223 9.566028009339224 -1.007399099132078 0.44314428513564325 0.885821657937197
Ni 9.10526733309862 1.43062703199891 12.464347804127009 -1.033232258145098 0.7821869172636658 0.0005108781981475073
Ni 0.10442539132016333 0.9533122454517234 2.969777910340465 0.4598641689934855 0.206920839758392 1.109436156301186
Ni 7.535261509258531 5.58916324948268 12.849538091670327 0.4075756440024142 0.9438046622098841 -0.05467579427632519
Ni 7.913527996408733 2.275669684555102 5.927448382074396 -0.5848372661334766 -0.8389496759760068 -0.29651298629592804
Ni 0.7934292027922945 8.853012907653344 10.996891791830555 1.5154328858522546 -0.41339327912545576 1.2702275486913674
Ni 2.5929153443982336 1.6209578461582381 11.45890715356017 0.43424081199842635 -0.5430905212139937 1.6590004581649813
Ni 2.8484032104209236 6.741272211916075 1.8271638402237067 0.05828382334255769 1.3311940610724107 -0.6354602304966669
Ni 6.431350156799561 5.242917957338422 2.8645713345161288 0.45518244724709994 -3.6182903389491874 -0.8116301622254474
Ni 4.0208985090304274 2.433048883485355 8.589535403417576 0.3481646490339488 0.12062510458394064 0.946087801817106
Ni 7.228803196754859 9.263024227366977 7.621200095590797 -1.2153656065461649 -1.8651875050811426 -1.2508619996805619
Ni 3.258663256332819 2.2448921205404697 2.001860831010023 0.042960562721926006 -0.059439791323871824 0.3897062199211611
Ni 1.8805635125743856 4.776187852339518 1.3975473688381372 0.9276190535889574 -1.5028504212015539 -1.9904670777179587
Ni 1.1887730464735726 6.104726598073792 9.430580012638734 1.1846409237687983 0.3466600394639643 -1.2093741648494205
Ni 3.6900834532598625 8.601992901117962 6.031482259934331 0.9679712321537587 -0.5940685549237575 -1.1547209962809146
Ni 5.4059717984216284 4.912554293557298 12.142485970285755 -0.8283186786247217 0.4989063704976118 -0.9547377641826202
Ni 5.355167169406155 2.6857270646758207 3.359080471028389 -1.5924898760372574 2.587480574202653 -1.282573728961546
Ni 4.93267347937231 1.926854221695465 5.480722311872789 1.1946340304257683 -0.5369651250425462 2.287018887671622
Ni 8.205772067285773 1.9718644514995634 8.507277043611454 -0.2701712630776057 0.3304402351709922 0.45365521196929615
Ni 7.431874319514078 6.864419316300271 1.599398812017728 2.0709852869786847 1.2987050873057697 -0.4432124193694173
Ni 3.302954943786381 5.326591292850217 13.040873022704123 -1.008350921522386 1.0371161665805364 -0.23002785808950063
Ni 1.5849201836544247 -0.3190678095474398 4.961526639578905 -0.5400859300597151 2.830054901498597 -0.31511003257182507
Ni 5.895686046556272 7.893436446837971 9.560486942366822 1.5421723587296279 -0.4468795838083594 0.03990120707031193
Ni 5.502928955336924 6.202420721502458 0.7283965140280635 -0.47842599115607276 1.4917473693098566 -1.8474296668770893
Ni 7.518854792254621 9.217792907608867 10.958385291506952 0.4351021315574571 -0.020342825322410128 0.6098170760072659
P 8.533068107954993 7.735099191440336 12.624536687889488 0.04399028953802101 0.3803656592465256 1.1162009858288453
Ni 4.2570225799143095 8.581597352860435 0.8012603932049968 1.8336452114984874 -1.2846300972699425 0.7423828978928505
P 8.504658048864563 6.012780813449415 8.502355949718423 -1.1081148663866012 -0.16205843202806283 -0.6734868462520853
Ni 5.73554322320088 5.893806781947178 8.230771813835581 1.0428386708866104 -0.2385299820232408 -0.33073514070359167
P 2.0976922715761455 3.159753138157092 9.026203723127958 -2.2584480180124653 -0.5145425343729719 -1.6639955973867278
P 2.167427727903821 9.187678613456269 8.84338996740501 0.25765718977099494 -0.7211252740656549 0.2527960050239517
P 6.182071233652017 1.913478279477792 7.455604641244605 -0.8379772847604083 1.4382164872712522 -0.4321057679332945
Ni 4.614875094644152 0.20712812341532333 8.076474056139357 0.3965258139461558 1.6580085265653572 0.04869206588906453
Ni 0.39094691722088193 7.852525593264495 2.7237840154262694 -0.2829362760527579 0.40338628851141495 -0.2599876376763845
Ni 5.983274516670347 8.173179723231966 4.798762057852197 0.3352975632632935 0.7631990633072534 1.3502271664444616
Ni 2.573100157269986 7.915959985902855 12.647753896685082 0.4183678495219117 0.9438203459391681 0.317261274586873
Ni 2.992157740935241 1.7778764410176346 4.452590462359276 -2.170974974700461 -0.1325316262135395 -0.7732230232021587
Ni 0.5794942724178536 3.191350577417848 6.993561643270737 1.2036604022940949 -0.5129901022841875 0.24290625671406557
Ni 7.575343275504465 4.16761932976106 7.457518911763084 -0.5517502537715208 1.0025160600081637 -0.508086494334983
Ni 1.462804832388946 6.231715140408932 11.66527528025858 -2.0691567184103783 -0.900214179213443 0.5627098381068181
Ni 0.3964824569444355 9.12398628253823 0.6463702986736524 0.0037856922946773513 -1.8634453255790553 -0.4260729314756533
Ni 8.418460603044476 8.66430341982343 5.243411724902382 -0.30413502161756006 1.2679850325140938 -0.870351844436372
Ni 0.8065905035129484 6.843286801529374 4.715923336916794 0.23546368439309126 -1.8642032867910023 1.0045063509653152
Ni 8.111569322714198 6.6741161383851955 6.2065698429727325 -0.29542001034206544 -1.179792851647878 3.558956219965245
Ni 0.9820078790660842 3.4475109253839893 2.813903044305629 -0.6587747368528913 -2.1651655671075356 2.9239456754114865
Ni 1.5653813589686913 7.773025330634662 7.12361688750964 0.19269132642257136 0.6733433786956855 0.306052293244931
Ni 6.49391861378471 3.9280223041829196 5.079582226563853 -0.6850766079722137 -0.12804196587330208 -0.26340206267457217
Ni 2.8473622452207876 3.5678667690987957 6.234628000553028 0.1623055150418624 0.31273561880237755 -0.28507491966231546
Ni 1.1373327838403173 5.554894306610956 6.894220399684688 -1.2550279581327934 -1.103271679361687 0.26590246049892274
Ni 4.192482737505895 4.844053256139517 1.744770062820752 -0.15476318391823024 -2.345604301414999 2.1161618835153235
Ni 8.691267182131371 4.599536979084629 5.001961228543114 1.3166776126237905 -0.5010966932807113 0.10994371361069454
Ni 8.874265179482663 4.140941141977051 0.6966544450890577 0.0880847087540741 -0.5315416400341297 0.1168232143393472
Ni 2.3507112997790447 5.18954315760757 3.73917463513175 0.7945868335899154 -0.5179554167092628 0.42293232896414257
Ni 3.829139822251444 7.332494385186076 8.302796472395412 -2.4057907410969084 -0.2994923806392261 0.5965224157808888
Ni 5.019009106413655 3.916765140691187 7.1371135079938774 1.0778049025491503 -0.25119960707110933 -0.790532975235516
Ni 1.1649874522545423 2.024382527658623 1.0091227195092654 0.8336413763892159 0.6035860074958894 -1.463751398317563
Ni 7.755273649743852 6.591935160062976 4.057746834698948 -0.7283847838415455 1.2050074032402924 -0.9335981539905276
P 6.833733873099811 8.603743196587216 2.697533268220015 -0.4619596180699334 0.44957898501739346 0.14812665243831907
Ni 0.6368680366918824 1.91091732084383 10.356323262033412 -0.2328442444923732 0.5262222847037453 -1.6925196729683498
P 2.923454037726284 0.7400553242695834 0.098192497033333 -0.9699720646338715 1.4875284461325027 -0.009792817720705716
Ni 5.104331404499115 6.8004321987768845 3.1990942530570883 -1.7379932319201168 1.9453794413507013 -0.6441870688467035
P 6.704405462084719 3.6694023304784054 1.1371485422119747 -0.6083420341236362 0.6281634397249375 0.9815212029240515
P 4.688967865482129 7.181775521120408 12.199505069425223 0.5223196072152294 0.6535325146173454 1.4239985438996572
P 4.848005239067466 4.67936887664548 9.77859863045579 -0.6016440532781703 -0.6383684052823974 0.8298209742018612
Ni 3.0007802491416746 7.446604437700069 3.9929481328027125 0.6354964830512411 0.6741262796082971 0.28142343895265726
