# total energy = -340868.7706795639 ev
CRYSTAL
PRIMVEC
9.26684067064672 0.00000000000000 0.00000000000000
0.00000000000000 9.26684067064672 0.00000000000000
0.00000000000000 0.00000000000000 13.56295802810030
PRIMCOORD
 96 1
Ni 6.536838678739256 7.1604043877365005 11.513716858673238 -2.7896407593476087 0.2730699247816394 -2.050181719969772
Ni 7.56443864115127 4.636422793703922 12.561373971041464 -1.2202347617130083 -0.6681998868215331 -1.8256231125249591
Ni 1.1237249007301642 3.9870860007904745 1.8765843508723363 -0.13317311645228033 -0.07022762596799519 -0.4457614110435162
Ni 7.524674627816345 6.694328636004945 2.911424495903453 1.8010626495767756 0.31343187353845375 0.07635996411797817
Ni 7.986116959210574 3.1654045050098745 5.923920569677188 1.9990391356576864 -0.3528440567874891 0.5186452436874358
Ni 2.401242289296831 3.7735409242838243 4.267150313027902 0.9845869863335689 1.5488047764444812 0.4216467773834996
Ni 4.527287211078561 2.0388346841925924 4.3802113293630445 0.4022452329284362 -0.8539757170711938 -1.656961573358082
Ni 1.5473585221718194 7.550603248024016 -0.17037642590785734 0.0342370668059991 0.46067766603371635 0.10215635635579182
Ni 8.50613499050927 2.4205543852628026 8.351567794792368 -0.5398352475014897 0.032540652940182664 0.23278768022282487
Ni 3.820866679609266 6.580680101971029 0.8663041136812457 1.123006181676137 0.14713677772122402 -1.3484379357545229
Ni 3.2950568728889116 2.288548239852404 8.739264608097727 -0.19905763496023138 -2.3220452831481366 -0.27767554187445076
Ni 1.02342988410842 5.953407656703925 11.379090977404115 0.36752505583843154 -0.9187086384732048 0.6664530793337554
Ni 8.474776001666253 2.94535410634962 0.5661001766055999 0.7365050989558347 -0.30359149040926425 0.5954358675849294
Ni 6.791769465698897 3.1905454437602017 3.84064953108151 0.8102857323824109 -0.7493289901933805 -0.7389504751725339
Ni 6.634891119917736 8.852992836961445 13.29914515119717 0.4452399913224073 -0.24216655033456355 0.612040823131462
Ni 6.425367852263884 4.268538485760965 1.2053741072304436 0.9903681117917202 -0.06913027913875835 -2.445825902641923
Ni 9.087777512294394 7.975895633946434 1.2738903471266083 -0.408428993141645 1.0407133970134916 0.9487136694757274
Ni 0.9987430205511506 2.186316453529658 6.772174731092348 1.156973282650201 -2.409470761051657 0.0646825277800499
Ni 9.391294344911229 1.9902023043320258 10.798582716917569 0.4374125248581886 -0.2401988850852315 1.5167148378884716
Ni 5.363063571525304 5.44184098410051 6.454218307336274 0.6375181414669601 -1.369450533450448 0.36271735003714306
Ni 4.206015111729097 6.777387328971839 7.9679937989031595 -4.215119487337218 -1.4808299510664045 0.45506417650168074
Ni 2.1578857863398295 6.770650335801368 9.551482806181376 0.14166829840748504 0.3590517282600978 -1.49908838305596
Ni 0.339695505294737 2.766439213444139 3.826327628818837 -1.295992316360297 0.15907183859591315 0.2865047101303066
Ni 8.998009626679053 0.3795262398825206 12.731399183687751 0.4791258454365748 0.1547924944942689 0.6049268377945001
P 1.3336466425330258 5.441099636846538 13.725985099512256 0.2426828278493498 -0.6444241245581741 -1.4144576942887574
P 4.36190190555807 5.4065157874487415 4.617929886453589 -0.1963039834744942 -0.4066451617683448 -1.6816840158054263
P 5.36399025559277 3.070901263809787 11.782982521472494 1.0056548627474615 2.29435964430741 0.7130098440473721
P 6.584451706125613 6.561488474933828 0.09613327847475858 -0.1839819715740315 -0.25922402003748257 0.5732883849536127
P 8.39395061730195 4.584964027437587 2.9740043976634367 0.14891623821914998 0.41856145358995656 -0.3407357035597293
P 9.245202601675361 4.113439373389337 11.232312561274254 -0.8377669685218152 -0.15561061952019006 -0.23512378455516925
P 5.1586277994018355 3.1700193916658503 2.3820895829904627 -0.3459319030486881 -3.0038244513160013 0.2836764966528921
P 8.76094530854014 1.28870246526097 5.223203778643139 -0.2396458407952389 -2.4451823555206533 -0.581948631731772
Ni 2.119521065946776 9.04078536323324 8.384457665714837 0.3277012389732743 0.8249099100534889 -0.7738285179966414
Ni 5.507681887093902 1.3595659959000237 10.525669625628769 -1.5846716655444193 -0.6369494134476836 1.2327706893964898
Ni 7.51125624251945 4.734113828096089 7.5637908889881125 -0.7404270597180602 0.5432710126559159 -0.837658467968409
Ni 5.923772300226393 4.914817221251777 10.13174642207411 -1.7860468928942337 2.1596582641360613 0.4879609272297015
Ni 3.092252064724182 0.2063938555580221 10.485102177207349 0.046876095726248304 0.580503157534497 1.788209190652875
Ni 5.6470366371592995 7.6943134132064985 1.9762584891688788 -0.1342213552111366 -0.9286783480914071 -1.4898930897099374
Ni 1.8441012942554833 3.9567092970589695 9.967445336912554 -1.7765327827562114 0.6079802799088433 -0.7153626605502648
Ni 4.629259525862417 1.6485060881356315 13.265237781168622 -0.8767292087176255 1.1582161539183666 -1.5710594740776234
Ni 3.41566480426949 8.352231300584672 5.790230639316205 0.6152909546376435 -0.34889895609681204 0.06570197018349976
Ni 1.4408083880946863 1.524376757298686 0.8395794718596206 -0.19945152796454035 -0.2811902398959286 1.173803466833662
Ni 3.70881204217139 3.254838784360928 6.184884996600092 0.7972965192115946 -1.5089285090748337 -0.9055415049636276
Ni 4.634893764992604 9.273883473563405 8.684199187440818 0.824234224142703 0.8367539538762685 -1.9711107846785345
Ni 1.4668574772311291 3.3873082718050593 12.822312450810479 -1.1338384964049506 -0.11960540507017467 -0.7350022891580632
Ni 7.892725738891444 0.20013039794602575 7.098390689941739 0.85234486633599 -0.24716143244599367 0.6239545438499124
Ni 0.12808905185722394 7.725190526334435 8.358253820339128 -0.1331690026872223 -0.5585528785156509 -0.7970705192437175
Ni 7.743789075568459 0.30248079982940745 10.46516456949584 0.058698028061840844 -0.2554684096497923 0.602967142964968
Ni 7.0707847715719545 1.9318304749224013 12.582681217804689 -0.07924217076177965 0.14510354934127914 -0.38852916889392447
Ni 5.72088409049559 3.271852703839587 8.551539729762856 -0.35211386348968393 -0.7979961163817805 -1.4226913950524593
Ni 3.3026464154014508 4.295801531025787 7.945289112566198 -0.3241274055790869 3.7408707674872863 2.2843534250243174
Ni 6.291647341328676 0.7044735682435511 5.591546795199491 -0.7957998800614101 0.13304944639022248 -0.6376747216494825
Ni 2.69321263843305 5.833578139940018 5.748808788184584 0.22116218016875458 -0.6570019612231847 1.1078960655075758
Ni 8.460736738044158 5.632395028893352 0.8226980682026094 1.057504243318585 -0.03479036820630782 1.572998085861233
Ni 7.338151658716975 3.2370464502655985 10.382322720600731 0.5226512795230354 -1.0602923475866837 0.4640185574814912
Ni 3.7826038944636333 8.774252491748939 -0.025763670443663792 -1.1442794892326162 0.08147208853356291 0.3187805394448768
P 2.0261020451056226 0.8793499719830188 12.482072055284073 0.11322032747943726 -0.31131431297481865 -1.037157304231117
P 7.979222429748634 6.935776169782968 6.832909604874009 0.46345034368284693 0.009852210203731419 -0.29966798698514197
P 1.2426648007893055 7.829535152331002 3.34364847865051 -0.2080842639388739 -0.005409086830713265 0.07020217204669844
P 3.581531985505063 5.3098070381680875 10.251100549911408 0.8561033049371579 -0.25035679945483985 0.05667585542548949
P 2.404856357159945 2.3250873926325517 2.759085048684736 -0.6320522332563825 -1.2409249430725082 -0.9820968729218635
P 5.365074475951704 8.000026487063224 6.915413214084491 1.234454761967132 2.4557647590221903 -2.5091110358538145
P 4.992269475610507 8.680675934616316 11.872077634454856 -0.17199857395991025 0.7105809228909052 -1.530343741525816
P 3.1894612234012674 1.0119575353532024 6.680584057916303 -0.052263071069774514 1.7525204790020141 0.20473694473319579
Ni 6.414905589142204 6.9154447213427845 8.317754946538702 2.2738496972795166 -0.5700552227282956 2.205747859405272
Ni 4.912194705340851 5.649223611558517 12.373947484976318 0.7346413062742188 -1.2947702710277378 0.2345913090904669
Ni 0.7122317672563686 4.435721558372338 7.858676586200576 -0.3339004258054508 1.0385318159811403 2.738947346757799
Ni 5.563607270565419 7.320442726187718 4.749259552494737 0.23764038032943585 -0.5038480307736033 0.48131411133714525
Ni 7.820342446381749 7.894755176999193 4.879558745852866 1.294476908157035 1.7514809819939061 0.8602947173106861
Ni 0.18273653799970643 0.39035824994711976 3.164170161832011 0.8019296471082318 0.26692550244679836 -0.09789552419690882
Ni 5.870386031099731 5.213821102460056 3.083348484203978 -1.3866470998343925 1.5065209280746055 1.8676220826645642
Ni 8.478204732715874 7.033967613571567 12.217051532197875 2.7569859494270648 0.4819527733624087 2.4534965318133035
Ni 7.763666448815585 5.6152421068045735 5.124533239191661 -1.09881055826654 -1.7643059016727163 0.011375331716477184
Ni 5.499712404113703 0.8523417648367495 1.5334276805856173 0.3237494534143779 0.575200514374661 1.589022229203631
Ni 0.9986132847817054 8.42404004897254 11.210422430232596 0.33525462584050003 0.17587991129218744 -1.5259304429494687
Ni 3.173392521671423 7.012728014745267 11.831253494546749 -0.47297756644699185 0.6413717108850955 -0.02048989242323568
Ni 3.7245193371149226 4.612736748939515 2.0592504608829154 -1.0205456638163648 -0.25948678678056597 1.1640448447850016
Ni 8.32873059263376 5.444861974160446 9.486488892425644 1.1146855776255835 -0.06906548733909396 1.8469095327075613
Ni 4.6080384607174665 7.483622523627641 10.094760607573445 0.3289171136582464 -1.0107513034337625 0.6308229888349716
Ni 3.420993237657415 7.2371801627259815 3.53670364374144 0.974008182376458 -1.9350289513543124 1.7091595955178758
Ni 3.576583492584799 3.9815166295450095 13.386259940327358 0.9018550572509759 0.018587790304516374 0.12165534562066789
Ni 2.254650136664532 0.9698768118496138 4.5260945686837335 -0.01604034129231431 0.3484788378402579 0.37804523864346506
Ni 1.0056653505351145 8.222903272129248 5.540671839895659 -1.084586701357674 0.32677384206299853 -0.09817783132401801
Ni 7.197397615709706 0.3446810655776991 3.3116945586361797 -0.42339435620222565 0.38961648842083224 -0.9669489615368316
Ni 3.370794761722832 2.906915251231169 11.077206962114154 1.2622604713254906 -1.3143515355937752 1.4809443651570817
Ni 2.9590226963447295 -0.39500835059765943 2.2239592870341567 -0.3666629649484524 2.192011740766102 -0.8759805034770591
Ni 0.7685500647724905 5.878096042541039 4.545625362089627 -0.5327071210971407 -0.18809933617651475 -1.5116749614717193
Ni 1.9474173009371636 6.2981711971636285 1.9841797845775704 -1.8322946110078635 0.4139121277434033 1.0669111384547818
P 6.680326439745548 1.2605034690880081 8.83954943119473 0.5951874990195491 0.04265897232110718 -1.8727989988798133
P 8.178125897989336 7.497532051480292 10.066861857038342 0.36995474832584674 0.24904707950448077 0.8977428348548151
P 2.04911161050078 7.195025304496995 7.208156417732975 -0.4919631064105592 -0.1750486736401437 1.5764626473710657
P 5.113340749024818 8.974573786612863 3.5244565871058215 -1.4155696964060136 2.0527245409962838 0.562729892711476
P 8.064449563433396 0.8302264495666957 1.069906796828063 -0.37391810384896895 -0.1006337490636783 1.238073846776958
P 0.9734074781466556 4.066400890124809 5.981156284420099 0.5950139495561624 1.8082612242077438 -4.17412427587178
P 5.936199133571099 3.1095995904671283 5.853271103057718 -1.9446417918537282 0.01900636589917372 0.9511641878987489
P 1.2184412792657686 1.662582419120426 9.09736776570859 0.6893695789206127 0.15238285661151174 -0.8666558836420236
