# total energy = -340860.91697158606 ev
CRYSTAL
PRIMVEC
9.36809765760741 0.00000000000000 0.00000000000000

0.00000000000000 9.36809765760741 0.00000000000000

0.00000000000000 0.00000000000000 13.71115786373545

PRIMCOORD
 96 1
Ni 5.192108878771847 6.595374965722629 10.867655627638685 -1.4389245690818704 0.16711167818125414 -1.7472877698481648
Ni 0.41308814060371785 7.80791595210575 10.616727384171668 -0.16841651303560673 0.3667354700576007 -0.389244192683078
Ni 1.2447485061901655 1.6608044601373597 0.2611909944701055 -0.6341993615063723 -1.5106997420426433 -1.7079838300422199
Ni 7.264407029288621 2.3267544195682386 5.111218165776534 -1.6522937355687672 0.4625594564374614 1.1702553444710877
Ni 6.832565830758858 6.650253281903451 3.982227495318691 1.116955861716999 -3.047902158361506 -0.12122237184830735
Ni 3.1110234526358163 0.7679882161179957 11.402541216545872 -0.10335346198768652 -0.9454450260267846 1.0354866013969133
Ni 5.874808996845831 8.564689618496866 3.128200796532907 -0.29255862963387036 1.006859167468208 -0.8143743006294878
Ni 2.446619229321331 5.772387584963802 11.746664232494698 -0.7452676756398132 -1.281198188770258 -0.1180812551161644
Ni 6.491426553919556 2.810270044873934 9.85653998298774 0.5391438778614198 -0.4186460428839629 1.3095726261478928
Ni 9.13754879133013 1.51665754121037 6.725117497664362 0.08516702088664688 1.8546017591454964 0.2912975035332596
Ni 6.588873505936099 5.7930536084351045 12.368849250016744 0.4813665618416355 -0.8110010132818807 1.0712539888045098
Ni 3.150060315648019 4.119827050780543 2.2736391793698734 -0.07524899044198653 0.9963536399511937 1.6370247252248389
Ni 2.0125390554472165 7.860405403379417 12.509991820019325 0.04875942879189022 1.1429525428910767 1.2505226140632721
Ni 5.319046602269651 4.15220319634574 3.609667618877054 0.5562548265100936 1.1972097615727446 -0.19539458428634737
Ni 2.14105061935444 3.0215206474477703 11.659927826550113 -0.2443350187407921 0.5697662307329672 0.38442620246914433
Ni 4.014042491833148 6.4658703834618425 8.076406568284305 1.508795325931079 -1.3946735696832948 -1.0829959598317864
Ni 5.171733266328473 0.06963962768750016 0.9583798124084218 -1.0520005398915366 0.0535239400600691 0.7577406112958435
Ni -0.16173083826318024 6.963990873043041 6.762850321480189 0.5092046670998263 0.17928250921583316 1.4463380879371222
Ni 8.832139439023715 5.862808463724009 13.590733040211257 -1.7132864732020558 2.4919378665086374 -1.138258479849517
Ni 3.438438466381075 8.609019456695508 4.10366708229097 -0.7930853093437245 -0.106055691410198 0.39973789312555025
Ni 3.074253669260991 0.7930947178873031 6.04668923213023 -1.455523611091132 -0.2973069429521331 1.6299379935813867
Ni 0.9818984216217973 -0.004071375249604849 7.9245553258293 0.5350349978993688 -0.7629833477520215 0.5193836645153571
Ni 4.3521090326350125 4.413338919039561 12.02777086581233 0.9907087829605907 -1.0586851510005637 -0.16254668451839102
Ni 0.8180485196645062 9.39067479051173 5.560477468313637 0.07160522304181217 -2.6304233963127666 -1.8946137807620598
P 8.295291233653593 1.4896961561013897 9.07398905903378 0.6023410793451949 -1.3088177502597393 1.0269767641536893
P 7.63644229226045 7.593845552131703 0.8461893482707832 -1.061493052763004 -2.011111493441188 1.3735545283164925
P 4.549925783142734 2.1886499236416976 11.779571549198073 1.3129703389755325 2.003920632119704 -0.06598479153124119
P 8.089642753489475 6.651939539484971 11.2229669626409 0.3280902468815769 -0.34996544968811344 -0.38791441812806093
P 0.38661858062268123 4.558085396217759 12.388277747785162 2.0269289200894187 -1.3922389920998732 -4.841788859015132
P 4.8952619677404865 2.084795192815376 6.844157914822045 -0.06193710382442881 0.8414451887043508 -0.43235207961614563
P 3.061456847836784 5.532620493066917 9.688510035847813 0.6916210939589509 -1.9737664771338264 1.0017380441915587
P 7.625631507543368 4.61405977982657 7.91539613673234 3.2075134144006565 -0.8322743208383603 2.2488691160747782
Ni -0.0583557540378245 6.411975717536907 1.9338770128888134 0.2094011829780845 1.0899636493988711 0.6003507883880436
Ni 7.52740700341979 0.2429756653506125 1.4058601131970208 0.21935649441858351 1.8605448641028086 -0.3114755211430313
Ni 0.9554710180802988 2.3054513654550277 9.220218506073948 0.7683554106972122 -0.8215595055240175 -0.030931142361217693
Ni 5.448466871651361 7.581414086516826 13.039461711660527 -0.23406243317019046 -1.959480656638774 2.5250729584997096
Ni 1.9074477357277795 6.920054494946753 8.595840416886157 -3.109449740057 0.6950257487651256 -1.5324864989004316
Ni 5.424803056924021 8.208786219721583 7.802580820479772 2.047337565652758 -0.3766712411140739 -1.2255232638054572
Ni 1.460383378475956 1.9922196515898924 4.497177772373233 0.14819118712766735 1.0321459670594546 -0.2280527366410008
Ni 2.0319029133416784 6.689580555943581 3.021939401413848 0.41671025931383077 0.17585394315025843 1.9475887902971944
Ni 7.6434777336144615 4.8419481238714095 1.9980035150945086 -0.8723747884036718 -0.4312416201607864 0.7459611021624121
Ni 5.995685561147836 5.072300277604805 6.878448899552033 -1.6115373795870118 0.6192162578339787 -1.447947855626403
Ni 0.7338649203363905 8.667438913797524 0.6432904047743114 -0.5299141317330357 -0.6127473622801833 0.4470001685466237
Ni 8.343789875317661 8.1734684914864 3.0617285226693625 0.8434092544092572 0.5151711690959063 1.3179752483892915
Ni 2.9748675210256987 7.717176558024589 10.428021108652995 1.2475807578261287 0.7360327873051066 0.2585082249173806
Ni 7.2987504753655905 6.511305657186149 9.043454681471509 0.07992299887888817 -0.9289285164290001 -0.07278767338568755
Ni 9.129314233473703 4.070119924516384 10.060246456503808 -1.2598444056848301 0.6531530197907396 1.8870732494106404
Ni 3.3666038934082954 3.875872419222881 7.551255369671329 1.6466321664076158 0.9283677588295238 -0.29337289800504956
Ni 5.554804148361587 6.261139976869886 1.6069200991198676 1.4283588777508818 -0.16940561642175342 0.5473973761194637
Ni 5.279147874271338 7.719349956685215 5.230285750417474 1.1386821976504968 0.012832632988294028 2.5821177672288433
Ni 8.162086252811136 8.598461610615654 8.507293157660973 0.26636217374416066 0.9723338799978287 -0.11584748068963921
Ni 9.146729527051741 3.659928399713812 0.3427215485366288 -1.5774607496182769 -2.8605880370904475 2.745069143384821
Ni 9.178684108221558 3.8658860271012085 5.781830627420318 -0.11152699893741437 -0.19704651806747353 0.552934503887609
Ni 5.074005271381676 0.8394536860423757 4.952676227961963 2.8680948869904537 -1.8505491863426777 1.1978967603374402
Ni 3.992271032836181 5.5146056412376705 5.630034656741596 0.39902466910860956 0.31609682196512656 -0.532740031217605
Ni 2.058498942641329 4.395061760475413 0.20871840577225304 -1.8157063676318794 -0.17268634405555422 -0.9781335173987413
P 0.54005677882385 7.044912500760683 4.827177444267056 0.37330618129658294 0.47415950257023504 -1.971515733426437
P 5.063906462087902 3.891873130051977 0.9990336090793497 0.19838323460102605 0.43044252129825866 0.3233491326521657
P 3.2051915704660696 0.00879383328763017 13.668859227582644 -0.6259345503944187 0.460621101764168 0.3753082993282762
P 4.5387590107139975 6.428369888468358 3.686080381183662 -0.05764696108950716 0.24728664516994833 -1.4334224083167184
P 4.720462633220522 1.3142410547441665 3.0143980827853807 -0.3407920107189615 -0.08202204749976197 -1.8361216980634378
P 3.529655633443667 7.888528432600112 6.4358119052614695 -0.7785732317704784 0.8291602006894108 0.5130690351512389
P 1.6464244302060587 2.8795002866930317 7.155003574209328 -2.2876053563027114 -0.8435416662220633 -0.6845119937179953
P 7.927387301756488 0.5055746849012878 4.473320038024019 1.358101684096532 -1.373611092586041 -1.0139677534885312
Ni 0.3262121500037741 0.8674820974765515 2.4678304760773258 -0.9825951527145208 -0.12602364989169265 0.8978940157206987
Ni 5.379705034716019 0.06403656846801406 12.163922113373609 -0.17582103302979396 2.7294772024838347 -1.769246019286811
Ni 7.9335421419290375 8.706653770665554 12.839594284571723 0.38593029781849664 0.34921468756501794 -1.388103629775261
Ni 1.6919065444187407 5.436147823208585 5.969317176621691 -0.9556533340183543 0.9300670009088176 0.52351234197175
Ni 6.928260948510154 8.363434776142377 10.64069472526368 0.7931591000044533 0.4276623874499602 -0.1769633741643533
Ni 8.588447114200957 2.835948000601423 3.220544945745815 1.8731669237421935 0.10206045420787585 -0.010811231682891057
Ni 3.40826382376953 9.311907825259365 8.477471692331779 -1.8773526796887667 -1.1496759776578394 -0.7468609882688622
Ni 5.6548554315318125 4.746964981543422 9.26809791648169 -0.41835293712357624 1.5183803985163529 -0.35550232034594254
Ni 3.9264882509615258 2.7306412146354586 4.986871658095667 -0.4919165694433399 1.6828700656937277 -0.4434430473229847
Ni 3.7459650087620653 5.776678173699004 0.18630710570407613 1.537561599430494 1.1959221531095727 -0.05563532997611709
Ni 0.641858959449554 0.8448581415911495 11.702952688742611 0.036904072115200956 -0.21616498406447932 0.10812671500661379
Ni 7.258580072534699 2.497403686818128 7.647247456118928 -2.274295269457367 0.8580015504011352 -1.7038230137963106
Ni 7.674598554091193 1.2502382114277828 11.158661529769612 0.01760460045564065 0.17807563339192556 0.9191529250994751
Ni 3.650148105740992 7.738479612137799 1.8760702293747507 0.7703912101803183 0.11483678003693772 -1.3072362647052325
Ni 6.013428738144502 1.9241885262732097 13.60680213815338 0.46687453887304753 1.7108716931129762 -0.7556976127238856
Ni 5.283119947685586 1.1142040650874423 8.629281715157013 2.12466092212527 2.0828285594705163 0.29174538970395564
Ni 2.560938125250756 0.49645858905363366 2.2903396870953 1.1632267197590807 0.595986854992393 -0.6603873327556498
Ni 0.6775139392010404 4.830762615247323 8.099743436402782 -0.3679971103788437 -0.3204227030339901 -0.8089703560050971
Ni 6.587393346503431 2.5148939251775673 2.264151170044517 -1.7118947350608518 -0.3342647511234049 -0.5778034992151468
Ni 7.203608075377126 0.09739917471840005 6.516981787567501 -0.7520067941358597 0.04961689169617907 -0.6438949915275815
Ni 0.6730228731755905 4.873200097715592 3.457555943306682 -0.6318457736725311 -1.5901260037907712 1.0085643230847725
Ni 3.2506736846787514 2.4767751357375256 0.6946154015069623 3.04513976512502 -1.0932137809050528 -0.5387268449286592
Ni 7.418137512137252 3.7404097268407224 12.206755866373536 0.7223254650213431 -1.1903449161321114 -0.3312642737341843
Ni 4.037387791239534 3.2256796000815453 9.759451829112153 -0.8426052704507229 -0.4445645625219376 0.9816237899401867
P 2.5344638812208817 4.235832204291488 4.451697531780086 -0.0765078025497521 -0.1997839716032946 -0.6685364442253453
P 7.547726407277113 4.353860866900258 4.379206255160281 -0.3314229107992357 1.3753303892699926 -1.2637535109312492
P 1.8098134217577342 6.672502513881847 0.8525362344456734 0.5133497996164513 0.18638363903698868 -0.8022870304476505
P 5.026340390410692 8.76961675514 9.821151994019996 -0.9346687613468871 -1.3436862800021503 2.193524577866203
P 1.2695927012245698 2.8642021831895694 1.9542235842293947 -0.040427511887427145 0.7956271019289717 1.565212271268227
P 1.7853158463373093 0.20375144038490722 9.917486016032734 -1.8366210062973594 -0.5586554655317862 -0.7913336167599404
P 7.095266025764424 7.034317182290128 6.6016478439258846 -1.1791043102212855 1.1046904140860847 -0.1705898665378417
P 8.521877412121592 1.4635310592947943 13.476738280461392 -1.1345247238386975 0.009629038449331802 -0.8303930446552472
