# total energy = -340895.85610696767 ev
CRYSTAL
PRIMVEC
9.00611117983579 0.00000000000000 0.00000000000000

0.00000000000000 9.00611117983579 0.00000000000000

0.00000000000000 0.00000000000000 13.18135406336572

PRIMCOORD
 96 1
Ni 6.169807703184109 2.0380019457328165 11.487352678607017 1.5186179684484555 0.32578062491179377 0.3053827779817321
Ni 4.7765442635919095 0.3511527849764038 5.869340412329829 -1.155152170281062 -0.1359823037663013 0.21665477921670429
Ni 2.739199763988362 1.7622888525622333 4.756584018985064 0.8251436233308499 -0.8776010697996176 0.4913694386906182
Ni 3.535394044867652 4.363091703283713 4.866714351137908 -0.2462018967462018 -0.17610051194342574 -0.017106063552667312
Ni 4.885527217157508 4.587406918923607 2.573672840861054 0.9312345388543576 -0.12125990995446212 -0.05295778314395396
Ni 7.22140629611751 6.089139963733892 2.5798807534214014 -0.3230501133545082 -0.14543882119351081 0.3432708112767572
Ni 5.049726639470373 4.524508237186383 11.597245249419961 0.37268346011091946 0.013159677310409595 -0.23535801205316242
Ni 5.593011301142232 7.8293908617985615 12.293260951199047 -0.8380791004455954 -0.5445701910833137 -0.060731770662417986
Ni 1.6338526984593496 6.541390851780341 0.3041408836779637 1.1755944972958141 -1.0189392385611937 0.049331756355592456
Ni 2.7031302879921455 1.600917349216362 0.1635131566272449 0.06522245944391993 0.5630988460151205 1.446000502092045
Ni 0.6905426879057017 9.123280868646127 4.667293828518924 -0.29194362175769073 -0.2561250693971847 -0.41902785170341383
Ni 8.5076411083092 2.316624012872633 1.2148568766091625 0.26491644243656953 0.11834890695525424 0.6570778087664425
Ni 6.9056790501750935 0.6307727292548918 4.68175314030717 0.4542632778669403 0.5390032385184975 0.023819213906784785
Ni 0.5841525938006055 7.188750136326678 2.6238801104699703 0.7129928747665076 0.29652764158394734 -0.3486706421360898
Ni 7.575445539784747 3.7091849757787627 4.0543468954785915 0.03755970342132886 1.0173577530066866 -0.8857643223367003
Ni 7.497443609297048 3.984096525038319 12.747806596419988 -0.025511256897227032 -0.7463400827683856 -0.7802981848813852
Ni 7.91797497313409 8.715024834592565 6.81250632510172 0.3065464592725301 0.41371132458650683 0.2312812708806275
Ni 6.617618578330149 0.5468456781035446 0.30157864499608517 1.3794706366906113 1.4266231260066977 -0.055524772540181795
Ni 1.6441827081891027 6.618690305581972 9.231416347132763 2.4344996789958264 0.24665209690974296 -0.6043696797394494
Ni 0.07453097516961124 4.852555843469081 1.5344018131570212 -0.6284076945252597 -0.35395580179442915 -0.3117534573947663
Ni 6.498278596700718 1.9215259075158193 7.0002612316762844 0.12258325675157598 0.37300459089576404 0.18634995758557582
Ni 3.428761686366976 4.060315245476767 0.4458871697595765 -0.7769683491772038 1.343183629334119 -0.6872255359944165
Ni 5.983966595273512 5.650785505515698 4.697109460786858 -0.409192867890863 0.289896766530991 0.7476672862202414
Ni 5.374874277895198 2.7465847753034427 9.406135808125073 0.07906553597459932 0.4837538311268894 -0.6646257963170296
P 0.12057562010800295 5.364328121492809 12.34715892524323 0.6383102983509522 0.7593917737460211 0.24994208051492436
P 3.869466739650092 6.040930249624592 12.661732488320448 -0.0041484749507347905 0.2689278775888078 -0.739566768600294
P 2.264991976446588 8.20814287503724 1.52804890220378 -0.6459467318502875 1.6401133914524915 -0.4075486474192207
P 6.229869459842977 7.734493466399776 5.812766722600631 0.15264459491333066 -0.8542271709603676 -0.5010691824768855
P 4.594467710229733 0.9362303064136663 12.489873368296028 0.2230311150566933 0.35881698654147237 0.6608048799090426
P 3.8934860386468237 6.098452282879982 8.357928016118658 -0.2306726907623511 0.4998101132588037 -0.11043582275576466
P 4.735503414125053 1.1325635340584927 3.6834500125679788 -0.23511555702505316 -0.38355357005620394 0.9414546739204689
P 0.028966355966699775 5.501419148612513 3.8126931142487055 0.6480087565856388 -0.7129702490586882 0.08022741749318442
Ni 1.6764966357482605 1.294700556869952 2.6054400974606686 -1.487335613395406 -1.046588624847346 -1.10150224616609
Ni 1.9239215331375408 6.325838582493586 4.789998493352396 -0.5711980780834872 -0.15571809163233183 -1.054340757988939
Ni 5.801998115247654 5.459387626896072 9.230045616983793 0.2075034517347394 0.6709399114605155 0.4290538684808482
Ni 8.460404054226762 2.2754570778467387 10.126707573137939 0.36542960676198355 0.5690221534780909 0.6312459353050032
Ni 2.4197710062770454 5.195571606831856 7.065877957821911 -0.7932773707498725 0.0581616959423966 0.1811275328443719
Ni 0.8111084012912089 8.945887493191075 8.86305018151427 -0.20161665393665923 0.034929464887333395 0.4663122386116743
Ni 1.2887114928156487 1.126655525006428 11.282487961671 0.1402073975912424 -0.36978762662036313 -0.12479569102186251
Ni 4.054461273092861 6.847580625792672 1.5384356504351 0.16396387658089182 0.3968487445032133 -0.16682705706129977
Ni 5.553348386713433 7.727666833989006 7.9676670931732225 -0.20190744570420063 0.3968849970577874 0.04351000746749281
Ni 5.45888328465992 2.8718868026530973 4.9449063105753 -0.5182678057433591 -0.20601349745277422 -0.40482559206110275
Ni 0.8885618595970929 7.305109095095996 6.677898282883927 -0.09049820329157317 0.32921381896305885 0.6230546577434625
Ni 5.0603628569863615 4.6531875562959835 7.055846950989306 -0.24204570848598314 -0.10198306400272114 -0.41401368631827407
Ni 8.164436216607866 7.418306908778007 8.985175753387303 -0.97259613252028 -0.8533360266046659 0.19275020468496482
Ni 4.599024802577819 0.43466285317178993 10.32388737525059 -0.2879422139077815 -0.7574932711717277 -0.022402278954600126
Ni 8.144586747170747 7.2721557336302896 4.723867518248121 -0.26972209135532904 0.015563144545579648 -0.14023465128475204
Ni 7.378085615444897 6.154272161088358 6.927421604220053 -0.07719814374855738 -0.6035297003366573 0.22027772068127227
Ni 2.3222528324725418 5.126341628808655 2.4894566935350553 0.45617617861893694 1.259871916488656 0.5117279477423122
Ni 2.4058745764487903 5.222427830906941 11.048136335531684 0.09285770466268524 0.12016513422838662 1.7277977794443535
Ni 1.2296854389631626 3.3770666071614115 3.790285008574252 -1.1904369616252852 0.7842623117354558 0.7942235367132257
Ni 3.5720399119908994 2.660216167362439 2.6050708468949146 0.30596461862713115 0.29119877317186627 0.10438910234105248
Ni 1.0204284415169453 3.50828564967449 8.371082342370862 0.18589230122286696 -0.9482868663509538 -1.736928795211344
Ni 3.880373140506876 2.5336622905337647 6.939376316439125 -0.3939572818880312 0.4519320586306023 -0.02387654950728146
Ni 3.9006729155119877 6.773145115403476 6.044757846952529 1.3075702510058835 0.926217031035108 0.06979850885037657
Ni 0.587836993957922 7.1931811431157255 11.223396163205587 0.7993577726159976 0.49974763545198453 0.6816413570384197
P 0.24672152009207587 5.679010658517482 8.072972851470592 -1.075233285167232 -0.7974500140703233 -1.9273274689449968
P 8.557850179140386 1.4659337521548639 7.999539721275747 -0.33326150666987125 1.1560641405723704 -0.17296248053507632
P 1.774753310684272 3.2846639046093054 10.38833060508603 -0.037437318910851655 -1.2956516451914266 -0.2562844777931844
P 3.9539981008736858 6.216558427253112 3.6859149852471713 0.0810206028184411 -0.42551628764123495 0.8944191697982209
P 6.9749990893118925 4.065772948960839 10.527367852870597 -0.7610730181031861 -0.2494165470287575 0.027707236107281312
P 6.276295963903027 7.773300800249389 10.081468975166255 -0.5413485988222224 -0.41204884928241936 0.18854233725120434
P 2.556889051730829 8.593181154005096 5.710677046669866 -0.29188062973023926 -0.42294055649425866 0.7012732723367342
P 6.82050825504495 3.9875999023573026 1.6623930653587282 -0.06567574493125464 -0.1911908306176449 0.3771623218178795
Ni 5.171903546178159 2.6663943597552993 0.6623391495711817 0.651888294145703 0.2765108321423883 -0.936845971503864
Ni 1.5248607387823914 1.1141280241048706 6.886176316025328 0.6426035264096674 0.4514936855416031 0.5931925800767074
Ni 6.877480915507389 0.7152320415876066 9.215348543855646 -0.6795723903245329 -0.44000933905108736 -0.645875769403036
Ni 2.5982271028725608 1.5277517005289047 9.233235581627454 0.7759064835715928 0.3018835065792221 -0.4244176552604174
Ni 6.368122275328102 1.8073824521410247 2.4801776970009968 1.031086929667321 1.051137934780925 0.8687209937011684
Ni 4.138587359305262 7.013635307045668 10.463675732722573 -0.2328301034249861 -0.8089898963891228 -0.3730639833787897
Ni 8.298780379762814 7.082604107839432 0.32530794720702955 -1.0915381929748427 0.6282297741864987 0.14823258188856406
Ni 7.548012924582631 3.8306323874664 8.447943198549266 -0.06274108778296292 -0.02991889904661944 -1.7297083662035049
Ni 3.030961747602206 8.364335864351196 12.552472146524968 0.3745817055748968 -0.8202204749976196 -0.5384224263143631
Ni 9.110312068287937 4.868613740023702 10.05745237800293 -0.42933514716669285 -0.12513327686693934 1.763747458066085
Ni 8.763045420363309 2.181172098020422 5.785072029557943 -0.6520680142566769 0.5677214323887964 0.17731432974586883
Ni 3.6319395586452914 2.6281544109213573 11.333473359301408 -0.08223467773120031 0.18977363855514415 -0.2404554811807278
Ni 1.1070222022419456 3.2741717848750747 12.543825379008371 -0.7978444212952647 0.7311124671853537 -0.13133914856733508
Ni 3.1066310952477028 8.36583988494829 7.989641104280131 0.4515129688153127 -0.20383088797915866 -0.04384476509909223
Ni 5.547062120984254 7.931763329626027 3.6027408450055076 -0.3240109346058807 -0.1272886326470453 -0.4552063585064999
Ni 2.9483036575414623 8.267367063339643 3.558979249296839 0.873028877047903 0.3644078503656885 0.23327104761714665
Ni 3.449484748606001 4.020607300491169 9.036833006925155 -0.11408910323763577 0.4088959054757345 0.22198107652562413
Ni 7.2894384613298495 6.218692875645398 11.207354477651416 -0.4690509776990761 -1.2473146486489357 0.689623861023264
Ni 0.7048335854115187 0.2308212304862529 0.26695284865085284 -0.5679055233751445 -0.987088412599184 0.6006395232730559
Ni 4.5154120647129306 0.3611504691969782 1.5780976642527629 -0.717482535106745 -0.6472376827475692 0.2078289533949582
Ni 5.996187888388834 5.717601845694458 0.449133872904804 -0.3282571114767443 0.26604258562121275 -0.19713085025116373
Ni 7.81402643581865 8.675460987388725 11.278019129214242 0.438558979757806 1.0907678904677216 0.6522163669090831
Ni 0.23449212147652956 4.6170370252975275 5.9246235263011595 -0.5404906216973013 0.7947475275374958 0.29374956461817797
Ni 8.087596074485589 8.968159606583994 2.4455627079893967 -0.2357701598899165 0.11472982214542822 -0.16495477973925138
P 8.491646254534098 1.8406690397270467 3.592459468277098 0.6423484729760679 -1.8435287891607866 -0.4718215984656777
P 1.6549450112641286 3.3373226377303737 1.5747239749373614 0.467417298750395 -1.8380996477254152 -0.7959813999445968
P 4.700316537042101 1.0466272194627617 8.193068445843116 0.45484100474728123 -0.6250323502951236 -0.3928658485960653
P 8.286919331101886 1.5624792659325033 12.329482630477244 0.10738855128900861 0.38894234517194304 -0.22879064324828985
P 6.345868174157902 7.791952456875647 1.3748945748626396 -0.07898326067343817 -1.2863159696127977 0.9780427574571479
P 1.9261280304207051 3.2509900542348094 6.2109881473770425 0.1826300855318274 -0.6359790791146144 -0.7903195736731292
P 6.9326253353637775 4.088927661267024 6.176888307935226 0.3163547036122035 -0.5694160464824001 -0.22296195238165473
P 2.395004200037446 8.422875588190248 10.31177325486045 -0.23997648466178026 0.8348379678004784 0.28715185679600225
