# total energy = -340888.84435335686 ev
CRYSTAL
PRIMVEC
9.09309081519094 0.00000000000000 0.00000000000000
0.00000000000000 9.09309081519094 0.00000000000000
0.00000000000000 0.00000000000000 13.30865755174151
PRIMCOORD
 96 1
Ni 6.62668982065306 2.189889016437318 11.282108528414827 0.2280123703213686 -0.24655516632056249 0.8557860308070552
Ni 5.250277785071528 0.2709268167045078 5.995776638995112 -0.4539933120350052 0.5732037956596063 -0.6756463157972492
Ni 3.8799035616683555 2.075779822120697 5.681359388425155 0.30905971261268705 -0.6433871986532274 -1.1766216530087477
Ni 3.72263855922147 4.317872271865189 4.6440159721116725 -0.14077998226526078 1.0197725330957663 0.143785601860804
Ni 3.814060492416092 2.6086622123140955 2.507989878021514 0.5672624904745069 0.20953308057025852 0.8573916847312782
Ni 5.045401360085649 4.879797993530999 2.5337687899577332 0.2092836835636138 0.10598318630104973 -0.9566601780163138
Ni 5.156891744300814 3.1119374994160194 0.37907276218593583 -0.10478248112472921 0.06627198375435683 -0.5176515123155988
Ni 6.027646103035346 8.068244757508342 12.160306491139128 -1.192529582488256 -0.23313015116390817 0.2898893103318233
Ni 1.8680754459488695 6.920996791985578 0.3407171965992803 0.4925547172479711 0.002375956431344295 -0.580507014189239
Ni 0.6711528356231519 9.144375661213408 13.302428681473726 0.14163487406638833 0.33113751834833294 0.2649424105784986
Ni 8.285424134116692 -0.14569586323826028 6.7202331718916755 -0.4515919016823642 1.3512859467262792 0.4783079775209698
Ni 9.082069804216237 2.5458471422416418 1.3709643649850636 -1.5303257438036872 0.7702274309089445 -0.3099197466201372
Ni 7.211875668150563 0.8886186445863486 4.395317215452346 -1.5060491306445096 0.6836041371917453 2.8542551528938844
Ni 0.7904969222154987 7.709886055777682 2.3619275632308616 0.25672387932344815 0.5808507706819029 0.3077548777583345
Ni 8.035500538149495 4.154051151074031 3.2992960853030877 1.4159566474317873 -0.6877873220351575 2.6259239657805162
Ni 7.94191444938492 4.148913554868046 12.804858399433103 -0.06583541043757049 -0.26263844503567024 -1.3418178593348438
Ni 8.334763243875397 7.091146703855258 8.917120230877888 0.6235089716720617 1.2047094123838993 -0.7967532451136149
Ni 7.113733940980327 0.9327783299221715 0.14156032561970905 -0.6400853879735041 0.15359667441395486 -0.21958557971025405
Ni 2.17801344007446 6.9147043732695765 8.90757703226164 -0.06871941685358489 0.06993683420045374 0.015571372075695764
Ni 9.453995397166945 4.9584986929341675 1.339916007028724 0.17855745812435056 1.003610578623923 0.1038327156169502
Ni 6.667481425219509 2.3797436557023386 6.690328724736597 -0.23280284973147647 -0.35016291041090014 0.5372201784761457
Ni 3.3170321585770193 4.899029880213575 0.2502236679579875 0.5576324235839106 -0.5910971310002595 0.06606912371493137
Ni 6.1937314033933895 5.774530832257 4.652839907259082 -0.3564392303379152 0.7672660342877754 -0.6473603243683625
Ni 5.685436730263674 3.299764379470536 9.323499544225893 -0.9131733104772725 -0.3432633550775894 -0.873459022606786
P 0.4802752236622502 5.813103722709713 12.37924719940252 0.05278269101867039 0.1334130003772283 -0.04526221427190914
P 4.257184985000169 6.4425183630318275 12.3999685343303 1.317358697851215 0.4338106664395432 0.33119433972819734
P 2.6183736331069993 8.847549903776363 1.148706497259825 0.07613859213579145 -1.0595896650927041 0.6974035049686829
P 6.730687498189055 7.952062338528067 5.562592713087817 -0.5850216142301409 -1.1740837170782426 0.3001726945357024
P 4.666492273531054 1.3683464641926693 12.317002266112572 1.1159310199969104 0.2822873296148493 0.9564539755427787
P 4.242154106188681 6.4806093196811485 8.19085326363688 0.06646610204303392 -1.323266835805534 -1.1479047446900297
P 5.047783749830725 1.1779553325804757 3.770609158840351 -0.0156526189355924 -0.13204388794384356 0.11704484343185005
P 0.5226699401067783 5.83222649230473 3.5336614032022506 -0.19809372838506528 -0.589041019802179 -0.7406497172518276
Ni 1.0921802086671208 9.382614635720977 4.584393486159432 -0.721023458380468 -0.2730904936069297 -0.29022123974994535
Ni 2.081781261936537 6.797394411051175 4.7525347343089335 -0.2568640044457383 0.11556980154822033 -0.5073439597420036
Ni 6.3744474865752 5.738895010077795 8.864684014450583 -0.9401498390661164 0.42124954194508096 2.134409002650969
Ni 9.028802479305346 2.705321765711632 10.122085679865892 -2.7937570955088273 0.538234221562957 -0.25361490138082127
Ni 2.294450465592377 5.3356346268159 6.623053493710099 1.190862479198478 0.9753526122194944 1.3110813494829356
Ni 0.7101485547901637 -0.09159288329846704 9.149955181624012 -1.0877527577904815 0.8829772465098664 -1.4600001588052467
Ni 1.341276333386981 1.2909642629308598 11.014869869269871 1.403241513857964 -0.9170765021864206 2.3782917643456916
Ni 4.279581267222007 7.3725687657649805 1.5343953921881925 0.38864872519092425 -0.7327158071167317 -0.7876050029554436
Ni 5.966194996557402 7.951171215646321 7.702811631267496 0.781379590871022 -0.9649941518033057 1.0242223413370037
Ni 5.782441821105152 3.2416686234350833 4.208516945329963 -0.18783296988900555 -0.626363153291405 0.41093787560642775
Ni 0.7691454361070551 7.342297867057512 6.7918467164577745 1.1435590661268242 1.5585006635760061 -0.6588552123818395
Ni 5.50569360777928 4.955307018123016 6.9122374177816415 -0.7429732231786816 -1.0015593525218494 -0.49081073797367086
Ni 0.9068066444645945 7.756097142359646 11.190943929685037 -0.2408547735016755 0.05691213980601166 0.16963444460310784
Ni 4.6409952474043665 0.7708031065289149 10.241690738159322 0.5943431487413829 -0.11681395836796656 -0.555665786775843
Ni 8.498438875216474 7.317000888924685 4.694416245546906 1.0617655896981002 0.4103547494094481 -0.5818182768014948
Ni 7.534798595695879 6.079313043995347 6.663844188967485 1.0045135500541669 0.3430648659135382 0.4930427126279831
Ni 2.5151306820932997 5.7728031450372885 2.450496084585771 -0.337661949730412 -0.8255753115516299 0.4586760622226552
Ni 2.5446923197316247 6.145565302325962 11.261386284177984 -0.9866613523640944 -0.9664622517084 1.2154378545449969
Ni 1.590545226828812 3.3291077829337388 3.878488676766318 -0.8523821473318287 -0.4981106140691937 -0.8983257039414787
Ni 1.5520087087386185 1.1975054774351044 2.284045241984399 1.156329478418615 -0.5703804672781982 1.0474301469120346
Ni 1.2590929802725 3.5169073837163656 8.094618357571768 -0.527513235601027 0.5077723055286739 -0.2521678845216496
Ni 3.816988467598971 3.463312707542793 7.615758928120617 0.19494335568154167 0.42873402324758425 0.13263909832568124
Ni 4.306342232946273 6.926652694357475 5.9565154015817035 -0.08616383758227741 0.6285267366016272 0.39772960444626987
Ni 8.2625277319102 7.26295155821961 0.2856767190155279 0.3945499211667076 -0.06992732111875699 -0.6898961408480441
P 0.4128836010756874 5.621303162049862 7.7636580472185415 -0.29123476861612424 -1.7761432606272765 1.105697000973728
P 8.685092746579713 1.6355923978101288 8.073803363810498 0.29620805346099954 0.7733880880251133 -0.6942636737881204
P 1.8179634234866096 3.531901890165334 10.538700176027094 1.464978842966761 0.39472886994673306 -1.3174833963545374
P 4.073668229904301 6.403527190410132 3.8513794456709207 1.015385202661348 -0.24147312381196478 -1.1064770736728622
P 7.231434906095822 4.265668838558016 10.565582989165803 0.574438696507972 0.044100846973956304 -1.197130571595377
P 6.651568516616904 7.966347583907891 10.081427743731707 -0.9612688804329187 -0.40130189517856046 -0.9780016198065673
P 2.6109082056997206 8.628724677763971 5.853120595954481 0.6161000808025003 0.02163480466095629 0.44119718871160146
P 7.210866335090627 4.240462791331489 1.504836482477057 -2.446755099324412 0.4993851099062432 -1.9236484774315128
Ni 2.7353562440627197 1.6751655282321494 0.1533076894046834 0.7310474182753732 0.11457092797006076 0.0944762141027147
Ni 1.6700643043886858 1.2591475388162805 6.928167603256443 0.4544494257358173 -0.6744551237026255 0.6359945057335822
Ni 6.851098204312308 0.7520586095041096 9.050100316179073 0.35837424257709893 1.1037419341298862 -0.6518260734492
Ni 2.7414213355129693 1.9707364391622455 9.058896972054592 0.6438196582049558 -0.8222279923459517 0.9147995332267859
Ni 6.393261091088793 2.213531052075474 2.1312613146000072 1.767790260676891 0.6415473172310113 1.1789744695116406
Ni 4.406784512045914 7.246984091073225 10.222885317427295 0.915077726588837 0.9824545133715983 0.1576073382352447
Ni 7.775247191226553 6.37905768352464 11.073774001062338 -0.6047203782106488 -0.7864708893510004 1.783539810201664
Ni 7.920172869688447 3.9942946417945087 8.320879003792358 0.018024718712194764 -0.22209729038851428 -0.6395619113698663
Ni 3.2719213359612924 8.66035954006595 12.235860071875232 0.325469264318962 -0.484468854916043 -0.46283636424793184
Ni 0.5614356040808496 5.2915240441694795 10.070301438036765 -0.005382090247519763 -0.850129089631594 -0.39745655329054125
Ni 9.030084605084184 2.240446600340451 5.8000596842008925 -0.588542997119838 0.28259251956009396 -0.803623746981203
Ni 3.62844323338468 3.168923898394604 11.581712225039356 -1.7926086052721513 -1.3546895730911894 -0.1284152900523208
Ni 1.347514193559202 3.454756109259906 12.763135662386135 -0.7556752441263825 0.8974862387593189 -1.0785317534128458
Ni 3.6484753120427014 8.745543613088351 7.8326636933919405 -0.44726936304761034 0.44269819873716015 0.40897946632847626
Ni 5.99941205662901 7.965865650104497 3.4187947544361457 -1.3634477788997938 0.2957578532974584 0.34521482237700546
Ni 3.5319382625278544 8.580322156340163 3.5455724426185666 -0.6036597981566184 0.8161249647720074 0.38867957842885964
Ni 3.6426739202207234 4.863694130025163 9.687850592681762 0.25396405719012394 -0.6890227371041553 -0.7483668833904272
Ni 5.362313754724496 4.368275273227611 11.617885448874796 1.7368542332196668 2.4558544905225186 0.14707172881124347
Ni 7.809437211995578 0.07835879919547792 2.459572807652697 1.6383465293600556 -1.0846337525455256 -2.270662043580154
Ni 4.8876998892885215 0.7048363712440826 1.3442806905311528 -1.1715051577177888 -0.9870814706206483 -0.6523081552919411
Ni 6.070392722087258 5.82316068094656 0.31426175872018414 -0.02208114816975552 0.3698655310461501 0.05542629928910455
Ni 8.08020217168687 9.20857288106163 11.125944699243242 0.5945205548595116 0.47133900240230436 0.650262585616822
Ni 0.2074261275985477 4.627164656556046 5.5308387312985845 0.5508259421850384 1.0132105636075324 -0.08394034756839737
Ni 7.6356045984207235 6.55084435170773 2.521737721745101 -0.15457523627714026 -1.136408314014656 -0.6682999027345071
P 8.851205326209646 1.7448004162771478 3.419898655638635 0.7330477365348537 0.9967896990473478 0.6044398708557526
P 2.1461785297786204 3.4533284940309867 1.5465855894868508 -0.4400255370010035 0.35756845884635197 0.204581392991938
P 4.970692527469078 1.537659811724384 7.98028365460752 -0.21949199155518329 0.1462803432581997 -0.14295436420876026
P 8.804312257830428 1.8777777736511434 12.60167510792254 -0.017091408264647983 0.11654502097729608 -1.6950604371123323
P 6.424304902499818 8.160257741593918 1.0517423253261817 -0.25045912936065895 -1.2557820626899985 1.0829602214978447
P 2.238873495661451 3.3504583597331195 6.002657380674879 -1.2288119618590578 -0.895931235567373 -0.19787364195445922
P 7.243010410467888 4.080169789704795 5.476166523885349 -0.019378661636927915 -0.11185147215636866 1.3284046712527315
P 2.6727594081653874 8.969460969853575 9.897874616273318 -0.01027155712933715 -0.8745054615934293 0.7900066704184007
