# total energy = -340865.72007921117 ev
CRYSTAL
PRIMVEC
9.37264992842522 0.00000000000000 0.00000000000000

0.00000000000000 9.37264992842522 0.00000000000000

0.00000000000000 0.00000000000000 13.71782057222690

PRIMCOORD
 96 1
Ni 3.5415400269185406 3.0607980806880533 8.750679688926883 1.6968103299239035 -0.023409637173191944 1.0222665031622136
Ni 6.091369366230794 2.5020944346068053 2.4059273000613928 0.45516007864959673 -1.1012417934158518 -2.35388788158003
Ni 5.370500135776157 6.654450039702077 2.7241400031117817 -2.3625946653254086 -1.1639147469650406 0.020959375860486483
Ni 5.662055148670795 9.0358434920201 11.52051323364872 0.03637288220207929 -0.960148136564914 -0.7344937249527609
Ni 6.027419777617939 8.12842104278336 4.923256976686401 -0.7950915411404759 0.7781191749521953 -0.03518786075504263
Ni 8.354048837987417 7.91180973654978 4.399963201011041 0.05244073429821936 0.08310679592350849 0.3193644369728048
Ni 0.7351475249428133 5.169025658739376 1.553900022095144 -1.0166298737017265 -0.4346210781559805 0.8634911127607967
Ni 2.196592919021865 6.602497442650771 10.092735334404232 -0.7322612360778163 -0.5675427407190872 2.7568630506959555
Ni 1.1666699387621104 8.57415614254323 5.170973295338197 0.12186103387357078 -0.42155061812526756 -1.0276089984210497
Ni 1.928516393519167 8.099618890385983 8.387006823242913 0.331957443146467 1.0327442627650858 -1.1387135651090647
Ni 9.093972665195672 0.4847609384036068 8.751078026537327 0.6152161355356501 -0.1040034368668596 -0.7394891212848232
Ni 6.041713068345567 9.006619570388137 7.286357828667958 -1.2215313690372447 1.241235018113759 -0.19494309857122555
Ni 7.864309148085767 9.409390444118205 10.875638383881741 0.6062159889195688 -0.010972182740787555 -1.351349452974363
Ni 5.702470013993767 0.9599842685157813 9.447120045314316 -0.41002796219764875 0.5834385860137372 -0.3038378020921154
Ni 8.609397305255284 4.65804754471392 13.44805955792834 0.7394729233349071 -0.2760629459716923 -0.19996317749363626
Ni 2.0165911823503277 3.910391281538259 7.297990224157833 -0.18373206034675454 0.31728210052247935 0.23447998032358328
Ni 3.845954315143215 2.971129941415124 0.9111462029456495 1.1856968758371385 0.5560969607759906 0.8292152222970623
Ni 4.784793886031765 5.93771414774638 5.237573469274183 -0.3386379404904361 0.7704925116448731 -0.31184087490225004
Ni 6.33472084193711 3.294964359730058 8.784110055725115 0.3328493588331171 -2.814891820604913 -2.473962255866823
Ni 6.4654599320090345 8.683431864899568 2.2902725523481875 0.022957123016805626 0.3431720809153638 0.3616017483754611
Ni 6.948620021851147 4.195413557621647 6.577351560884769 0.48162058683397047 -0.7056130373626687 0.11623366038446435
Ni 5.390585723992096 3.903436775492423 12.688530959431572 0.7994012242594233 -1.2761994500040859 -0.6677851678816177
Ni 3.427746687427307 4.484672271350207 10.991773948522374 -1.8976165721441256 1.114592246580829 0.5390479757135038
Ni 8.341348897701558 3.7425458714724487 3.481472589793805 1.35666598009127 2.2133621814174202 -2.9258981711521677
P 6.930840105450943 7.373829018861177 10.2630007626116 -0.9308612146753388 0.48208672783711165 -0.5424181777373175
P 9.348290141001218 2.522423711713838 10.962897752192704 -1.262472844446613 -0.16813214902596849 -0.6803555483474606
P 7.982442024368406 3.2104324324694176 1.2578948751431436 1.0284379220802482 0.7391733898166173 -0.1488984976073371
P 8.40139946405691 9.046003444248788 12.855984592741702 -2.072894588186256 1.9692475062175505 2.3646939710565986
P 5.651107893870881 1.463361163669037 0.3376975044232841 0.4869574256658517 0.5185845656528294 2.1130349078505675
P 7.980951773072869 2.578031642131554 4.995262357679845 -0.10436390553007188 -1.2720273209042674 3.6735042651171703
P 2.9857981381290504 2.49860780893423 5.647640013497621 1.4088241501520642 -0.635206462614648 1.6521857492359933
P 3.274419511680903 7.840840033343485 4.197350884305844 1.13787641391975 -1.6760080484665716 2.5778057701170507
Ni 1.5102806478542867 2.0283163670718114 2.0894438508728057 -0.44832351534373754 0.5090745692798653 0.8397410615290505
Ni 4.502208498859317 4.0335478980372965 6.813174924386212 0.5140514536691664 0.08170914424503348 0.17005122042555226
Ni 3.4112227060812033 5.737729922005135 8.504829464821889 0.9943741476273198 -0.7622773228239323 -1.2045399766855707
Ni 2.1783724880877613 1.3069878767839582 9.290969827491084 -1.6396518784350405 -0.6061092881383754 -0.15284694073212385
Ni 6.876684935730134 5.120644041207563 1.2943338624814202 -1.023379019500102 -0.38648539899101825 0.965256661436073
Ni 3.6439268517766443 0.19086463762453498 10.758337798888686 -1.304617596135463 0.3981234974505789 -0.4160535995664383
Ni 5.568075590555434 4.708931659704275 10.021374791707224 -1.9211604209023367 2.760589864728239 1.4275595217780381
Ni 0.6347008385638042 7.982142099579367 12.60309644600892 1.800513204831209 -1.3693276347193384 -2.325705505608543
Ni 7.469898677850152 7.6455983683289155 8.032620378839553 0.08269233409390919 -1.4170573366951336 1.106960955287816
Ni 4.241601975133615 0.7910900589533005 1.9624435107492442 0.009736253451157424 -1.019474028018741 0.3534400385002751
Ni 6.896048829922448 1.6829998357419773 12.383514947098888 0.6543228717291247 0.7058493217431908 -0.7842669397211461
Ni 7.948231853118672 0.7941024285532085 3.702165684953209 -0.28234106567092015 1.0692410721395393 -1.376080894282772
Ni 6.341787819778836 8.850724288635588 13.608900786905131 0.17992271390299336 -0.9962443680668391 1.2896846289747144
Ni 0.04217411166367708 2.0457682407340037 13.132741129092175 -0.40332792446965376 0.13002300085907287 0.17579429355691661
Ni 3.6035869676509322 8.000887398894289 12.607417237501007 -0.4229243585443426 0.31190643803286283 1.0702018933909117
Ni 2.10004525490036 8.127727466708707 2.5306088466596988 0.4058802585778622 -0.3894755919675938 -0.23408325910579686
Ni 8.205576694763577 6.416187912759762 11.719010019889325 0.31600169114815896 2.0583915094740743 0.9375005743687272
Ni 8.20689823836528 0.45989154980249985 5.929569315194047 -0.11007252587907496 -0.6486685016568248 1.9622255663737629
Ni 0.2751022636859311 6.115138405762116 3.668227320543543 0.3311665718140555 -0.5169704270881741 0.4455022438448586
Ni 1.0569911924705022 9.371609293348982 0.8176287164584013 -1.0606399607340895 -0.5288684640773408 -0.3853646551230137
Ni 4.075237443713682 7.5708327420113495 6.825067879536564 -0.029752805782400367 0.6269982157722428 0.2965281558045796
Ni 6.043812541868839 3.5319611789686154 4.341058909708796 -1.0276560496089011 0.9929137610317094 2.2458493554118486
Ni 7.039825275667899 5.814370078254194 4.716433528490107 0.7462408381863599 -0.447230796500191 -0.0685173281451078
Ni 8.543404479017102 7.167462018703202 1.0211117523167759 0.22411792036296888 0.4082783264963937 -0.5663615759267923
P 6.2960961526987145 5.833396557058839 13.06346600094395 0.9064143944868841 0.20210002133098096 -0.5021912118964706
P 7.4439739288976154 1.60727819915935 7.894646540497037 -1.0800834141706819 -0.8681777196031887 -0.358352388200228
P 4.818629151295199 4.400365287681346 2.472198493994402 0.575394375553022 0.29191199718880695 -0.01935449326721183
P 7.442127516915096 6.671817559517352 2.8278052573831625 1.7342358217602134 0.7799608561466244 -0.4296665623641826
P 1.5471807695557105 8.712084054902425 10.659239836795384 0.32545460903094275 0.2907678562820347 -0.6187786560759279
P 3.8047802651979894 0.49082972905681277 8.096120080268852 0.6220732676667996 -1.1495381665283944 -0.1559381780629379
P 0.7618417684322278 5.076217681831198 8.674065776096867 -0.18334150977655522 0.6418612489270042 -0.23568608481654246
P 5.953347727375025 6.081649928536008 7.236946156938789 -0.4871402311006191 0.2939953620803969 -0.3944609609973271
Ni 3.0627944550650925 4.456807383918576 5.048912341584118 -1.2111803648202235 1.1676945257224471 -0.7529424185762517
Ni 2.885791966283942 5.477470186316759 2.5317063839345875 0.7791021076907549 0.6075419068198441 0.04860876214663887
Ni 0.4815976691442137 4.719588362364809 10.85481516813776 0.016790846305093664 -0.3306896321776369 0.25441297180208444
Ni 5.139126906332076 1.5343964754229336 6.453905329511316 -0.8340735788306279 1.1262311163713379 -0.5628175673292759
Ni 9.195722149877069 7.4928241789123025 9.731983923618492 0.7141688973524797 0.15168120255879683 -0.19504902802147056
Ni 3.54408938762537 2.7370292709207216 3.3896599882792486 0.4472549648699071 0.44973350831738673 -0.13585297727728862
Ni 1.8414069876027248 6.964937804904786 0.4312571678339909 1.4319915894074629 -1.0746424456607686 1.03914682385732
Ni 3.3097918914881608 0.6400123191246874 4.60947566239406 1.1061104343620627 -1.0734448258082414 -0.7462835184988373
Ni 4.241030243504509 1.8661882732970516 12.589378635970258 -1.2341642273099067 -1.2537552620679568 -1.5782377369936174
Ni 7.341812047631291 4.477755255903001 11.445490796730539 -0.051709769669465784 -2.8216347957557013 -0.06337537893285214
Ni 0.5418591201168589 4.393026502999554 5.62742039639158 -1.0539039275618365 -0.2042962576513514 -2.1728436524780834
Ni 4.941682668648003 6.50766497341658 11.488139164466885 0.5339008842949257 0.12071483608426953 -0.3381610008540176
Ni 1.9143730651860582 2.23393355525719 11.679365586368197 1.6191414171865148 0.2736715629213803 -0.5788152283091129
Ni 8.519541712989206 6.05395374879821 6.585829122499942 1.134417251726556 0.6651873252474544 0.12342169349247131
Ni 8.067864353346504 1.1529296343642725 1.1229418417852264 -0.8928770221220815 -1.4627828637567066 0.40972714312777825
Ni 8.786390421386777 3.1501475498726283 8.710528195059288 0.745189256993394 0.6500540691504417 2.472024158303846
Ni 4.8242527410896745 7.885463218362657 9.397268796316212 0.3187082914460447 -0.0397525973075896 -0.6658727813502532
Ni 4.034878814288656 5.406434874562863 13.551408953906265 -1.4830238733939298 1.5328209994217148 0.8592135684313654
Ni 0.0808681585095389 2.354775127290834 6.750704339889304 -0.6726772058665963 -0.2835836798287697 -0.14597309643042602
Ni 1.1098810544875544 2.0372953654436587 4.702358620499497 -0.6438731371507105 -0.2499755048560211 -2.04429903593675
Ni 1.904016287314564 3.8670146589235297 0.15920663887652908 -0.3895802358662581 0.3574645862786359 -1.8151710639536995
Ni 1.9564187715494283 0.809877535191681 6.645789711418582 0.5398907833297735 0.04521182064994794 1.936671114943426
Ni 7.693258291837105 5.278413852891603 9.260612752515534 1.1199789648140388 1.330709408126508 -1.1424362653762905
Ni 1.8147792899258781 6.347317683076739 6.064606702398881 0.4173828599008231 0.6743630782094515 0.5472258835386059
P 5.7326780638397645 0.7711750529611275 3.9395524064175174 -1.3979044179157667 -0.09890159686391999 -0.04688252348415151
P 1.6295007514971902 3.9660273299049473 3.427740126572547 -1.956644215631243 0.20200180519021985 -0.4241273777135082
P 1.8593556116967627 5.707662461904 12.344858390851659 0.4514353214998419 -0.27231479178316975 0.3005640164368501
P 2.2160786576597267 1.606181599149427 0.06682230573286792 0.5017916624652068 0.7128972297289077 -0.8780450993155715
P 4.653333101936217 2.8364449658374102 10.633230733995932 1.0497148291811536 -1.6194031554883337 -0.016759221736209848
P 0.047738653765311646 8.117754967473168 7.154364678071866 0.6493156483225204 -0.040935561872097244 -0.4254049588743512
P 4.283975724234995 8.03919341804433 1.143795050008111 -0.34834205515207756 -0.4223805702257306 0.00297476635760778
P 0.45779207627922863 0.042158178159259395 3.004654971974896 0.02740924525088828 0.6015345242834995 0.0631969443734589
