# total energy = -340866.1002842857 ev
CRYSTAL
PRIMVEC
9.33197466259826 0.00000000000000 0.00000000000000
0.00000000000000 9.33197466259826 0.00000000000000
0.00000000000000 0.00000000000000 13.65828820916628
PRIMCOORD
 96 1
Ni 1.4711111164582766 5.806737114576791 6.704662495877144 0.5807576967474644 -0.7205784004232493 -0.003797776479535395
Ni 6.246543738494035 8.137910992393994 2.394502522838894 0.3081719106910951 -1.7533897689808449 -0.28541507661055365
Ni 4.872979750975624 1.9971731802292638 12.958833257090259 0.6609707160629454 -0.5218012728179143 -0.24467568990966249
Ni 9.189232570133154 8.749537929909327 3.057899521820484 0.32068212734296386 0.05306011304977313 -0.10532138434733475
Ni 8.810746350335672 2.08783331202404 4.073092360471277 0.7293551181746148 0.13274348511402945 0.4568906881874583
Ni 2.2055095098554482 6.769442262926017 8.92007789661269 0.21835530684757878 1.6870843608853914 -0.6000882787552761
Ni 3.1950160888289254 0.449963544910083 9.155395763970036 -1.9034249512957866 -0.9078971496799978 0.7795926741739284
Ni 0.18612716362943868 1.1525455046128534 12.848365076325067 -1.7714383989524396 1.41466672497577 0.27184325146338995
Ni 3.291639352298109 6.456279864287921 5.163966578724999 0.43783649976948463 -0.006863816999368825 -0.5717079278403703
Ni 3.4384966342388603 6.644851072026165 2.5411787644752892 1.5833002391181894 -1.8232047328914534 0.737221408296569
Ni 2.423747064374506 1.6460203135997582 13.435507712472415 0.5253213701560306 -0.9556672179754252 0.4147119979368793
Ni 6.534593793883572 0.7322305757321255 11.735556052123467 -0.46783715989663294 -0.605918255173492 -1.6169318111297055
Ni 4.498655591783439 8.798176180749715 7.439996886311786 -0.2736538223095674 -1.1898157831015188 0.3049230647364942
Ni 4.560946521246139 2.649776817560433 10.722821255543158 0.26240318909641264 -0.10322336416772546 -0.3791718960487405
Ni 8.845311983703438 4.0404183183247975 2.3804075086275884 -0.011716259995663694 0.4235208544777609 0.5195245609685955
Ni 4.430812137522191 8.616734601492295 3.884457695306763 -0.3858842750719096 -0.57467061001312 0.16472492311663242
Ni 4.928486335012199 5.021059521569501 10.709531590727003 0.3826184598364443 0.13605095222070762 -1.6885303493032986
Ni 4.881098568748291 4.1435086400887595 3.6275727017949224 -1.6664489440232266 0.18993947470904707 -0.3146793727923096
Ni 4.662086460349772 8.778551038478545 12.653747682339798 -1.1566151279798338 -0.4082467019275098 0.2926640448634831
Ni 7.703684889198653 6.031553711084044 8.451885272809358 0.37162879359415996 -2.7361345598993525 -0.40866656307374777
Ni 0.37895468491494005 4.976266044203064 4.474141428097211 0.8486383640186804 -1.4784632506064408 -0.002175667495080124
Ni 6.906323664178285 3.742243070655554 11.657389567724145 0.39751877398704444 -0.48886852664563546 -1.5041737679986675
Ni 8.54014708717014 3.259779991521231 9.473033777554997 -0.9856902467000767 0.2378280708602097 -0.4424948244771024
Ni 1.3876459369654837 0.4574561871970646 11.095159570572097 0.9970450095912635 0.03501353996070744 -0.6967149635420905
P 2.0224628309923975 1.2282651453110334 7.340346330330586 -0.3613729201941067 -1.5265541925763966 0.8569767086810467
P 8.29941947422335 1.9369352851458583 11.143086724959293 -0.09121194152914613 -0.5544213728457806 -0.04305672198015811
P 2.278242918729199 8.117026033571895 3.454440312588976 -0.6978254229974498 0.017293239862808923 0.19521434995474124
P 6.577679519925413 8.079166213222805 12.911261650929658 0.17144990054529183 0.9291946256061933 -1.4398031150320818
P 0.7828500047485338 9.115855255022261 0.6147774120901042 -0.217617914460922 0.20842467799742814 2.3903502381721218
P 3.741916451549757 4.749881675987987 6.463907820204446 -0.14307417761607616 0.14114507891416336 0.8031779176930361
P 1.169809657347834 7.620854283968552 11.409218771954967 0.44032635607087395 0.3420389957521851 0.6579519838412797
P 1.709776363051319 2.2824143113089486 3.4677029146792218 -1.7304267324267684 2.4015054834579934 0.2066303051011667
Ni -0.08521119191263855 1.8110282858483673 1.7013038634469466 0.7057264230120813 -1.0930420312138789 -0.5676000763195838
Ni 0.5224580552378794 6.915142380034802 13.683419079351847 0.49240353638208745 -0.816386188853194 -0.46912271147727597
Ni 3.7719747412575257 3.629512819283356 0.49001264646545745 0.054896652037879655 0.07372226938481496 -1.4788697420162402
Ni 7.823040842431302 6.08073321644261 3.5507173598060144 0.03247971779526019 2.3675190992102193 -0.48824554834965594
Ni 1.2596579073653438 5.894924273141962 2.363511968883436 -2.5178360744316377 1.5240579085171044 0.11899014008367896
Ni 7.6103184848129874 1.0018434491981498 8.854559037187272 0.5496167523682858 -0.22503194753680603 2.111287071921525
Ni 1.0020207567127253 4.9187904135572555 9.00477303033817 -0.224622113692897 -1.7932729783290275 0.7540608484514111
Ni 5.543286143840987 4.718236950623489 8.16428221899604 -1.349797535106211 1.3092913474620484 -0.3398070210978728
Ni 4.243398094615912 5.84355175378733 12.601136809975472 -0.5373734162245584 0.5393413385842066 1.8546925190870898
Ni 7.4647676792954245 8.09033658664106 7.783025335983954 0.04271193704622967 2.7731569027599727 -1.0138929343865377
Ni 6.139533987460508 1.0614094421210587 6.810308845443329 0.9567154567342814 -0.5912827646485042 -0.32345557632304295
Ni 5.735496821615254 5.63058676483328 5.421479614117414 0.04098441283216167 0.609901408190956 1.0602488959432579
Ni 8.037256315961832 8.36824278580199 0.69224306520813 0.2246174857072067 0.9602885187975203 0.9544863102934464
Ni 7.050166718371252 0.3971557678848353 4.124379958858402 -0.777978278498957 0.29106276181463425 0.6024981737483496
Ni 9.125849799659647 6.921721422022997 10.127852825620915 -0.2289377103491154 -1.437208614832028 -2.3440127885581634
Ni 0.10233069904362338 9.340279908602557 5.88513783153484 -0.11948302055969744 -0.05693733661699226 0.267118592294211
Ni 2.2808092117033176 8.194145470437775 6.627943400715226 -0.05234071838524534 1.0162413800140562 1.208997498236292
Ni 4.152672638999976 1.6943506092832528 3.5542551113205176 1.2504776197579497 1.352121298143381 0.08041973600964859
Ni 7.436034529959747 3.954377513883434 6.786161428353039 -1.1639869949638728 0.20739289429880411 0.18691020096442004
Ni 1.8117748438044745 5.572765851132772 11.946384952125605 0.9946124888903709 -0.12108224672601729 0.47611919739976716
Ni 7.059452032950337 6.033000167124001 12.767057449325423 -0.35328808630344316 -0.2242991831358395 -0.6871550877677971
Ni 8.684391416264516 4.647873863260379 0.15222036765793676 0.31992545168259745 -0.721351531143848 -0.6957418009955437
Ni 7.267471075445176 2.093087213640145 13.386720150040805 0.6514095547370716 0.9473149893559878 1.3886330199161696
Ni 3.8558411956517262 2.6070643704966456 8.376081644341117 0.33383974777084446 0.9238565012227316 -0.44445811885106035
P 0.09145614921547586 3.9347523716122645 6.455699415477047 0.240233852088225 0.010354603761446684 -0.8555232640639718
P 2.758335676352881 3.871192293624182 10.232857135344847 -0.283678296425105 0.4754841349189295 -0.32013113993550024
P 8.31213895540053 6.312222174682571 1.486363295501548 0.2507926014406778 -0.3067624319380782 -0.27318073932789083
P 2.5843783406054364 5.625855453786451 0.5621273454330842 0.34621472439642953 1.4390384689519153 -0.937943832553733
P 4.191754948002192 1.2186812075495062 1.1772612389472297 1.114939088397286 0.15252066774095668 0.7003800710985034
P 3.5100355503828395 0.815478320220202 11.45653094922582 -0.10407851307916915 0.11105134485257649 -0.6520358754671609
P 4.555039381418441 0.7311238035621965 5.499987648781655 -0.3755404699437403 -0.5036192025922488 -0.20639813448570257
P 5.79267382907862 4.0891498889096995 13.3454588250042 -0.28727346997553105 0.14659916005019913 0.1303713853374271
Ni 6.528397362847882 1.082257073045354 1.8586745478045785 -0.49585447104516545 0.4294323348661895 -0.06338540623518117
Ni 8.472891547299326 1.7443979882657938 6.967242793396638 1.1061639133078176 1.3816586454808657 -0.5823255554552165
Ni 9.113009002814602 4.738953933905466 11.370920348806665 -1.1229177357273887 0.5678065359034349 -0.635232430756577
Ni 2.3057629113862035 8.401828561852366 13.055178427720792 1.3909503551954367 0.11046101956674524 -0.2665840599469796
Ni 2.2243227703493518 1.008170527876159 5.09768249739457 0.7009464851249347 -0.6958706132639241 0.7952164967541144
Ni 5.98003188013819 8.05004112096017 5.778220467048383 0.2846985101595032 -0.05051549225104849 -0.2358534636323422
Ni 8.361775727507212 5.9180955657046415 6.1184894518752895 -0.44267608724997315 2.392269566682022 -0.45111521915626174
Ni 2.8578051920297236 4.377199944299238 2.281097569713864 -0.5627432624479147 -2.106342069211424 2.5980766045509447
Ni 6.031124440259282 3.500171653387772 1.744504372774539 0.7907036964854253 -0.1543654342591793 -0.6567435653554755
Ni 3.249561479497013 7.154796815919686 10.951051488304712 0.8922419596412441 1.3723689926488236 -0.43165171111501144
Ni 2.5081454413124327 3.844092239817488 4.765322360915175 0.5806556239519612 0.08289416569207013 -0.5403070449315857
Ni 5.372315039917971 5.7881198255463655 1.0154522675405402 -0.040893395780252154 0.7530671170795741 1.3590465645083045
Ni 5.355760117241291 0.8516733163271726 9.197887043239328 1.150695420061289 0.01879476410899989 0.6191082715012047
Ni 0.6911017647327309 9.296503616451316 8.829577341581032 -0.6611704907785775 -1.127495070685426 -1.3223548655142259
Ni 7.343545331172507 4.073892110681757 4.392000455779065 1.237257778633566 0.7681618066291673 1.397650907144064
Ni 1.3439256366609518 2.1647101175541863 9.374707428748444 0.4818499292359572 1.395927239584738 -0.12504997312451366
Ni 3.8794790869369726 8.406018618381019 1.366921488103946 1.0221744576690397 0.9676526724720754 -1.355174740257724
Ni 2.4391448222192187 0.7144858263129008 2.403544272884798 -1.5570487616208282 -2.0512818950124867 -1.8147843700382422
Ni 1.4152032575202935 3.2437756553371817 11.960084290620173 -0.08074472344923513 -0.8525855215918865 -0.5484888094114295
Ni 8.420959109477614 8.71859310262868 11.186724903888653 -0.49613240729690045 1.2977378382964941 0.8340473535783829
Ni 1.9310934691393191 3.328537979278711 7.087149333121917 0.9933030260503279 0.4713693414196076 0.5316344568582522
Ni 5.212962244186874 3.306738486960379 5.730922287739207 0.10489329567098066 -1.9119149910446684 1.0587918517817572
Ni 0.9862870477877647 7.329398057904274 4.898736000461325 -1.1300733729355636 -0.4969759862441183 -0.844328680899733
Ni 5.703833432301855 7.65605449159901 10.512811702897848 0.52799917409851 -0.2571679088394023 0.37448657475792924
P 6.275706158654474 2.7748999310040112 7.995520926623101 -0.4579929201127016 -1.9328455705497485 2.0501657791301726
P 7.242881322765894 5.624688956980033 10.427310286579772 -0.8130692086648191 -0.5575126101765948 1.3693762285690867
P 5.59648773018808 6.075059375976194 3.3303819774302954 -0.1985354439081742 1.8057973360482837 -0.7223941134757493
P 6.419101278073778 2.521798119934745 3.6674547610076176 -0.5902818341878157 -3.0990267449514626 -1.0528423190665417
P 0.24111395668907443 7.278893412173617 7.740520991950431 0.3551547071985367 0.24663075675350432 0.6297564952436703
P 1.1248482044412738 3.3430585315249974 0.5220297176105628 -0.17360011411907522 -0.14147675122196923 0.2538799821167499
P 5.646889724199773 6.9666082191339465 8.419760883958062 -0.773697391735416 0.6058688899927952 -0.48419143288494026
P 8.021727910474802 7.9686663037444765 4.96294371747633 0.37921791879532757 -0.5663536055069923 -0.2410614901958429
