# total energy = -340872.0565592016 ev
CRYSTAL
PRIMVEC
9.27201687754937 0.00000000000000 0.00000000000000

0.00000000000000 9.27201687754937 0.00000000000000

0.00000000000000 0.00000000000000 13.57053393012445

PRIMCOORD
 96 1
Ni 2.043765822170034 8.798420997378827 8.454782427335392 -0.44508855334620767 -0.12531633941202286 0.7697060111878357
Ni 6.795275882063008 0.8249805018411209 11.965221873833007 0.37159254103958583 -0.6776602609034845 -1.2100426516713547
Ni 8.04541267376516 3.8529496120616673 8.345688801502016 -0.34081540775772917 0.37923411674524365 0.26926469210293624
Ni 4.277839795032327 8.52521174191972 10.024241924272673 -0.2313856576689757 -0.4842030028491661 -0.19220744480761737
Ni 4.357300981460228 0.8679776266745055 1.87244861687353 0.8390059831352388 0.5058159531332515 1.1540157426837738
Ni 9.000792042300105 5.300320751219398 13.387467701090815 -0.7849030306432482 -0.6447380562541669 1.2818584480620765
Ni 6.665560363028431 6.274828291002973 12.782072671093031 -2.2467207022732083 -1.6407584812356582 0.644615928854006
Ni 7.98538563514973 7.0080779462061535 11.089134941014995 0.3828290331853536 2.416101378994297 0.09662514212491746
Ni 4.114151605394269 3.0560661035965633 1.0610284400208343 -2.898072921409783 2.9021926000051117 3.313975340110338
Ni 2.8764115005362356 6.703788889474432 2.6368902647560684 -0.731011165720799 -0.9219888518863735 -0.17998904836455454
Ni 8.1748871203555 7.789708986564618 4.471369044460299 0.006938636101362244 -0.3838492469197518 0.3990904893495385
Ni 0.14459247044922988 0.9738214105192031 7.687653748901301 -1.1011510334742585 0.10032495957400786 0.940758933405025
Ni 5.034677461702553 1.6141561825025474 9.571813850556287 0.2552935746348249 -1.3680500535584956 -0.7741900151011183
Ni 8.138262652865393 4.811175489842046 10.929477297204265 -0.07070302294251694 -1.8536144555315626 -0.2689934407194206
Ni 0.558314508839679 0.24640199965976425 5.252610660101148 0.714327534417531 -0.30024802785832805 -0.2527618093519066
Ni 1.8494336160624056 3.7072213195193897 5.326896206591585 -0.014573526938800707 -0.3408202928537356 0.139980626292417
Ni 5.375739338197758 8.34321131853661 6.32863195175021 1.722268364985692 0.35869203092783386 -0.4251100533417517
Ni 8.379158928779429 7.472782170544539 13.424121839035596 0.934076636288843 2.697206258265271 1.38343887730974
Ni 6.6932651500817055 2.819314419320015 10.554578121555037 3.1285589500826245 -0.15323363464758125 -0.2387706372791372
Ni 2.7978960598511176 3.2668097799465934 8.865209190853442 0.7094432097420362 -0.5731487740519549 0.3159384420103914
Ni 9.055979087996588 2.0286431623026 1.730649805172343 -0.1042471774465495 0.616151502865726 0.29866782785540175
Ni 8.490339685658888 2.440042560412981 5.8827313780624415 1.8742670987849077 0.4278572770695857 0.5636850575358937
Ni 6.32101220810885 8.687963457832083 8.775562693656457 0.8701901220475272 -0.015538719065547433 0.10584049007559837
Ni 3.176416885374178 5.1973271854269685 7.022697135545811 -0.40970606008185567 -0.03727893895611645 -1.0872750468231147
P 8.673851447827035 4.628322040887013 2.075952702282731 0.3980329946193016 -0.44381482884010665 -0.2736224548509998
P 3.0035772148721356 5.214647313343808 10.709254837787114 0.03167110585103578 -1.5079967412891835 0.6146857169534768
P 8.003929669321936 0.43274450864429775 0.17368527846029458 1.5611728110915308 0.8696615032375667 0.2952983971625366
P 6.055164934216112 8.123751946125642 11.542974215731885 -0.5874047697503367 -0.6039048242878889 -0.42727363665197376
P 4.277969603271533 0.9308548833422028 5.715813744873293 -0.8643064095732406 -0.3320124647541185 -0.21721219438207104
P 0.9322642299392905 1.9828486699143384 3.73409533384175 -0.49512839151241816 0.6801542309699319 0.5360166450863477
P 6.933466024714284 5.936464571479824 4.855496658715325 0.2192125126415515 -0.11274338784301874 0.2024733455099997
P 1.106772863516831 7.9550105071756585 3.5962324933936136 -0.4908097095324063 -0.30648989500298185 -0.3520552423376066
Ni 1.2648236667665391 5.143391862037109 8.809325816673791 -0.963810673018166 0.44584240079309667 -0.36663185460020087
Ni 2.7903208218917714 8.209425384001232 6.1896833581012904 0.49940002230457864 -0.05414871812826158 -0.6080353015164948
Ni 3.3104068042854493 8.572415580905071 0.5910929436424698 0.3289500237787109 0.33614936974062753 -0.32174604983110394
Ni 6.74492882928547 1.444163021245939 1.7241232323454352 0.09351770684418732 1.1168710153126764 0.9587983074052391
Ni 4.559774018569454 3.3922416270873925 10.782128256075337 -0.9313206708102606 1.636281419300911 -0.11865846777587305
Ni 3.1952390800589665 8.735130208749089 3.5364001671369927 -1.3558288289019553 2.360002736228516 0.04740085788146675
Ni 2.2498642179599266 1.4970691507392415 6.679593560888247 0.23150495685565933 0.4984114331390642 -0.32777708651653226
Ni 7.8723133867847075 8.652294008101846 2.249370019449237 -0.019678195155217723 -0.6848629492995109 -0.8337506482735705
Ni 3.753275428386062 4.410170022885186 12.605058738498828 0.602335165807924 1.2748951293703659 0.44992222728942516
Ni 6.91089793512671 5.974832178182117 1.8408838891073103 0.7165170858696822 2.117097765066031 0.351474173023156
Ni 5.897271755256867 9.064722600108784 0.4536250911222012 -0.3334628240473999 -2.110303367852017 -1.9891604430913936
Ni 0.46152855848639524 6.684948150755471 1.7694615414930606 -0.23159931634167855 -0.45214623152393746 0.9661215805395298
Ni 7.097005862078965 4.139482756073502 6.064332177509141 -1.3956714148201899 -1.0482181900309688 0.7792332339519806
Ni 9.016535927312308 8.231956385520462 9.359733149342441 0.4309451719662901 0.43158640509471474 -0.7630196003065957
Ni 8.029149555796137 1.2801410389927808 3.8898578032746083 0.35266382245588296 -0.47738469437575204 -0.7348207692748765
Ni 5.997437355838035 2.0229779598629913 4.954873210642467 -0.2811974389847802 1.406726644193087 1.5996807373587416
Ni 0.33929370283688504 0.9903070568982939 11.075265857857602 -0.29375496393481665 -1.5729530915559102 -0.2197670995934409
Ni 5.730718512339203 0.10770560487558715 3.842374876574967 0.36228874714015674 -0.960611449354578 -0.4183565366680021
Ni 1.5924596625210672 3.7780595300572153 0.512768506509325 -1.0803248407575265 -0.6363236069382268 -0.7994963550763908
Ni 3.083603994342289 1.891686197923776 4.078501626899912 0.9316757401568341 -0.04682133122891291 0.3047698269880816
Ni 5.851505078919864 5.6187218179561675 10.466979812932372 2.264653632602545 0.37454776701316783 1.658167420740725
Ni 1.1019050545466271 8.916249790509019 0.9160419088454451 -1.598533768238492 -1.3680886201059148 0.3725628753726552
Ni 5.362016752910326 2.292645304795205 13.214212644223315 1.9684044414909647 -1.7954013375259403 -2.9461463798782423
Ni 1.2259831871928546 6.335077858028469 5.248213869598917 1.2530407524994354 0.5252054134034567 -1.012361842453992
P 2.8450813548022946 1.1818205698117468 9.713001636331501 -0.060268200762438134 -0.20033341634886143 0.9385390429355708
P 3.120033749473587 5.1638737477803085 0.8724541565236759 0.10803492662375587 0.22818926221886507 2.9852320330257944
P 5.676736828863913 3.7104294374311815 8.757350597695932 0.08025595673827468 0.27120973164444906 -0.8450077092446285
P 7.9222339267762845 0.970288772009398 9.570008588829625 -0.08630627669741266 0.28536005500290207 -0.36799839593042427
P 4.282040018772332 7.473357035603876 7.936672311782764 -0.2586794603879223 -0.6461524201031904 0.6987057687198742
P 3.373660504846842 1.3699868845571168 13.381130277412463 -1.4360194796199333 -0.5741833859640563 -0.45855702014628774
P 1.1439629240491893 3.346057709981514 7.398491988045556 -1.0911535559419143 0.02775248752291995 0.07463603944833598
P 0.7227222070036192 7.8832914550146524 12.06444914628506 -0.21404536661831525 0.5421698091719371 -0.8889496620432173
Ni 6.005958339540164 6.052151528663129 7.586077874521337 1.0843712429127583 -0.3558849004963419 -0.1195930637750005
Ni 4.753726071976553 5.118199791614167 2.8544803985224774 -0.10824498575203294 -1.0927597240867697 -0.4665837471055061
Ni 4.092974318369611 0.43061287191620273 7.860690913367278 0.37578343919248186 0.309207551044461 -0.4104347107177641
Ni 5.055205707531185 4.599671508090955 5.284257908819434 -0.24979681318631172 0.5658082745264835 -0.1984228295897099
Ni 2.1249237877246916 1.543549772391875 1.9175032022983205 -0.1729228855463925 0.566336893336444 -0.5402453384557148
Ni 8.782593664212849 5.376564547718421 6.505252750819965 1.5245379334773164 1.3179505657989432 1.3743178888450782
Ni 4.198628953065751 7.004322779286282 11.894668314219723 0.41582914226045803 -0.43364894405069837 0.019131064402496085
Ni 6.98950609598269 3.752005162045266 3.681142844263017 0.19055808212965247 1.173031107444012 -0.7359965347505324
Ni 1.9586487053196102 6.93440249843998 10.381513141037804 -0.6229379296599401 1.647056655539544 0.4206106228095014
Ni 4.658103759767575 7.310985472392044 4.3473474711182964 0.8357463385473606 -2.7865078701455817 0.22400916269924645
Ni 9.183339514691296 4.542092281986257 4.252707065518737 -0.7998097725517516 -0.012974557882797012 -0.6838558481912352
Ni 2.409426359994669 2.7006140565837273 11.570360045397399 -0.7140133456112219 -0.8246132047486766 -0.07167078617242495
Ni 4.259249400774691 5.513753312524398 9.08320636616993 -2.05124847067139 -0.05946370258327179 -1.7867722010960323
Ni 0.9112584752307247 1.541760273094257 13.278971193157783 0.37260812678829375 0.44727887612930706 -0.6664484513480652
Ni 2.6186308815084063 8.976239741056105 11.692697820436564 -0.7230163204407807 1.1720929119004588 0.3892938149740908
Ni 2.2733038771535945 6.71385830002994 13.186786944884332 -1.2037575899935913 -0.4589645399973515 -0.20312357749948887
Ni 7.917588646216147 7.597129191686263 6.9712652567691995 0.37322236333352493 0.7727661381703982 0.22283442566485492
Ni 4.5545260568987205 2.8291056693629395 6.941219285401683 -0.3078451234792956 0.9102103711942066 0.38235466465209633
Ni 0.4968883228459568 2.941584508634452 9.901116027781187 -0.3930987905424778 0.7001820961550844 -0.4800804960403603
Ni 1.9788987906356588 4.388158254322779 2.814325146925983 0.26915619154953 -0.45291987646516835 0.30708870492924534
Ni 4.68921137709145 6.663650327508693 0.8700248880471169 0.13697937757224796 -0.9990144746128085 -1.367294920560026
Ni 6.576697351275221 1.6293344744724976 7.475111301236567 0.5425768148023687 -0.25641663249567453 0.7925723742630478
Ni 7.903485908228185 2.6981847881071683 12.825796722065967 1.2629698386876895 0.4692661790336757 0.28743287837153075
Ni 6.596938164574183 3.8314199883877365 1.1874041785009979 0.18999655319922765 -0.30627700766122734 -0.579507369280131
P 5.4733644060973345 7.944588759970879 2.2665779559593355 0.5057403627003098 0.18826748632326287 1.1917806201373733
P 6.2144118276699265 4.1039894746679 12.44481788481338 0.10283409914910677 0.835468916516258 -0.7922167906958419
P 0.5491426295381062 4.086428274306821 11.940957005118674 1.3150187368641288 -2.5375273822129785 -0.32927526832861354
P 7.63203833601544 0.4385079944650192 5.9568945339273425 0.17625246414025775 -0.9209131023236914 -0.35374908510026176
P 0.9673217265418451 7.3935527845437905 7.1512508708395 -0.982072190331515 -0.4533626204295418 0.5436985871116378
P 5.3278679139822085 2.631593161394778 2.8868870254401147 -0.6574884139412999 0.42204401282191834 0.3047585141341719
P 8.156417262319984 6.161236809681128 9.111012218209444 -0.4543632937799143 -0.6908479632383522 -1.558751860354864
P 3.2156282456313066 5.33069587919347 4.667571416414194 -1.0289511142712406 0.7687793856085082 -0.7072955672714142
