# total energy = -340867.5804200276 ev
CRYSTAL
PRIMVEC
9.24452012286374 0.00000000000000 0.00000000000000
0.00000000000000 9.24452012286374 0.00000000000000
0.00000000000000 0.00000000000000 13.53028965022322
PRIMCOORD
 96 1
Ni 1.8632052684095273 5.420117531395239 8.234967553326175 -1.1575425248901097 -0.5140586527580179 2.947617307996814
Ni 8.052152548461638 6.964164992015166 6.909851588228656 0.9219937369823799 1.1995232401972695 2.011893108802219
Ni 8.643219422423048 5.965229896536055 9.130699601104533 -0.2776086931922574 0.12336795743640044 0.5770733059173415
Ni 3.6100682528707253 6.5423930124475405 0.5208556691652886 0.06853326898470778 -0.9335076511592504 -1.745772104534587
Ni 6.1754040582814085 2.1076211321608085 13.257464413601543 0.4231961241484905 -0.9200618100669895 -0.6822568791352315
Ni 7.684692123776526 4.661502977316269 6.178471390010773 0.6726355539953836 0.6516913476435485 -0.8754655115138535
Ni 4.201209082991974 2.899571425287667 4.317244448876966 1.6420484036916752 0.35929726861200056 0.3176227716913497
Ni 2.708274573341479 1.2281159903033478 5.155297163144097 -1.8877543346380647 -1.6187948324803734 -1.746081922465522
Ni 0.5764614568450025 2.070938876880159 3.7907135688959546 0.4104077141345706 -2.2786396624689917 -0.15124771456580405
Ni 8.65768709619175 6.743331898732871 4.481556547001528 -0.4205915966461079 -0.22967587406672058 0.3427547908722871
Ni 1.0024295240315513 0.8874073575363666 1.380062618502658 -1.4945233893930971 1.0294262541354464 -0.14516628425841452
Ni 0.33007651033798074 7.675410625716604 11.804175952337287 -1.097464842871923 -1.184071938639206 -1.0021962147748997
Ni 1.3185273957077706 1.6697359542680388 7.094891749052379 2.676821523961332 -1.8411762297682095 1.7419637865320905
Ni 6.563803320721226 4.471158310928021 8.560979248228948 1.0346306811545216 -1.3694309930664224 -0.35145180442565277
Ni 4.30866738323952 0.9623637744382213 3.0614984372573875 1.293968858172365 -0.5137007551979669 -0.9468640178614983
Ni 5.187802744297781 8.620182078632881 9.98735598737942 1.2780647853475988 0.9164023589375314 -0.15461585970708855
Ni 1.080804564422011 4.594212116381832 10.362104791616765 -2.2619935692718784 -0.9139559542795679 0.8337383069783963
Ni 5.417113062401738 5.916095272842344 9.753416938121475 -1.0372056409705492 0.2577528348085948 0.08658498428009605
Ni 0.7099550987122301 3.8003759411790528 2.19484317817213 1.4835267811722774 1.0704600321483049 -1.6173151626110533
Ni 0.9577877370481201 0.5922603414908265 12.391080018951701 0.6482895210508511 1.4238234517743735 0.45415631997543077
Ni 8.307199610189922 5.618393995926329 2.3178470632180495 0.31414638310697507 -0.0015825139957714683 -0.8210059470133925
Ni 7.266377594681423 0.3267641988291459 6.441757167945235 0.31862704458614804 -0.2850270971435156 -0.4792675132207617
Ni 2.9302909651812143 6.332292806862028 6.674640493021464 2.5869267585817126 0.5435998567502444 -1.529381891833179
Ni 2.665084175994908 8.629713178732263 10.516687956914375 -1.0897523047190134 0.793638353633717 0.5180032392280628
P 8.285567433436716 3.5945282147843414 9.785023951933102 -1.1651043963977676 1.3602986917478508 0.2854796112999019
P 6.630215952257562 6.895478208563749 5.48095756628763 -2.3168310859370487 -1.7853385539732998 0.44327643983813336
P 6.831395196062373 7.4390929614678045 8.90272788949368 1.1711467459371054 -1.0538699890001075 0.6778461516620454
P 5.748159322885621 5.358909564607644 12.282540109866494 -0.08254295300023848 1.5284313549944515 -0.27442335348574026
P 8.722851717530787 6.300232811571379 0.27301563521341443 -1.6163746530746548 0.31410318857386554 -0.9905761140374681
P 1.8473046940439233 6.683214785302916 10.282194236457629 -0.5909387510455242 -1.2756399779561902 -1.2704687181678957
P 2.429413628144709 2.860531817412117 10.971034851535531 1.1564310369934858 -0.7327559163260478 2.136340415345727
P 0.11540119181436494 -0.0873357536070759 5.933424125544858 -0.25609730148304277 0.025613843913362338 0.03117179761711406
Ni 6.485751838530066 1.4772095811645103 10.337776912837393 0.6096540680668403 -1.1782761578930352 0.8485864277348225
Ni 3.637931236090452 2.4276849029084486 6.7372989249939215 0.414333531551538 2.46966491404305 2.546162175069841
Ni 1.8010081379840714 5.8051332995223754 12.329164846385636 0.33505150869075845 0.04732706722073785 0.8679154670807375
Ni 2.3081902376469388 2.964578889787043 8.858537235085272 0.3191854881927793 -0.20506733148942102 -1.485553324684003
Ni 6.864962048109761 4.382355452000119 0.3781433919740028 0.4816339565704092 0.2895581522446497 0.3458830520886237
Ni 7.9343126522765495 1.5920357638361193 8.4291135663302 1.1619725356370052 0.48756729133570864 0.02621393939120647
Ni 7.531140646908689 7.853737416130849 1.8633781409331531 0.5570248719068988 0.4560831046844984 1.5323512588741481
Ni 3.6642041618736187 0.702182306313044 8.692304125708867 -0.8039528481858476 0.025736742644471802 -0.93241518942602
Ni 3.9239751733116837 0.9517140874212586 11.662825392939055 1.2556177691979924 0.22868908467341906 -0.8665525252949399
Ni 4.369977039746896 6.129615950820457 4.827499426981187 0.5214803991433857 0.06967278190578968 -1.1034969079986154
Ni 8.97343367610873 2.3626959274490327 6.071338496866522 -3.8737348373395797 0.1964947593290616 -2.6929037742351754
Ni 1.643065514125732 7.396115188080775 5.277530055223683 -1.3570673292947468 1.44207519889571 -1.9998793721707946
Ni 0.7405905134739597 3.6142190423417464 12.975885579530653 0.9502398763122666 -0.6664767334828393 0.7973391995240721
Ni 8.413899859799109 5.235291843435053 12.002083560521175 -0.219365493279648 0.37024425454180754 -0.5099148057929734
Ni 3.331308997393735 4.714779145961022 10.28665933960797 1.7280420342446756 1.0108148096818463 0.02128256352786012
Ni 5.339181758970319 4.765781162690695 6.320606809155307 -0.5050513070530851 0.05003983816621059 1.1095667683417794
Ni 2.7053163269478784 8.506446749318913 1.392131339336551 1.9505432449398277 2.1474915468665405 -0.23554955923867818
Ni 4.711099827008981 7.311795921343173 11.780308450652917 -2.2865244645337075 -0.23471755025568608 1.81901434895919
Ni 5.935222184680968 5.646303201745956 2.897240881800708 0.14535474612013677 0.7694949236182942 0.3829246782229534
Ni 3.035391912833861 6.549492803792182 2.699617080380207 0.5278071126923619 -0.5912053744433496 1.2009327189502865
Ni 6.508474868640912 2.7563738107974314 6.796440741565986 -0.1718412224464395 -1.0315006201659718 -0.7281603265355653
Ni 8.834664186688915 8.480968852254026 9.246775642877438 -2.418433626671899 0.13598024688377228 1.866632465057785
Ni 1.1101651598784983 7.9103508564883835 7.718421679375563 1.0950474916796817 -0.6476688567477168 -1.6569356052161528
Ni 0.7801653790563516 7.481590019815876 1.380333482938072 -1.021861297303995 -0.30808500740424355 0.6268377789349785
P 5.728450006288256 1.3855963881626874 8.2472525959276 -0.47297370979224995 -0.7401699494019317 -0.7184394997033756
P 1.7382470918398358 0.19257167125143027 3.3418190921589996 0.3683475517397269 -0.1268353471597106 -0.38610744682630926
P 6.118975508323475 9.250436472789518 11.99903934009176 -1.0099576038878735 -0.6295389799162255 0.7749860286398524
P 8.515783714498715 2.5976823808207112 1.2540052685073444 -0.019794151907791716 -0.08413755118086799 -1.731891747008069
P 2.2671075908558085 8.09805159016235 12.616020452461111 1.7286896951310033 -0.2804955278217492 1.9629688722976903
P 1.2518096950120938 0.4834412479022232 8.897708115144539 1.8964024972313664 0.9703908973388449 0.18199013795498334
P 1.0698313192057483 6.069508081910482 3.2244571376568767 -0.8630092880283718 -0.1318597969574955 0.25982282996374606
P 2.326845678966583 3.641481131762773 4.139876315184648 -1.5338792654829003 -0.10357226286671195 -3.1436220150633347
Ni 6.416695274279449 8.279872809129037 4.044920303758056 -1.0438902520795763 1.2129983918655691 -1.0762141610232625
Ni 6.855384725410479 7.012208762351238 11.167698147330112 2.408914888548187 0.9875892634950024 0.30910522113864186
Ni 0.5021105560018378 2.023163197623507 10.268447635247364 0.32626759185054127 0.28545467159923743 -0.2925105500047543
Ni 4.700283738632378 2.6984384040827565 9.714829387272948 -1.9329522713309424 0.415631167317039 -1.0657083763959323
Ni 6.055715258100318 6.906775011979312 0.490471705347015 0.1560731609789054 -1.7099700072343134 -1.6809579362726792
Ni 4.374284986057576 3.824217558207479 12.83299210974776 -0.8095583672980831 0.4865956714510588 0.2674839460534296
Ni 6.657062038279489 1.690591591342924 4.382691028075393 0.6853406602668777 0.3231403590754693 -0.29402492976675165
Ni 3.985025983259619 8.29741890805108 4.219894106775555 -1.3703871863321044 0.1734018820653401 0.37559523444107573
Ni 7.090509846581858 3.535252352672566 2.7459718769159327 0.5749439182791647 -0.18338521853029705 -0.66422264734134
Ni 4.498642268828568 4.0536942776710765 2.0282042343686024 -0.031218334584333332 -0.0001848623172964558 -0.6913989506458157
Ni 2.7419153815487074 2.465504234146638 2.2512375234061386 -1.0490923651058062 0.1354392867786377 -0.08646877041720592
Ni 7.9774660715432 8.723572790089227 13.2788423660553 -0.5381614593434926 0.20558180923199434 -0.6710273289679992
Ni 9.33299003621094 3.850037502511625 7.829559298575152 -0.4038760836636399 -0.5683726928195502 1.010294418402002
Ni 3.604170249123484 7.420169429068741 8.837240634407342 -1.146788371697399 -1.8911245366618785 -0.9072610587578955
Ni 2.9727418009293856 1.9907334215336592 13.35083683875556 -2.284504605890201 0.29914502460213643 0.3029191469325879
Ni 1.8175650732682558 3.9154424813701416 6.007421885724786 -0.18869917454404278 -0.15413737740877326 2.4201241270004448
Ni 7.186024227015242 1.1850827497964371 1.9998984386418335 -0.47750142245927446 -1.2769522690097104 0.09092269242350147
Ni 9.101544233991602 4.078839372016683 4.229731200486274 -0.6994660439246664 2.3578900607608877 1.9059718860873562
Ni 5.246070953731735 9.13388156488165 0.6643657484308485 0.02837829403237693 0.36007399887702507 -0.11940897278865241
Ni 6.134173499170598 3.6089958885530447 11.113157328352093 0.3529852103510437 2.2064435999207164 0.02490961875748613
Ni 8.502933831726512 9.046326716151048 3.6640026313380547 2.108587670712491 1.2312341981473054 0.5109478750431781
Ni 4.932164033290777 1.0009226672748108 5.736166407115564 1.1634581190435962 -2.361464151265391 0.23667544531300527
Ni 8.01741164237679 2.8090953082433847 12.041362601464206 1.4477899898923001 -0.942064796700642 -0.32032731510670637
Ni 5.467782276412131 8.269611391951234 7.551106036709499 -0.26484779398216324 0.753059146659774 -1.4702845714503905
P 0.5831544893105243 5.58397664804078 6.482808383368433 -1.0031976594562206 1.1798704989633486 -0.5827700991918028
P 5.1014404386446 7.606030503266687 2.332297172398791 -0.5786077402839972 0.38822809271373787 -0.30723731469196763
P 3.2534701391621157 8.538109230250422 6.354108025110837 1.0480636667309757 0.03704445434780717 0.6252187552743168
P 8.342791012112931 0.7083086497037916 11.199372646137594 0.26496709316884687 -1.6799945439181454 0.8713805428112026
P 6.0621956666063 3.898275407767277 4.549262486883066 1.3392079325158226 -0.05794649460779698 0.03244886455732476
P 2.3192281945030615 4.641433124439684 0.6688779986330877 1.2819921454264631 -0.6169498303973052 0.11220988393705192
P 4.647830332265846 1.9926747707294596 1.0935046859705382 -0.38319592960646903 0.4913403852248958 1.4623370344685396
P 4.083285986127064 5.076600413458333 7.994723741441868 0.18092441569463033 -0.44147461074270417 2.0693248685571266
