# total energy = -381168.64713294175 ev
CRYSTAL
PRIMVEC
9.20483671590412 0.00000000000000 0.00000000000000

0.00000000000000 9.20483671590412 0.00000000000000

0.00000000000000 0.00000000000000 13.47220897287484

PRIMCOORD
 96 1
Ni 5.021790574737123 1.0175118262372904 6.985649795634227 0.344767964647574 -0.6708411810991222 -0.0805878861563967
Ni 8.921695682708059 6.796087234709634 0.12729368329430246 -1.8265924184167641 -0.15125234255149433 -1.5873492123765822
Ni 0.4034222081478092 8.782527760390714 7.781669324262328 0.36708334031532264 0.5913796952376847 -0.6106971646193741
Ni 4.908626315396595 7.8958258649723785 12.981416081641756 1.008031076289122 -0.2410152103389398 1.436924507932706
Ni 8.080658980927948 2.5962977599699446 12.397678491269001 -0.3269677032413595 0.4282943646070043 -0.9510230343351943
Ni 3.9469786415863144 2.494013617315647 8.875423890347648 -0.7779849633671763 -1.8787691004203193 -1.9610613708623323
Ni 0.6376411126354935 3.948838018549612 1.4293610621568789 0.22486893959638046 0.4708731185094793 0.03225037539327349
Ni 2.15015774681583 1.2428554274179846 11.994132017829092 0.25736099868681483 -0.43404437971690407 -0.5274602708759045
Ni 1.4836539490015375 3.7941323323013414 5.335237347534209 0.26668767540437943 -0.5114520683731063 0.8427513091102841
Ni 3.3940993449351473 8.20084653048133 6.1183627412603885 -0.778230503719079 0.3468788403429897 -0.3910899876425652
Ni 4.465395030561303 3.047077010695853 12.064982564483554 1.5271260059194667 -1.5842451195299618 -0.6261698063336765
Ni 3.723126223910839 1.083243563340813 2.59954338530291 0.4408799145814988 1.6152490241106439 -1.1946921373572135
Ni 8.530572977027372 6.003909804816585 10.556499489636472 0.18102623137981724 0.7508569968021327 -0.24409642036742477
Ni 7.808453557370273 7.521612443853963 6.033542014322769 -0.8712046793549706 1.1214830601633912 0.8198656627613622
Ni 2.864361007124235 4.129887946723423 10.208902773602574 -0.09323359994486524 0.6096635811485371 1.3069650133217168
Ni 4.199697426375169 0.9037363657563522 -0.06558814165487185 -1.3952528392255326 1.1060674969392692 0.43141157007974734
Ni 0.1955631938076334 0.6248951756004496 13.417928756350753 0.18931521086148687 -0.35559385161848434 -0.36664239612316213
Ni 6.483527808146517 5.38970788772239 7.333071619775537 -0.2075224778981329 -0.08991096332953546 -0.7847449077988291
Ni 3.8220690109330717 5.769628307441028 6.442935399876973 0.3688170351769777 -0.11466374479418318 1.0371986989920137
Ni 8.954860708444508 5.449925927791183 5.6872385778103745 -0.21961746138945407 -0.16885308635239307 1.6041287458277664
Ni 7.342403482970545 3.4955918716545757 2.63880109228692 -2.611305187426077 2.603255320538407 0.8032769051647456
Ni 8.846869567189989 8.363928617900896 1.934609012103678 -1.9909198489846613 1.44183145831602 -1.3287111467495567
Ni 0.5292946646939274 5.001052078210832 3.6463210685555962 -0.2130146113609557 -0.4148328397854598 -1.677750227968659
Ni 5.119453889492531 9.000617950447255 4.432841205965263 3.1741158127768174 0.23520631696664654 1.0546063529454999
P 4.622263853375787 0.5091830175300167 11.271522900872746 -0.3119262355272047 -0.1452069076883628 1.011644504671993
Ni 5.67150475086302 8.116428975380307 1.9525538407667948 -1.2999284181899098 -1.1555961997970163 -0.4118562736556391
P 3.734116798634492 6.650724457460113 1.443775836040665 0.769758461692326 1.0897386778722586 -0.3031855132200972
Ni 6.513949792620281 1.2539012311603495 10.477592870119242 -2.4328624005027195 2.018179456031563 0.07674974335722912
P 1.0260631193011713 0.18963159719798348 10.205561417970507 -1.0501915117072558 1.4798025382431546 0.5703115617134759
P 4.956565103638458 2.9178042875643766 2.895338963719697 0.7375980749096974 0.01583233904656628 0.8001105916216221
P 1.6056824658453128 5.928476170092686 11.33637833754604 1.008088926110251 -0.8476011810034176 -1.976638913585615
Ni 5.190966263887891 5.120337553791921 2.3619343395499652 0.9893257865701349 -0.8699872620081016 0.2105905753004954
Ni 1.7588325347332008 3.9692451409636313 7.960849750152744 1.131053734570962 -0.7871535172403218 -2.321826482269111
Ni 2.1608169474272123 6.309206615419097 13.383076484092657 0.44945017274901305 1.740639411293712 -0.05590143915331018
Ni 5.9034942439620375 3.452099019419015 0.6641409162970718 1.798436267697522 -0.14512488949751778 -0.9268796043197715
Ni 2.284235394575235 3.0820093650310816 3.1889391886426894 1.0308316191234055 0.4297007580362277 2.0923688948607837
Ni 7.805342322649507 3.2247671735646946 6.151666760027264 0.19027037568590457 -0.11200342435320065 -0.8349438972507234
Ni 8.047714871266345 8.11836199103522 9.398819175359506 4.3807728358053915 -2.133236836719739 -1.534418940036454
Ni 3.375349093082483 1.6139115896333744 5.497186319586535 -0.11190906486718145 0.5362480443708636 -0.3390896833158741
Ni 6.753247925862162 7.178161586158033 11.696948350075347 0.5370918804283975 0.15927495574565476 0.9236479847563512
Ni 1.1658845850066057 5.691065028323457 9.080807724165886 -0.15907003882370024 1.5516872401985986 2.182437981034738
Ni 4.473596539840009 6.442253321495881 4.051537299327895 -0.1358689181168886 1.0667404172048724 0.8028218199051981
Ni 3.7758239125983715 6.468708021458845 9.83591175476498 0.22744929872904696 -0.04639812764856525 -1.3803286138155324
Ni 6.6380309879928445 4.8323918599013735 4.585198738434636 -0.12298871972011079 -0.13583266556231446 0.41095844443171803
Ni 8.215473015603513 2.1301556372056982 1.298595314552893 0.8626220798922822 -1.5483957139315205 -0.9882119846806657
Ni 1.2209571214987465 1.558516883865415 2.246288456301986 -1.2196552350604544 -2.1519732367869775 -2.441198688282557
Ni 6.293116561301052 6.129896401334707 0.599692333394954 0.13903626010127668 0.018383901823826404 -1.6660319110904662
Ni 6.927440250879255 2.041669544392904 8.119390171266906 -1.8445677719482618 2.6307208729485274 -1.1054100658609285
Ni 8.424790996521326 4.304227549123748 8.12226023927263 0.33605346759271154 -0.15052574879811495 0.5391793590850457
Ni 3.1278770650712517 7.985545405869737 11.770425957053202 0.00786346190847678 0.5140396265946243 -1.6005999067389014
Ni 3.193857332758977 8.60566603280255 3.8160978335266784 -2.1002403271890606 -2.3568353942441282 -0.005003109641546222
Ni 6.851997411318904 7.346223490098113 3.745422178764803 -1.7485720358772274 -0.13443784209731685 1.7568206490392648
Ni 1.15763705154564 6.759810974252417 1.7831949753706318 1.4861544486031115 -0.7839054426166693 3.211303477570708
Ni 0.8822743690849374 7.85028953904448 11.68431195059408 -1.4792065565303687 0.8970067280197389 0.40529276150550847
Ni 9.093789305014102 7.2926421371111925 4.069806138234121 0.06376515817210308 -1.3934751784998194 -2.2204432566339176
Ni 2.85658292032232 5.174959053297915 2.7429280431989023 -0.8193434717093051 0.9581475611951177 -0.1121090966931295
P 2.906813712840724 0.6195278354653057 7.546848423470685 -1.5690869237322849 1.1696452216909146 -1.3822877944244323
Ni 4.727198988928253 5.7168109558796205 11.741918578561448 0.17636919222378014 0.00030287595239947843 0.8717260990760793
P 6.670726567070245 -0.027831743496178535 7.87551631382475 0.8441237639777786 -0.7091842996536948 -0.34168135530245025
Ni 7.792998636967415 0.23864919227201775 3.72770655052934 0.08472684802543473 1.3448687303460256 0.6687490744567838
P 7.930887087017935 4.50373317438376 0.44702367745350396 -0.9876005763489122 0.06408526051568317 0.33035436032540527
P 3.923405055432817 4.72498982817978 8.386153695514178 0.3663212653383175 0.2573622842383954 -0.7061210873473388
P 7.22219752374426 8.494572861663716 0.2208313903519381 0.6098895811164142 -1.364269760580457 -0.1977610276359949
Ni 5.330391921625891 3.7561163577547023 9.86653348418975 1.669722472568176 -0.10978739053848834 1.3888402508309696
Ni 3.74433416709618 3.388042562549751 1.1524225116955986 -2.0294223759352343 -0.9247106216929107 -0.020780169970144858
Ni 8.469029440509496 1.1911242465579093 9.284614769499905 2.8669872557485725 0.40369199267729183 1.0876105757856627
Ni 8.948177997180379 2.6497134259007304 3.8007386434229207 0.6116160768892176 -0.312338640474275 1.435782681018779
Ni 6.077631339960418 8.151260076514564 9.73845370786245 -4.823765168744202 0.28609641894829435 1.0847656501376997
Ni 3.8636932813688833 4.084526512688112 4.918178174182805 0.05464956902408008 -0.584634148983735 -2.219241523016333
Ni 6.377294790654324 1.1524639334596327 13.280701213557483 1.4109496811354991 0.2965438395338635 -2.455626433672113
Ni 0.4388424188149924 3.8886660026630797 10.152521309366962 -1.0979009019680768 -1.586772771047822 0.5171856284227738
Ni 7.987800590800469 9.140200090404939 11.422142560219987 1.3570326194020694 0.30019943400857974 2.0346584275231927
Ni 0.279745105095486 4.586493858923429 12.337390494443174 0.4418571908931036 -0.41595641186694166 1.8175575619080053
Ni 1.6912230109934763 2.1558187212337923 9.392824065378337 -0.18683358209021372 -2.1139864731305593 -0.03223237767114449
Ni 3.9315605405292633 -0.04246927442210231 9.223814983767348 0.2694518684130779 0.1647696603116388 1.3628373990093046
Ni 6.132630237760944 1.0726303869116909 1.9764136973339483 -0.0452717273536059 1.7253387763808996 2.198957833066632
Ni 1.2277963149825606 1.022371979883931 4.716391590449994 -0.07386085184520828 1.8592413148000366 -0.7987664188889017
Ni 1.9786256195333567 7.862771297273351 9.215341011329665 0.6098430441491949 -0.01724310335116385 0.4896858803406083
Ni 7.8980902547395635 6.080991105265388 2.3434906087511513 0.919558645178326 -2.00702832451075 -0.8933030539159067
Ni 8.1360168673501 0.7777009836050341 6.193268938855591 -0.8678136513955506 -0.06325556552553623 -0.19477366287289682
Ni 1.627912145876822 6.675632744899145 7.212063919294287 0.6300997375157019 0.2781488819664435 -2.0039622839909166
Ni 4.961885499107697 7.695335322212006 7.643376781891566 1.2780881823863666 -0.8041708777339248 0.18186132568660293
Ni 2.5220975733306092 8.740728598062315 0.8624140139561653 -0.3134380441860409 -0.6600523180137342 0.6060342119260659
Ni 6.9268971655285885 4.899863311094318 11.795699676499378 0.03463867311979196 -2.2140998309143933 1.2230413779238678
Ni 0.871646464917492 1.9987381871809127 6.8297631288691685 0.5603269396969381 -0.2249018497168449 1.1335309924668606
Ni 2.979255775717733 4.463526448761552 12.676337425663155 -1.358869672610808 -0.6192185718268239 -0.6567150261103851
Ni 6.1198263102562525 1.9050421569363032 4.640340311200167 0.08196085524452336 1.0588268187847505 -0.38194791613198087
Ni 2.1424440938690785 6.38918743935027 4.771465967909425 0.041546198872902645 -0.47582891985285797 -0.021688026496394907
P 1.3166137819076256 8.795966821610591 3.1509471466708256 -1.2247038532279553 -0.45355365339442527 -1.2074208977777916
Ni 6.195536090073711 5.755821052763071 9.62049096727951 0.5008727501953633 1.7171930073453137 0.00855997375486913
P 8.685425940658874 6.541122469826497 7.758200673244384 -0.09802227958276022 -0.580919162025993 0.8784976134719581
Ni 5.336200173427085 3.291640310388262 6.464275892707221 0.05420913905255179 0.48286088699897484 0.8203192053590129
P 5.82989237169208 6.578935937971194 5.707190981303666 -0.385591169311523 0.7340890333151745 -0.5684958486609758
P 7.488613105173648 3.401739359190283 10.18434334946507 0.48237623405307245 -0.6439798379319038 -0.16376178787241477
P 1.77302639254214 2.8184656925747094 -0.049997910156169126 -0.1282913628799468 -0.652027905047361 0.3414111323601991
Ni 0.9371536040115865 8.259343266133605 5.578262519055493 0.8857285840027584 0.4806363685438303 1.957135810555681
