# total energy = -381165.2835864362 ev
CRYSTAL
PRIMVEC
9.25193511124389 0.00000000000000 0.00000000000000

0.00000000000000 9.25193511124389 0.00000000000000

0.00000000000000 0.00000000000000 13.54114223524352

PRIMCOORD
 96 1
Ni 3.887339189883045 7.369166076997954 9.881850942268857 -0.1563169015585953 0.5895220732036557 1.758896300621371
Ni 2.2896688270376067 5.172229392571459 6.838669386867401 2.5704233616100507 -1.1372056131049706 -0.8934228673232226
Ni 8.697660648450826 6.188822737674357 13.089355186655816 1.342710289242126 -1.7712859325349752 0.8754071474720925
Ni 2.413237668373934 6.935083799533309 0.004054197834200256 -0.8046239061109433 -0.7016591949212432 1.4907878336100648
Ni 0.109685387958872 1.280597304936089 4.336929560477965 0.6976022512430501 2.1005231485368014 3.0166046337998047
Ni 4.770380855988497 2.1902105278188646 0.768425922085774 -0.8817796266573394 -0.040616487969781664 -0.6724604618700999
Ni 7.282586471036188 8.216754328907479 5.52394632038077 0.5820453052106362 0.09129961614694598 -0.8218590390423071
Ni 6.4067983218225955 7.814036110452279 3.3288054365010984 -0.6793990979714623 2.2046713385116417 0.1433084051140693
Ni 4.391347590649574 4.252966401680762 10.742905385295858 1.8428639018832778 0.2900929417021972 -1.3509861560976733
Ni 0.4785128440077304 0.7850803299391375 9.059200355449025 0.34709352745695704 0.08173845482107214 -0.1524497052937052
Ni 6.397185561553919 6.159466348518909 7.2300891425313525 0.6445089709624965 0.6796135279751134 0.290248493443455
Ni 7.293124424785969 4.749508491054778 10.423009562075658 -0.5288985459843278 -1.3215704219397175 0.6860258592593604
Ni 8.33912967065318 3.2982592485289497 12.337727077412977 -0.5387574410562785 2.3712929644303546 -1.8332502900529137
Ni 6.668563313431513 0.8799968543591371 1.2213405128583028 -0.14485569499653117 -0.9219993934093347 1.7837172163197927
Ni 4.676445961851949 7.326977254259585 1.0877703299912351 1.8174765721584247 0.5022336350986318 -0.04995679153410106
Ni 2.3062205384145673 0.872680424310562 4.904032455881903 0.143233843122392 -0.8612910197856845 -2.903849933102876
Ni 0.3113128032959924 2.1853162543038214 7.0614208197651 -1.6545493643721632 -1.043347492202229 -0.01821909411118798
Ni 8.644212221047415 5.676052754641768 8.553817117169574 0.2826632248970293 -0.8980631943087114 -0.8260977597140031
Ni 8.598405891797928 2.19246799991276 0.5478866268013949 0.35309602489729514 -0.4262359394160788 2.551891107133818
Ni 7.1316133987895425 1.1870972517356604 12.496713250399466 1.2077052617874298 -0.26613257423185777 -0.7441829272160667
Ni 7.576205874199536 5.059189253050102 2.4951718778670737 0.3478167787762268 -0.7009256591893284 1.1258235965202739
Ni 0.5329493780489615 9.114164249774486 6.500668452415466 0.1531801557018265 0.5947208437957757 -0.6301689001907405
Ni 3.544073904523625 6.165868687408152 4.651409301059778 -0.2587725343223608 -0.4996455626564815 0.4147901594729825
Ni 1.349764769583467 3.6959166586425085 8.443145472959845 -0.6833141167551522 -0.5183403108525073 -0.9653916443520405
P 4.6828390488063825 0.6637227010226502 2.6175842273520202 0.507844553527506 1.2921495455754393 -0.5658926067101738
Ni 2.441918666288176 8.946759741303422 10.900538000219493 -0.3844022912097444 1.1545834422617858 -0.19268387022340366
P 0.4843202834886238 8.052708272772826 0.975819143197138 0.6515486514180971 -0.3386906481052425 1.1989773949961287
Ni 5.816339842181655 2.8160299023076223 2.6745243349531207 1.4224756794972275 -1.0249515061935446 0.9875833499577313
P 7.738910399786587 7.130789976591359 9.958561509367682 -0.14106383205426673 0.2908334194126475 -0.06938584679299017
P 3.7924976061350146 4.0536982297204585 8.607819735468167 -1.1938002216705632 0.30160428477590634 -1.429352866233035
P 8.085090044611487 2.358068381095668 2.7714244741966088 -0.6199029994883581 -0.37548339145355986 -0.5669372459246043
Ni 2.690638429813519 1.7676839169332155 6.811573245386291 -2.7615553139653017 -0.98610110898525 3.0902767666729747
Ni 7.092560981952119 0.7277710701390766 6.713955156001466 0.11617555345301928 1.9513986509615875 1.5044018248490736
Ni 4.148974654404609 0.7631060595694227 9.648700334643541 0.6337843854561407 -0.3791150746688761 -0.6826348312999405
Ni 6.892487891663254 0.986080464096069 4.2593798428917795 -0.5922255881777478 0.8798520706173235 -0.21943362751342207
Ni 4.025738882721479 5.878975440852434 12.382453705870015 0.15410729550178623 0.08589078642654885 -0.3061613080189695
Ni 0.5260594621951757 1.0956696319329062 12.141664700864698 -1.470425210793313 0.8015452671856196 -0.46558358797576593
Ni 6.330682654132121 5.959522785317398 12.41602157575145 0.027772027906945718 -0.8167651694591677 0.3148547220279094
Ni 5.7476349742748285 6.237571182193757 9.583688839113286 0.5365941148563727 -1.3162873191639073 0.29847730911115045
Ni 4.681830587911978 2.322124614354755 7.152119387104745 2.7744424543406154 0.5440361729567147 1.2346871896929124
Ni 2.309680762033899 5.5290950221031165 9.203954277115685 0.21437626759517275 1.6700834554520207 1.6353190553876416
Ni 2.736944363542803 2.71993005542529 9.954377784446127 0.1592209625792677 -1.6166942411976029 -0.7367480682045764
Ni 5.793515319002804 3.179112832032302 5.023736764047656 -0.8126742872192455 -0.9055268496756083 -1.4488698532200401
Ni 4.409176069030459 4.419084891213089 3.360856914267005 1.1225899200743248 3.0739384345242673 1.4792767476466717
Ni 1.3638739701703118 8.335650943164227 3.1855808596587045 0.02711125439449524 0.14432347664214498 0.6717107281882689
Ni 1.5629015918255285 4.634543949092723 12.944925082707543 -1.2006480978303322 0.04034935035132405 0.6356417503798537
Ni 6.635820716135222 5.925808734865948 4.775066960970292 -1.6520258266193615 -1.9049251899903967 -0.8247129635513345
Ni 3.5592470776137404 3.5540752460543654 12.704990031285288 1.3360645017908346 -0.10776547501245311 1.0063444326153184
Ni 5.125692160471899 7.576612959331222 5.6234333005974255 -0.13282087531918416 0.5988893733511685 1.048144656480556
Ni 0.013857547959984352 2.9946847635089164 10.213717843941067 -0.294099491758429 -0.6052461688071319 -0.27578732371280246
Ni 0.9187087999955148 8.1950770456452 12.432935037779524 -1.0780594417621177 -0.8747695138880934 -0.37995453985103594
Ni 8.519366612707163 3.620383862845131 4.538597684328255 -0.9520977554566119 -0.19232802954588168 -2.610336395754904
Ni 2.837355612047083 8.070481239544845 5.907566694999009 -0.5704275184660499 0.5599505301941259 0.32036382477159664
Ni 3.8009261187478773 8.384084821900052 3.7546201850185934 0.4046597559071999 0.4964666507078675 -0.6151194620567858
Ni 2.927321426149692 8.915044108771157 1.2782704433311107 -0.6455744361125333 1.6788308626273474 0.9223128108846955
Ni 7.1692502696008775 3.9290099042719953 6.381100147691434 1.355680219139233 1.1621661397050502 3.1214483071797727
P 1.803979257196948 2.7269152662076297 11.777448409125666 -1.7945091647289741 1.178529925775054 0.7800750131269856
Ni 1.792044261290699 4.717950141414301 3.865264998617371 -0.4166292695642503 -0.5656262404226646 -0.012573980010268668
P 6.1413325562892584 8.513602657319883 13.3111721741376 -0.9440116360143678 0.3007815317642949 0.9292866710993674
Ni 7.710701250547709 7.883101803816735 12.103708638302384 2.9743112723482326 0.6159345017589135 -0.5957094329612902
P 5.6780234167565204 6.034741015331201 2.602174204730743 -0.5530337484696346 -0.9952501224743698 -0.3709852464728901
P 1.1583422383429303 3.4963986844423065 1.594171281099901 1.0203733999045588 0.9149072624492438 -0.4642725824738262
P 6.081130216473785 3.558432907350368 12.183885905374908 0.19237302385120417 0.2457252142200994 -0.27397958108010234
Ni 5.010033723399015 1.4450874539416716 11.910355228266782 0.24832177130268202 0.7831215132627932 -0.8861042221746221
Ni 3.4321810049188373 3.1675849212577396 5.204917403452365 0.0743205650904462 1.118585426900622 -0.6892556790505678
Ni 4.460635330449496 5.026890748624741 1.0462754023636949 -0.14465592028089927 -1.1189744348089246 -0.2772785635463482
Ni 0.9432162501164939 1.3856160169762695 1.9465932063418128 1.224599466439607 -0.7008881210831736 0.5832928044644922
Ni 8.344292250277745 7.973197145006699 7.836123254426688 -1.4090738042690247 0.33816665728097245 0.7843319886311266
Ni 3.046532606190017 1.2928098588866692 12.747820013106061 -2.5958793397893096 -0.03343051174430372 1.2358153897600845
Ni 5.817440822424169 3.967368425998591 8.562470451798346 1.6508883705808084 1.3572915294904109 -0.7773262467372548
Ni 6.788005791842115 3.946764367174392 0.893965425536854 -0.858497001980315 -1.1864820907425955 -3.1980381279203693
Ni 8.495570636373154 6.423942157027463 5.8285542465191975 2.290939048661635 -0.6261086140784378 1.5071387641642624
Ni 3.353632078373059 2.714693460322238 2.837370415142781 -2.2740669554966444 -2.9031325953208778 -1.5702552330087731
Ni 7.673989573217479 7.508768521361824 1.2951940824874757 -0.6125589004184612 0.04606259868601745 -0.4217650481289188
Ni 6.132062117608592 2.1798021011564384 9.904600524775738 0.36966524210988594 0.29768386667557767 0.44610079666080593
Ni 8.602467491179977 6.697244311345756 3.4773656041490226 1.3609581797087207 1.8055885624715873 1.4328349112443646
Ni 2.4244602652997322 8.556383603886157 8.552476511815453 0.4779948171559252 1.8448367093389326 -1.1262059195603573
Ni 5.873248493204397 8.331071235432761 8.755296501549717 0.1344671526733555 1.3221270657741357 -2.10199561931727
Ni 8.521050464842775 9.247142308813645 3.059513070729914 -2.213023310020763 -3.770052788367881 -3.9924614393492277
Ni 5.909506825728885 8.522641797630275 11.089762271748928 -2.9024525385347175 0.06705385622570388 -0.47739549300902945
Ni 3.9228758714922716 6.637245514096123 7.7048420002318725 0.5801370324443299 0.970003432092439 -0.4419991157876065
Ni 7.571663174207313 0.49481197756434975 10.130020215672943 1.805592419126329 -0.6880840273399699 -0.5446074720791524
Ni 0.7514884050271925 7.555222486048084 9.66823949577099 -1.150167315471961 -0.5034471957907588 1.6013758656729775
Ni 4.613116468070341 4.830046583584932 6.434303398822353 0.9623819109914392 -0.6380645008887333 -0.14823361032982857
Ni 2.826419825100427 6.790605585524018 2.3624417706808494 -0.2764295852824917 -2.121300490293469 0.3779773615200071
Ni 1.2748055937443743 7.045311350872107 7.362698049371552 -1.6585312318380467 -0.49708602945942143 0.12496949759556543
Ni 0.3671852376198978 4.407519972699283 6.247165438592812 -1.154032197744006 1.057113692748386 1.4810659783366105
Ni 4.740053013677889 0.9565945478532661 5.182289946484991 -0.41207918829972257 -0.7989952470702563 0.19535421796671518
P 1.3786308061939299 6.616345393357971 5.157644642535327 -0.6841150153898927 -0.47956061898114827 -0.9269392539131133
Ni 0.6477066766712488 5.603249279613649 1.8994703267687134 0.3410815169349223 -0.08088664834373811 -1.2926416547205093
P 2.3742037554061315 6.711760597064286 11.284659829704493 -1.487051249385768 -0.12172553673697101 -0.284808039154174
Ni 3.960133412976353 8.557669622824893 12.755552780221132 1.3853877735059947 -1.2925616934121933 -1.426645494604201
P 4.0708513168601375 9.219802841447006 7.3490079614316475 1.8217356045450948 0.5202560398179814 -0.024413395847357952
P 1.3312331441569423 2.815012189478407 5.254274625282332 0.23211636518741316 0.3060039565054988 -0.8098625288020634
P 7.8516822331984235 2.8987607033879934 8.287693539071173 4.113765058057432e-06 -0.1482950596953833 0.7468249928246041
Ni 0.18739423882380762 5.381147332539684 10.870530274853348 1.4493524492834136 0.500546477204196 0.5538765560859042
