# total energy = -340892.00179757574 ev
CRYSTAL
PRIMVEC
9.06949007891690 0.00000000000000 0.00000000000000

0.00000000000000 9.06949007891690 0.00000000000000

0.00000000000000 0.00000000000000 13.27411548860095

PRIMCOORD
 96 1
Ni 6.4205458145974985 2.051046991896909 11.244369848233783 0.782487222112904 -0.5269488784571248 1.8068301481881721
Ni 4.508715491986268 0.443260433311686 5.754355506733641 -0.624169488074196 -0.5190471071115448 1.333340160881136
Ni 2.681440023300143 1.6522978008992462 4.660966832092622 0.25896999504514756 0.048041319678943074 -0.25936311671850815
Ni 3.480099299997004 4.203146239766524 4.930298030644753 -0.9087101324995963 0.9750821321669271 -0.43677026328849944
Ni 4.880165518518139 4.67923097076412 2.6015142369974087 0.6324859783596913 0.844804592094887 0.8161077383808267
Ni 7.097438120491134 6.009652576682994 2.838563493357003 0.5928436813777209 -0.8521119243895776 -0.5910264256633241
Ni 5.238355950880913 4.605695547013744 11.460844059906634 -1.9273421242330164 -0.7498414110534247 0.31161333227247623
Ni 5.505144064477494 7.956890187691052 12.328600152018472 0.8008464413463822 -0.011254232757580617 0.9390568631122537
Ni 2.167263434908419 6.614351743324903 0.30246113804618036 -1.811858454640699 -0.8903424286256861 -0.19540229759583122
Ni 3.0081774648431945 1.5060704159550775 0.29030076604759814 -0.5503484883279878 0.22525203396741206 0.4817843661053445
Ni 0.718180251512927 -0.10362436329579446 4.569534584009904 -0.0697422016911444 0.2972611773158622 0.6908770167040748
Ni 8.535296903241157 2.5323648185412706 1.661202226039616 0.35212234813011617 -0.1575903689543802 -0.2519593680552693
Ni 6.690898237707387 0.6940626640885312 4.938156743604756 1.5001587333020034 1.0996600507510286 -1.0400400250955506
Ni 1.1057884811717935 7.486401331934449 2.534253993278222 0.09523031865991986 -1.1529088827728404 -0.22361346992272457
Ni 7.712122795464219 3.631360251811111 4.0369768605275445 -1.011970006332212 0.6462190116750677 -1.1087851529807484
Ni 7.765533021224698 4.100978436541562 13.00096043383119 0.03045574538669594 -0.36932688493386073 -0.9834469591918548
Ni 8.005348471990294 8.763303878214574 6.990388210876826 -1.0473992936740995 0.7336054088105365 -0.29438231310617047
Ni 7.1757168874360655 0.383947783553088 0.729906194947419 -0.5342364132574735 0.3729480266262158 -1.2018482887860207
Ni 1.5610678024403122 6.604520416321276 9.19140919397731 2.6360813659294924 0.7198155541152959 -0.14637418852358663
Ni 9.287248307180935 5.034709625660026 1.5447354651080876 0.30343748132990317 -0.9311905729902995 0.4546394302594363
Ni 6.588685087033146 2.1929935776291662 7.129434373753216 -1.460728295220523 -1.2416633639004293 -0.6727509965273253
Ni 3.3565547091820527 4.301858567356447 0.42474869756712585 0.17531452570702064 -0.046003463313307874 0.2804597894878073
Ni 5.865429548996945 5.715937147704707 5.0465398682278595 0.4969546460878796 -0.20028482249911314 -1.354966738011976
Ni 5.358816915144912 2.934152288640608 9.434139578782544 -1.0630593688088597 -0.22642008613358425 -1.6442983760681162
P 0.31860301609143443 5.672149650681174 12.62913946516422 0.060047343000883685 0.4287893019655519 -0.7013493769903083
P 4.017448434970155 6.206768869207745 12.416952401346178 0.10789685838399482 -0.4993195467756304 1.2636792060498883
P 2.4932571782833 8.587519025830535 1.2381658481572548 1.0797388863470694 -0.5096337842174449 -0.27110277375293956
P 6.264423616220713 7.8853953991582175 5.871194116749256 0.21455238816172081 -0.5546016071773867 0.5902720639958028
P 4.924651366260567 1.0047543641787997 12.480654684194956 -0.5577350106000459 0.521244886093812 0.5468193921288067
P 3.70248319125986 6.198724231705699 8.286751161540423 0.3761940443673392 0.3291785948497492 -0.4600168925212658
P 4.7790407066265885 1.325714540683742 3.7406983937160247 -0.7103693211007314 -1.977284517589414 -0.20831669166465414
P 0.20917145844100674 5.674480509574099 3.674579998769676 -0.41728952885606846 -0.8547951276486957 -0.958422412123059
Ni 1.5498034960394775 0.9106584069254504 2.487556096959979 -0.9079179756156041 1.679789626996191 0.06671884148378832
Ni 1.827130356848433 6.569376143130267 4.767199580670929 0.6337537893285214 -0.7317997230603654 0.24966517270445393
Ni 6.074145719047193 5.629949314382394 9.169081923850438 -0.7815353997225959 -0.1447147985432927 0.6381292926883977
Ni 8.753028146208017 2.4851037069029855 10.19651182656657 -1.1040558658258792 0.3466947493566416 0.3281722650724219
Ni 2.170446825847786 5.200880818796977 6.888216779855921 -0.058011543517777514 -0.038650365382346334 0.8924597320790049
Ni 0.6855101351545642 9.176963310535081 9.0112655447686 -0.049258222805179684 -0.6202081894336028 0.3537169463107457
Ni 1.1618742064397176 1.035372961931793 11.360279742488169 1.0608646751503858 0.05836969818814463 0.5249251631588767
Ni 4.158660392024097 6.7710453195626 1.5093200141703906 -0.01795427048557553 1.0461384246838048 0.7941132363876067
Ni 5.616571816845171 7.7090935858524 8.036494007103906 -0.7175511835611513 1.0737497586431701 0.47263843794001825
Ni 5.427454814373187 2.984397262441432 4.855472018487904 0.2812195504719673 0.3320700574649313 0.5063797960565214
Ni 0.7292994460760697 7.470602280605742 6.986140061828395 1.2642469056279002 -0.012514587527242962 -0.8559189568404936
Ni 5.006521651188373 4.777707491617794 7.118403153241673 -0.6330066267498518 -0.6772257444692272 0.5240998390441038
Ni 8.118934762943638 7.106997362799089 9.221156213755169 0.19104324929618713 1.2826421203056362 0.23900357922554968
Ni 4.511708423638663 0.09466280036933332 10.107110237262555 1.3590779319668722 1.4487605813356856 0.49861403606817356
Ni 8.182393983464284 7.1751908570244325 4.808946442476921 -0.43637379918102914 0.16993629211424283 0.6999980051687364
Ni 7.286328385716725 6.231936703557436 7.065798298180384 -0.08155976315136276 -0.4878146314598244 -0.6745577107187609
Ni 2.469476975881538 5.026810099995673 2.6697567064679726 -0.5992462424699551 0.5780744934883463 0.19102807978753553
Ni 2.329507538937833 4.943833337305466 11.59089056799917 0.1602630306905369 1.703375384735931 0.288610957840032
Ni 1.0388647155262547 3.214998111513592 3.733769303466236 -0.0031141201489494758 0.3923344015726275 0.06479437076756583
Ni 3.705847971996341 2.7877253749196127 2.538183803232716 -0.7958626149785455 -1.1518511309322872 -0.22026717915831098
Ni 1.0953948457971103 2.804576487071586 8.26496896775388 -0.07217317973014022 1.5367887258202115 -0.21190980833255116
Ni 3.548093265445521 2.820475302788706 6.930654736788921 1.141651564691466 -0.7276545905437404 1.0195599028643278
Ni 4.181832938605524 6.9068337216828075 6.1848216107058285 -0.7937666516814652 0.508620255351266 0.09277182981709829
Ni 0.46690731421256865 7.645770407679592 11.246666243065256 1.4812241011810297 -1.4877978977438053 0.577913799540766
P 0.09238091672162799 5.686089456589453 7.968092821560867 0.2978011089797323 -1.8886231103962636 -0.31639172749772604
P 8.454161246991667 1.5106777168017955 8.050989772740342 0.26160511867514946 1.2017148485319498 -0.643660249808956
P 1.7185050768461811 3.359212069709786 10.377690304567823 0.22812781285331035 -1.5845737065139744 -0.2039424738563584
P 3.950125611770963 6.263634570603263 4.029795638459766 -0.17320673533539846 -0.8177007938995594 -1.4592080019212548
P 6.988694937120758 3.9993638721978004 10.4942105754895 1.4724242435012125 0.7325491996318804 -0.40796876567577484
P 6.385564792223892 7.812086712654234 10.289098620707925 -0.4367226978800156 0.03559666615768708 -0.5104241413292242
P 2.514479784545742 8.33352796242041 5.758072183676526 -0.6181682761854386 1.5858916539944494 0.31601274689175257
P 6.734640387281643 4.052402248874195 1.7306264500383837 1.1448402468320928 0.22294626865237088 0.25897025215546365
Ni 5.456531598850703 3.062394875200835 0.21789358683527624 -0.46846245218545773 -0.7402010597501834 -0.57450657363143
Ni 1.627637857981477 1.059162233823411 6.790307102118231 -0.7815017182711831 -0.6170830135410598 -0.27830751903149487
Ni 6.912048678349861 0.6411086336677957 9.221634175870566 -1.2808732013306714 0.17799644341455798 -0.8879222492199675
Ni 2.8981826918727247 1.6381221882547174 9.345229555828709 -0.35574914624942605 0.4294104804893185 -0.28357519518833746
Ni 6.184566758040882 2.0329624291245545 2.280028030080833 1.0504861601295392 0.2841104988665172 1.3938706141660253
Ni 4.309005325362773 6.8863094661392585 10.33687215852306 -0.748528348668956 -1.1808953406834373 -0.11719988095247558
Ni 8.305476030296592 7.053233426934236 0.7895181378712565 -0.8651206779444197 -0.45649345274903963 -0.64127709428876
Ni 7.469795096008581 3.9465794412373674 8.333516172083597 2.0135944077640415 0.354591378495899 0.05005192235106864
Ni 3.1190701173093824 8.398392953868694 12.29567971774009 -0.3040218930784635 0.6248120067542013 -0.6798924926681129
Ni 0.2287651843253572 5.199221102153376 10.358999899873105 -1.726313481589343 -1.6474680320453499 0.6495074526183524
Ni 8.748257594543894 2.2544665798714028 5.771558515092018 -0.18622680174415024 -0.4930478548343057 0.42431609668554665
Ni 3.696442911015934 2.6318208442993645 11.512467596165532 -0.2021756117639228 0.22980520055573325 -0.35894065660353025
Ni 1.1049722270847764 3.223768308204097 12.783942052766994 -0.7098391596288743 -0.2838518458884918 -0.21259757842819516
Ni 3.0620320956066056 8.68658506352483 7.897407938472151 1.1109950161478737 -1.1310848449192135 0.43969695001699116
Ni 5.724625718986511 7.8153245205327355 3.6899382728913936 -0.933834695481366 0.47759192529055167 -0.22530242758937327
Ni 3.212440515374272 8.385478000314114 3.5372733640476177 0.4682446797476968 0.10740217813576343 0.26719778227157853
Ni 3.4584957751606207 4.426545913893222 9.468333369436673 0.04521156353963181 -0.18537962325250654 -0.38993324833030263
Ni 7.039012466840428 6.077174928659011 11.39994243552531 1.741121236026137 0.2516472361314892 0.9965824681325481
Ni 0.49370493588933695 -0.19865991969819885 0.2989503385230216 0.8698085703383923 1.0710058773494457 -0.7270110434224705
Ni 4.7289680531330225 0.26037507731958354 1.6447955188905743 -0.5103570355367146 -0.39950546539977 -0.3239566843291776
Ni 5.946855428921819 5.637857909536603 0.39823948566777023 0.08569615391723952 0.7373077973627883 -0.3090203747343194
Ni 7.884125670578413 9.136694775575576 11.235423703440077 -0.0005008508958184923 0.5038940535201901 1.4354281258928376
Ni -0.025547845974646707 4.823789569574831 5.716351623391115 0.18696367991017476 0.036504522683937134 0.7906098512200384
Ni 8.107770220931217 8.501748860264758 2.7688209302642988 -0.7914228340396369 0.9325234328691101 0.3055239315452867
P 8.416141945516385 1.4970734820181788 3.629501913339669 0.13266609490887474 -0.30742243411958026 0.03789343261166377
P 1.7264136720003902 3.0339166770537975 1.5849024217812087 0.5498334963647822 0.4367746341638736 0.09978168547602816
P 4.747524229377876 1.155861134665359 8.066467764128156 0.40128441167706375 0.1671780126428153 0.17387496504701666
P 8.374902975142316 1.75936312864631 12.717597827523237 0.3979401777951792 -0.38156173643715574 -0.5915488738256974
P 6.236888645018673 7.6386599276326885 1.4939880415692546 0.5530502035298669 -0.3777649883988849 -0.08644691604033498
P 1.6568144068474069 3.168888825086987 6.0870715559896 0.03378480975992891 0.7452784742730907 -1.3614464321990487
P 6.859010301673467 4.173652258755642 6.171401486566284 1.0610896466769983 -0.8171570055809475 -0.6982496550190619
P 2.4903368025497503 8.411879285284186 10.09068992587873 -1.3363599215440662 0.9148360428916762 1.0775097399062348
