# total energy = -340856.6608048854 ev
CRYSTAL
PRIMVEC
9.41355295997451 0.00000000000000 0.00000000000000

0.00000000000000 9.41355295997451 0.00000000000000

0.00000000000000 0.00000000000000 13.77768629343228

PRIMCOORD
 96 1
Ni 1.2830107842623222 2.7002117656694886 11.386292864347032 0.5958549574002189 -0.8267171384655568 -0.34193897983921107
Ni 0.41417091272121054 6.142616285705231 1.1089880792115716 0.25256434862911986 -0.207116757819282 0.5942824707067765
Ni 4.559633223490078 0.6906930889478037 0.9960602740899515 2.3018006739664876 1.4429809985394308 -0.481671494676564
Ni 1.1494324680585102 4.867607021441024 6.965364577991323 2.547679383045316 1.5084816513454022 -0.3808436273242086
Ni 0.609818431583335 8.34113274749296 2.376829864268057 -1.1161238527340067 0.7820383075009435 1.2246367474354456
Ni 5.9002455381858825 6.9916999336933525 7.15480762411138 -0.5432758977519224 -0.6700186851978267 0.38988491159087046
Ni 9.513995548816537 3.7119051271251675 8.31441990831808 -0.9068833637035028 -1.5938638735666486 1.9915497692591762
Ni 4.379655504850143 3.4132130923720343 1.1300772618607189 0.8130542962664837 0.1318464272210568 0.9199054869947834
Ni 4.0484678853517275 6.348180041233254 11.337423345619728 -1.4834097959784387 0.8560282287248484 0.21365815848222558
Ni 0.6154081993184881 1.4930553909892887 2.205890097804815 0.7716783044228581 -1.7295420158289698 0.9826602016245013
Ni 7.528460722272729 4.023183082157686 12.268864285560202 0.48336816565269647 -0.15899213439791327 1.4942583086571684
Ni 4.437680645165879 3.121157612440867 5.869184578908498 -0.7016877341663335 -1.464665168381084 0.1010860061097485
Ni 8.629225121636827 8.141763109798772 5.5993206086756295 1.2075306838827786 1.432763948797113 -0.9991309455860149
Ni 4.864604098053495 8.571058778027007 2.630091151182485 -0.9270534108934744 -2.6568782480701856 2.622193809314123
Ni 2.582815346967745 4.606663333973112 2.792571898974779 -0.4069711776491959 1.2719923539012739 0.8491348440391246
Ni 4.441907330435471 6.053526420690934 1.5311972247873582 -1.6395811730981054 1.4816030817870032 1.321289657474505
Ni 7.754517782548863 6.4394444369764505 4.2989964178479765 -0.18852536797033984 -0.17032684268444215 -0.3329624873722137
Ni 0.137507533200533 4.867880014476253 5.041352026680075 -0.9003676740721719 -2.0528350984322192 -0.5575326647812527
Ni 0.8930618846083441 4.370411395864086 13.110956487780559 -1.0187533478026325 1.9068979974460512 -0.7144684308707696
Ni 0.3714070244301128 0.36285104616389396 10.478770821069157 -0.4287034271199649 0.3492877068947985 1.579722806179576
Ni 7.34535770405706 0.5728297580202879 5.867158782316034 -0.3304685173057664 0.006749145798375473 -2.937602346962973
Ni 7.149179260809178 0.23783341500277025 11.054237315267645 1.8918878971904642 -0.22350342670742152 -0.8151849694562413
Ni 8.262670783746747 0.47312046393555235 0.7276356361014498 -0.12856698513883666 0.052397025544477505 0.1459000771006455
Ni 8.691392225245705 1.6007370230580278 12.342932944149805 -1.2703566180700638 0.3378606960047794 -0.11185378614921382
P 5.440666470153022 9.08743922449354 5.030481255746166 1.1202479022047094 -0.17441721070373187 -0.24906661988850654
P 2.1436825159183 9.446594509773597 9.608186618168457 -0.3807618662436797 -1.988433078007066 -0.6114841792970437
P 0.6391633001599484 0.1547493967635282 12.906303022821733 0.05083250927083504 0.9328725886784127 0.27995456771661464
P 8.068544495039557 5.096506974704723 0.3356336405514851 0.12860118081088173 0.48183064596224756 -0.24308340572187812
P 8.04666739800942 7.086296727176939 7.209711230272559 0.16540677967500544 0.42471333212396534 1.7927659567856222
P 4.801891008374159 2.867010510194883 3.4630079633532396 -0.54146764089859 -0.6823535526140958 -0.22803885268392984
P 2.697707760587726 7.087718173670722 7.190147043199523 0.015374168463225136 -0.2841050995498784 -1.7335079424552533
P 3.579437610168152 6.544725613045755 3.5202677818150385 -1.6294929356241679 0.8931433884095908 -2.1949361135017487
Ni 5.331685767778707 5.33942370829453 13.480074136135919 0.4990673215555083 -0.5483173168305718 -3.8449652214060555
Ni 2.874155396875552 9.565299412333855 2.615735482950574 -2.21426875239209 0.44118227631326595 0.8286896888108954
Ni 5.640120829823661 1.0808453213452631 12.341555741354835 -1.8026899007675534 0.4147117408265632 0.6016970180032928
Ni 6.0359513173539 -0.037866958052251876 7.570549658818104 -0.9296237427238119 0.404541999382413 1.1887626592466558
Ni 8.804665507760184 2.4278494384866205 10.125235426893655 -1.5250706660523348 -0.0682303930323083 -0.6217999594007549
Ni 8.188153098681957 1.9048041965393054 4.135537601905324 1.1482443874176353 -0.1234036957703423 -1.489810300188144
Ni 0.052413721408823444 3.7656471008536774 2.354703308085037 0.7017849218658301 1.6225401584554187 0.8452231676895443
Ni 3.628670492038902 2.865984432924536 10.438085445266982 0.9817592870767865 -0.6221524576441673 0.21007018402065109
Ni 9.132285390694735 2.761974086501991 6.026800402541939 0.754472739177849 -0.6208375954874856 1.424008056981354
Ni 0.034583510787143376 7.464100260829074 10.063553121261132 1.866729652757282 0.5994748135409933 1.5342639025158287
Ni 9.587609532799187 2.726014314275172 0.38274659030038133 -0.7658820094560552 -2.050113071515366 -0.32972829670563214
Ni 1.1240064615703849 6.914866514605578 5.286704987770484 1.612147502367185 0.6005595619647399 0.02313504335556661
Ni 3.7986227767988474 9.263011400358042 6.39878447776721 -0.7626359917149317 0.7056544321235653 3.00944899659163
Ni 6.1787455018849515 5.761781588006752 10.831658562802456 1.4424189553883737 0.32685097515783706 0.4582004081378173
Ni 6.325681649709145 1.959176878314726 9.51535204179504 0.31049850194174267 0.5579376135291552 -0.8318531741405415
Ni 2.4631879162194688 0.5972852272004066 0.4386555639154399 -2.787106422961529 -0.05106133745218948 0.09064089951702455
Ni 4.0915913713650935 0.6300933419032624 9.59151521591356 0.34177622900910165 3.3719125787467545 -4.0652699386705216
Ni 6.137250560530025 1.2391436275667784 3.272710166626325 -0.5529108497385251 -1.0106679996913368 0.0034103112331296107
Ni 3.297332255693463 5.147133062410438 5.533559410554658 -1.4338435550145372 0.707531337431304 0.07629877186273955
Ni 1.6920673136717967 2.485008531931973 4.110049465967802 -0.5449311739671583 -0.714095363802067 -0.43953291363530106
Ni 1.1944951459773014 0.36150773215950466 6.553342779406077 0.22993838369948785 1.3766403663306677 -0.4374876010704981
Ni 8.565109412569585 9.082214702612418 8.541503987219855 -2.7060698793034876 1.3608365665291917 0.4568973730556777
Ni 7.611064649312084 5.127759970462063 6.630621459547863 1.6118978482502238 0.42820463310667545 -0.33389322671659916
Ni 7.869090135368919 8.770597859674096 3.276967916620616 -0.29743755499272645 0.40187499407321114 0.3668789376140004
P 7.401754299714356 4.0853972535312595 10.231667880487395 0.275120636663081 -0.5278819317943553 -2.7435807317647525
P 7.889498718140579 1.46061628756164 7.590843396243908 0.27762874779691543 2.190621031066163 1.820054617298246
P 7.355985605325143 2.37844711266297 1.8720845692340757 1.7750878227795686 0.7155716912372774 1.2723996166420215
P 4.7525828180798975 3.3531546246214834 12.260721562268003 3.6044873716278243 0.5502389593333168 0.09677786565269784
P 4.631656317026045 2.27519926402848 8.00997525136395 0.45306617223504553 -0.28753238006387255 0.33176306774747377
P 2.21892504455939 3.063151299231009 6.0135743606627035 -0.723874811786334 0.940383295233161 1.5164906376928076
P 2.2099633421615024 4.1045161795502825 9.625421892244393 -2.5204200331087305 0.011189955178548469 -0.4557216075800216
P 1.7315665818036639 6.024702121591845 11.57218135287734 0.9255889105328059 1.1352225212366707 0.320568484583235
Ni 7.231641984554448 7.758716227159638 13.331068889375743 -1.1220139929661967 0.43745160562624014 0.9566704624289589
Ni 4.095140280823081 7.349189020103216 5.317250084346815 0.6465766521248025 -0.02655949565608329 0.4815141431630932
Ni 0.7517296248487125 7.940906130740228 7.769126675354832 1.2715179853680165 -1.9436236350018592 -1.0435747777216866
Ni 8.545350364950712 5.851954011609029 8.93901761801558 -1.3859413320166196 -1.4438320336858166 -0.9867978779419586
Ni 3.885472216213672 1.057885665727145 4.48124750952267 -0.1606777496304523 1.6492253810560888 -0.5631862635226043
Ni 2.7473548387877895 5.503031258373618 13.481576539184974 1.4979396141634977 1.5111558557434555 0.5584677750010124
Ni 1.8059618906802477 6.283998437295439 9.032954521438144 0.6645736029228555 -2.005967230236087 1.0074788033300777
Ni 4.522157869240087 8.009116735335917 13.448840908839749 -0.14151968864476272 -0.04499147710902574 -0.46662976985209315
Ni 9.166437760757274 6.6761388120736065 12.580722115453762 -0.02019627244221683 -1.1645685784989557 -0.16693375784249315
Ni 7.5473348959153395 4.183477061602261 3.522775552317977 -0.8418182557730535 -0.37651466093155156 0.8279988333914579
Ni 3.748542675163591 7.823679155991385 9.03985653845299 -0.26996351794217377 -0.5420160572028924 -0.5951759290553233
Ni 2.3997217423050143 7.40108593745569 1.6456067231415703 2.3950383876764105 -0.7234966025113089 -0.5231397891236796
Ni 6.281240266284325 4.839432257494722 1.6517518905001218 2.316545693486146 -1.000398499444529 0.32154730355673655
Ni 3.575502745039668 4.305420226373521 7.8885799553737375 -0.35128314005827244 -0.009296851920893667 0.6693116318284731
Ni 2.977064357604239 0.8365862151063603 12.063438909260382 0.052274126813368044 -0.4702331709326353 -1.6311620957964745
Ni 6.436818055706481 2.526842361192702 -0.0178245624899167 0.027046976815463097 1.1473406446564436 0.6947660673458357
Ni 6.083828647601439 4.30082641253931 8.259309203992245 -0.580909134723664 -0.2730275015794782 0.5581836681016902
Ni 1.7564371886683907 7.865842459604978 12.872079109756859 1.725839370166402 -0.5769653195845675 0.45330142817430313
Ni 6.196593598257216 8.073910220214763 9.628756172695372 -0.6183464536345158 -0.9363299510993939 -0.07542099724347656
Ni 1.9454330910238475 1.8114876462554161 8.603090274612399 0.12550762948722255 1.7868843011938647 -0.7278186269254303
Ni 0.17868617917671023 4.766119507206119 10.931450696153055 -0.47753021881468083 -0.3773199304416663 -1.9151640941095853
Ni 2.955441426503453 3.1142386510307327 13.013093191427153 -2.4453142531128274 -0.9291306051374773 1.0013950590298433
Ni 4.915126636676882 4.9346503454722805 3.7187356011376753 1.8756737493244473 -0.38728706895670717 0.6327729134724909
Ni 6.740056836529131 3.1805665450386296 5.848586783722764 0.8631085326103974 -1.7713054729190008 -0.5881997548478063
P 6.52553137860322 8.800354100514141 1.5488325748632017 1.2582814320730846 -0.23917070093103324 -1.9926597144939038
P 0.8690055500728373 0.21871354762845294 4.444116691310245 -0.6202871223006543 0.4144104075360605 -1.8844121576387094
P 4.694642399740612 9.072791736120521 11.09576332134727 1.809131285517523 -4.00826549626102 4.002825813302687
P 4.80196631679767 5.926481110226759 9.1846463962071 0.0015699155902811671 0.21048773117404396 -0.1723929811848515
P 5.554240986361549 4.999443830351128 5.989449307190743 -0.30757824297115416 1.156561906144395 -0.2544438250400199
P 7.74226133662234 7.557059096101282 11.21786086838673 -1.6496215880532428 0.10629994621052015 -0.04979995424126262
P 0.26718110764526526 5.920748256486933 3.3412267116925296 -0.2247514401819097 1.4484520489563313 -1.941069244011122
P 2.333751563308798 3.101944550892454 1.4298480897806563 -2.3612528065855334 -2.2670776686630054 -1.0398654471908995
