# total energy = -340871.8837240562 ev
CRYSTAL
PRIMVEC
9.17400057063925 0.00000000000000 0.00000000000000

0.00000000000000 9.17400057063925 0.00000000000000

0.00000000000000 0.00000000000000 13.42707715731881

PRIMCOORD
 96 1
Ni 1.834873545378676 4.313385810559673 10.836081090397446 -0.93076351275521 1.6447807150211737 -1.0768332826645002
Ni 8.80919662636841 1.0534321600573109 10.381171749171179 -0.13750388261715027 0.6980930748365396 -1.0327116097549376
Ni 5.169898044156276 1.7550597387069706 12.673348132576196 -1.1470449677928956 1.8914775491259235 -0.3322960574328084
Ni 8.594515834423056 0.5128835216723798 2.371866341066371 1.2050387706988601 1.1844205802278762 -1.6999046525785113
Ni 0.6082545988445311 7.239497573155901 5.175534550227436 -1.052165604714491 -0.8115314318640541 -0.673870197733433
Ni 6.510219556194917 4.453454454268133 6.78037828297772 -0.5841952616741036 0.5633037629370751 0.2888904367536637
Ni 6.396214248665115 5.538647004980322 13.395765831763722 -0.7066851873809248 0.27972548242494405 -1.7098141983827393
Ni 5.655514600749386 4.013625335502434 11.368907972336908 0.41592992950438046 0.8786889035471577 -1.1645390108126008
Ni 3.9179588555055895 0.7702995613900105 5.106586430064003 -0.13536292501474753 1.7381955777389095 1.9892026091832387
Ni 6.164011115255053 1.921751332640866 9.836381970231729 0.4955251127302046 -0.9696720168949495 2.273925030602142
Ni 8.548021998536596 5.501987697915938 8.230718081812885 0.6459158786123521 -2.154227322928477 -0.013965203930840464
Ni 0.525492268326356 6.420314348679662 1.5849994516914832 0.9914382049274475 -0.2553750786050376 -3.461816600097754
Ni 1.875642804786614 0.2850848260304887 1.771112405248827 0.11063534036108043 -0.7652281779221402 -0.5151649984483192
Ni 2.5255106711096342 2.8888469714812315 12.50879958522144 0.5206923560244516 -0.8973471420782934 -0.1569787035123103
Ni 2.224456661944268 2.4999794269754556 9.544315729617656 1.3826716601264122 -2.7203590422326505 1.2461229423336797
Ni 6.331409107247995 3.21603770883139 0.9591564585767228 -0.02379298865453967 0.8398752731140697 0.22276989097550665
Ni 0.17960950441371476 7.437958731745441 9.27290108212987 -0.6302457761752629 -0.172026084763736 0.8275260075200974
Ni 4.044688502099031 4.839459710534648 6.1713402244676985 0.869536033403296 -0.3613824332758034 -0.6341505105463079
Ni 4.592743307911409 7.251698994175828 3.024543286424205 -1.5129952229450396 2.5053793367255235 -0.21172520312557086
Ni 5.8917451204961 2.7201004013755594 5.070225278024543 -0.9394952362012529 -0.15307345492063315 -0.4638889738821623
Ni 1.76205032729132 5.296013032698338 12.968811505674237 0.42636038080908506 0.7269907317074963 1.5895644748603464
Ni 8.47561161048375 3.4632311594945056 10.581329180502514 0.12210606000484131 1.3043653709153407 0.6839882600040414
Ni 7.640539016679305 1.6385224069655138 6.475436332287358 -0.43526616793914713 -0.5664201970788697 0.6203819960073058
Ni 7.329255996658885 6.095582243535023 11.012902615978113 -0.6847796455570853 -0.05210597666661994 -1.668048427299863
P 3.4744784844346794 5.824958394913341 1.614659913570827 0.24415478440918598 -0.4665222977399514 -0.6399586325876527
P 3.5615397517122065 5.297737744842507 11.851355829065145 0.6932573440107931 0.16532604703574108 -1.532125001795955
P 1.5818454302278357 0.8194199136960236 5.81352208555737 0.5968175784238043 -0.16207205887481765 -0.17108968899239566
P 4.070082136221707 2.63635094837487 10.782251723497803 -0.01626248460544941 -0.15109679081023655 1.8284929778735863
P 3.677783515429124 6.812750579483748 5.048137953778244 -1.6093079760358606 -1.58856405862029 -0.20865479173036322
P 6.640747239105839 0.5284325355721354 4.987608814118561 -0.11798201053413875 0.6705509035522129 -1.3448088236423679
P 1.7370328272000854 0.5156916833071165 11.22731919670138 0.14532852086789164 0.301163597694062 0.03104401378999815
P 4.508645242881578 8.761638606392994 1.1056826814249774 0.3835988214718426 0.8999912645693597 0.11408704635510675
Ni 8.572617494592555 2.9292034008546612 1.6262475939394514 0.6074802003439731 -0.08454224281845439 1.95662981745354
Ni 7.284615308927332 7.8499998021883135 6.221141287630614 0.07719223021128642 -0.5646731324807759 -0.36875044360510045
Ni 3.763844816623063 4.584284879204361 3.4480738754274953 0.21783260157488937 -0.2944543039946864 0.6384923324547713
Ni -0.1640714993148794 3.891482689292424 13.057591063295398 -0.2701344963023993 0.24635024939860797 -1.4302823200258399
Ni 4.675740492849217 6.270915746191303 10.233621707837342 1.0500434161651657 0.28913417733335367 -0.023508110424269195
Ni 3.0667491943522336 0.4085430239504668 13.02368762606138 0.33096576865715904 -0.15154904785630674 -0.41575406604814846
Ni 6.790999023665517 8.619258114491286 10.283006271365442 0.7041549647599034 -0.3481597639379423 -0.9163691917067509
Ni 8.561590345670787 6.092894261310332 3.3848319837410505 -1.7850886427460226 -0.15909780673784216 1.52009403877335
Ni 4.2134901162093055 3.737166822393026 8.866235058736303 1.8301878490775063 1.13963170604796 0.1621139678563466
Ni 2.2703817097831824 8.645092100650771 4.070190389430756 0.4133179458028301 1.1551632260246558 0.9303127983710364
Ni 3.960306043045428 7.072906893230441 13.17090189896715 -0.04222137056305632 -0.276918094883136 -0.022536233429303124
Ni 4.145685076541422 1.24540730010468 9.273303820763534 -0.3453770589864826 -2.5966324159052503 -1.5066577107627859
Ni 2.3591860372064137 4.317532458906295 7.637778559848555 -1.9241637265050346 -1.1814321870235136 0.3897363018281481
Ni 1.786223819312003 5.324801047104753 5.633343793096109 0.2561839476595782 -0.0009358815507080655 -0.9508438284448527
Ni 2.4371099997201453 3.017934336271757 5.352650561232718 -0.43961338916424936 0.0015848279886166254 0.43375024551525293
Ni 7.747186775594083 3.918867081581509 3.9653379824660524 0.7041169124331164 0.005027792231894567 0.30815442718959835
Ni 6.380031311312369 0.8894276309480296 1.0042127285430158 -0.2874436770048082 -1.0262059474259357 1.2681097310174159
Ni 6.929049387205267 7.731205666258208 0.9204100663378783 -0.9553049495399998 -0.6261857471732765 -0.7855519770811569
Ni 5.6894584035867775 5.636175807132839 2.216998199320808 1.9575513008265446 -2.5333686228495984 -1.0137528092642476
Ni 0.21213225453231974 8.515968039857178 7.003402828620536 0.19041872833831075 1.6102006630534593 1.8287668003602633
Ni 7.228140160206525 0.6186450721130798 12.334852274081035 0.5553171451871726 -0.7677267759742779 -0.36352930441547715
Ni 1.8704778423548702 -0.10989718998640173 9.073549128065867 0.5723607309330208 0.8128041279288905 0.176119023886187
Ni 4.396593997515118 4.193509142539078 13.452454734702394 -1.020795317933326 0.5462591487499625 0.9841393572731889
Ni 8.804123403944336 3.6437204505817626 6.605263121539691 1.425195649531552 1.3816648161284528 -1.1166226467472964
P 5.899744849164805 7.453251791023803 12.1367489015214 0.896034851024773 0.31769579102113027 -0.664652792900223
P 3.823962043648314 8.040598842120653 8.639183126756834 0.42021518714329564 0.6242041979668733 2.3641445263110317
P 6.272007452282559 5.101808610464621 9.013878674877962 0.19233522863473326 -0.7267750161522645 0.43991909333012624
P 8.71682361264687 8.739465046539488 0.3642527830482071 0.4226993870177301 -0.18127074329045556 -0.3636871701495801
P 7.225837486014043 2.755649654347152 12.258693389314846 0.31142769862423136 -0.2885119703683225 0.4372130072528728
P 7.992352772087722 5.618194765629788 5.526639155376576 -0.0025631327414859083 0.019362720797327943 -0.18220071130389265
P 0.4081788161200224 2.475310538913362 3.8968467275408085 -0.6396200183013114 0.022720581525967322 -0.13788234900249158
P 7.912520617414483 5.155274686933897 1.3836870136636013 -0.17724465285019797 -0.7767762877710557 0.8002121501964928
Ni 2.819280523666112 1.6156699710552587 7.370901373140059 0.9446628964451216 0.3298321692733481 -0.821888606728662
Ni 1.5665431969487087 7.7617000448072595 12.99512804427406 0.5565805852806286 -0.30725299842125153 3.239658631674634
Ni 2.142973187132993 6.5670983609494655 3.0923767654944645 1.36465542605465 -0.23653660574229585 1.5320080166021164
Ni 8.869726683428171 0.24008635226902708 4.798622563521035 0.17445937679557696 1.0056520345339843 -0.6649716096922225
Ni 0.4388640138850248 1.7186022596594581 7.976006537521326 -0.6495241647889006 -4.5839714895171895 -2.1996767135105277
Ni 1.3953838646413512 4.37486078969842 3.1577259251570577 -0.9593354108556317 -1.8399858090045342 -0.31415435352677507
Ni 2.6017282694807298 1.9076600674629647 3.36764541070441 -1.850962362620696 1.257662310431847 0.1424321731567031
Ni 2.388038269618197 7.374263644421115 10.875878823124173 0.2673836730301395 0.5891963144331207 0.7403653532421894
Ni 6.952397219156932 1.8466713103648615 3.068302352682063 -1.1624389337504626 -0.07859373854450336 1.5044301069838477
Ni 6.918086456288866 7.045173888912215 8.407847853819318 1.245675570383616 1.712712860086773 1.2471567829148327
Ni 4.706693571436611 9.23051261158658 11.2453919782121 -0.1484778651301507 -1.6801552378657256 -0.16692295920921574
Ni 7.464031241924865 2.9728441225026265 8.49888329822905 0.8854951278357136 1.3118267122893923 -0.9812790050062585
Ni 9.193633128503793 8.393164865591954 11.645062826020933 -1.7131000682228625 -0.5641871939832929 -1.5125043993515501
Ni 5.771409752437163 5.611277569051574 4.625748610470351 1.1841866098401994 0.44121261533056916 0.6364416205733298
Ni 3.559769169564202 2.1406888609420442 1.232721491844262 -0.14674108494470212 0.7350709376124696 -0.5532911158960794
Ni 7.046935297059453 8.200630111497807 3.236114092109593 -0.8989684797318002 -0.2723284186299246 1.2787379001552235
Ni 5.1542930688518425 0.04994050797457052 7.366121718740524 0.9204055665596537 0.2926025954979284 -0.09021589616446399
Ni 2.6403599867099885 6.145433763702155 9.013475936244296 -0.4124023759670962 0.13400769653843375 -1.4113510303389758
Ni 5.001665218093548 6.679562436350436 7.500754766994617 -1.5839633266234852 -0.6461629616261517 -1.3205478942124742
Ni 8.666366608429126 6.338665741854585 12.912940923603967 -0.15976629355977648 0.651248089458543 1.2067593529343927
Ni 5.285059275782704 8.120008992758617 5.088513648553284 0.006289432553137556 -0.6187897118195215 0.4134400732029912
Ni 4.482811256722093 0.8205758377926483 2.908694004740263 1.7008461905561743 -2.3857870442814715 0.07424703154003341
Ni 2.729577144167729 8.100128933096824 6.839296468102742 -0.3323091700589309 0.02900050099740812 -1.5392063341227684
Ni 0.6430736013550818 1.3922371823783175 13.26910774237626 -0.2164138668504918 -0.2026911179477606 -0.4383435213128903
P 5.027912034287541 2.916570801798691 2.7909787313003407 0.1929612922545064 0.6081787690728945 -0.13860688587334194
P 1.5075176760147142 3.163617468449537 1.0012164998925583 0.421683544158706 0.11451642058304148 0.33302702206156193
P 4.813212894340653 2.8260050662282223 6.923148669912021 -1.133497568125764 -0.6045923372732168 -0.062025292662860915
P 1.1393191552366795 6.546787123251632 7.363597033729483 0.006785655463265733 -0.5595036724646945 0.5753067009352221
P 0.45876333894842664 8.015443732017916 2.9602408802491107 0.3358534357667635 -0.08215265954035529 1.5132032251907876
P 7.727600283956831 0.49150718248551306 8.387156812489735 -0.18618874941736321 -0.5869671679922859 0.6321728179946468
P 0.42228475969915047 6.023061767472973 11.048833507381607 0.2070216270023144 0.1041592457184335 -0.769690584568868
P 0.6518595418895062 3.389591455338899 8.8180587111092 -2.691475526429081 6.300866763116426 0.5363118077292633
