# total energy = -340868.13191069535 ev
CRYSTAL
PRIMVEC
9.25839793025218 0.00000000000000 0.00000000000000

0.00000000000000 9.25839793025218 0.00000000000000

0.00000000000000 0.00000000000000 13.55060122412768

PRIMCOORD
 96 1
Ni 7.380600182055997 7.656324522538887 4.432008843748367 -0.2249653559649287 -0.3625949655266658 1.238569298356138
Ni 6.780905990924127 1.8166457537420073 11.604870025122016 -0.4319658999213206 2.124705659320276 -0.774481321089292
Ni 2.218543537430324 8.21130065301019 9.153525930404355 0.5025082289162571 0.23061612649280283 -1.231887001239956
Ni 8.493191086329507 0.7342251898980207 12.366454705922322 1.8410641296703778 -2.0814255084754025 -1.3347974621529528
Ni 9.117929243110824 9.311911190721633 5.807841916789945 -0.020784797955835172 -0.10875277862638688 -0.3244351666274929
Ni 6.905440697745099 8.662416078618088 1.4483828028846997 -0.5239136911752267 -0.11253358582505779 0.7664821049338993
Ni 8.733844616505516 3.0562526154073013 13.086371042248725 -0.1524975278125051 -0.8846242951949861 -1.2061111778274325
Ni 1.9837876065588236 7.339992849953047 1.5118407862332701 1.2210906819554004 0.18691508606042648 0.09166985500217116
Ni 5.170157742571428 2.2172195865660465 9.479160440951217 -0.21526458373739701 -0.5288000727332506 0.3585061401692729
Ni 0.9279969718821228 6.935187929401911 5.349668814651706 -0.7150248175948719 1.2776886329551027 -0.3068531918796715
Ni 1.445458075066341 5.325939541468883 7.108658822853834 0.15049849510460533 0.07943963148456641 0.5189172664018998
Ni 2.738532183173618 5.369546594411175 3.0823418541516934 -1.1794501235964785 0.8251901602980691 -0.010597058789555944
Ni 4.630161699501533 1.0280061833221743 11.683368275456733 -1.3732061438381384 1.4497077757403034 -0.21288477065131078
Ni 3.6481975277042036 6.939724544251534 10.699621862111337 -1.8422175265485305 0.21935469464637064 -0.28174534106845023
Ni 5.0517428365986214 6.209551755005921 4.090953546071847 0.3185098022819934 -0.9445644231940442 1.0532382689533795
Ni 6.539298845789931 4.1394666239300895 5.111516903521345 0.6327245767330587 0.22629255941678444 -1.4594566275969512
Ni 1.8134701233472712 4.8271341095540325 11.365078451767435 2.086693184632245 -0.7834354449587863 0.6470242811851824
Ni 0.09249139254639098 5.560325136434292 1.8260522857567352 0.6663047266813492 -0.42693270837278735 1.2471786372917038
Ni 4.147965832974893 5.8608990162159325 13.038631966434217 2.43927653155918 0.5153904841955641 -3.2806160479236017
Ni 7.452454606235431 3.587740191034741 1.591111186932189 1.2923701462266775 1.3905104394445407 -0.5679787998152411
Ni 0.700092255273318 1.7225989503900314 4.302735689008952 0.8389684450290842 0.5480928595245916 0.9955938789670338
Ni 3.333652725865256 7.941279485481112 3.8270966196996645 0.26872758865254365 0.30879720297991975 -0.7479873885638214
Ni 7.9327339844480464 2.764492730190643 3.8232071668459375 -0.36115283376350055 0.3089710095536227 -0.1850070704044362
Ni 1.334320269648235 3.8496510022204116 0.610461707601485 1.3013363542810297 -0.4119773726145356 0.7570492416557736
P 5.981832206350162 4.790776381973484 2.794228851770272 0.5929429259597465 -1.4832048790564842 -0.38883075929474326
P 1.3951572006214417 2.9916289997943077 7.206683959676999 -2.831932578137284 0.2947684928009956 -0.8042863202658664
P 1.1029529123174733 8.472322658021241 7.336715377184136 -0.7592405928801376 0.6291715692744777 -0.32834735719770547
P 3.511719487911776 0.18454023368500244 10.21299307478878 0.5530558599568217 0.22050397775946542 -0.9685206768993255
P 2.6988321740405925 5.518541987829501 0.7008773673942323 -1.595945952906658 -1.0440422042764084 2.7332055591780153
P 5.57675879226711 8.073619021522966 3.2932703728252566 -0.1918019818390826 1.4779279469282611 -0.9069070178525864
P 7.979525926182728 7.329743803751961 10.420072877558285 -0.41080803489678286 -0.0036054579630712103 -0.20300582097470202
P 8.129150890641409 1.2657896102259742 0.7222550075733731 -0.4551798761439386 0.3162446603969005 2.7737058332849065
Ni 8.774239005462464 5.938938050027096 8.814381566003268 0.1747105735744346 1.32741788185943 0.5096476681745158
Ni 8.594024295160612 5.2284671309855595 4.382982850660188 0.13984487204550108 -0.17112645576760205 -2.3241702999109393
Ni 7.13728949175378 0.6723624284649401 9.57131760534236 0.5665785770336048 0.9151746571780175 -1.4177587336375326
Ni 3.0248759057636856 1.4301261685541462 1.8532886399702462 0.5437045006489089 2.6681954728552175 3.117545886801573
Ni 6.4504830371115 8.755888861315622 11.397680973260211 1.14722597345545 -1.5605539465606093 -0.07190218545694069
Ni 4.574361336851172 9.30228245716325 1.627698522774514 0.45012714421137967 -2.358304008369854 1.4879542208160115
Ni 3.5741303464858727 3.016969234168629 4.222719987299024 1.084882892441854 -0.6172192820086081 -1.151919008055745
Ni 6.13504017070028 6.491340345951062 8.662817893076198 1.9287827133342847 -2.3772265563059705 0.8900254116058993
Ni 7.220096600355873 6.479359979388997 1.7343552637289108 -0.11081351781015754 -1.4987243148483222 0.2986241191016599
Ni -0.2402257922044742 1.6198492532449016 7.865337478738192 0.16687513669041584 0.007962449380186287 -0.2476363151998832
Ni 5.3123759889082764 8.369980330372812 9.288029153977547 -1.6215921927198524 2.2376418799003917 0.45406067493783087
Ni 3.852641464662102 0.6163907854580124 7.860025936005072 -0.9297818655682311 0.3352271150366743 1.0040954886801416
Ni 5.2720649255302 1.0427270355893177 4.122079353139086 -0.42055020188521125 -2.2350828609239635 -1.0375655954131293
Ni 1.3014807331755576 3.9915637214347344 9.24031692751623 -1.2421464741844348 -0.2860743074611073 -0.6181312522999161
Ni 3.095147143944578 6.177952843818651 5.370753889465035 1.3025617420476987 -3.0241531355710243 0.4167660522524307
Ni 1.828996456210164 0.9567998469784014 13.775405067366147 -2.0246609499908486 0.12520706752766825 -2.2983458826486673
Ni 4.038716740677854 3.537383766203928 11.817248408867925 0.29611343686466424 -0.19505417022779312 1.6352738039720032
Ni 4.067214088651608 3.9756300190751412 1.9277085661391296 0.2920114988811487 -0.3789883192830247 -1.2727400307005758
Ni 0.6886812801668689 1.8985270225788722 2.0282806881564404 -1.695157624811829 0.8751058141815897 -0.43741483885103377
Ni 3.2637610819881084 8.515337173513787 12.762172509177734 1.9002424398027469 -0.8748517891892545 0.35265765180829584
Ni 6.282683838061371 3.9225145917439455 12.61192352871729 0.3797894750280814 0.763176437599434 0.030970480239585367
Ni 3.0363007684666132 8.080609111750444 6.368700833129514 0.35645645672909576 1.559700340311062 0.8629907760856104
Ni 0.9561795343356978 6.885942512289374 10.783595528817619 -0.6606339015488171 1.60733953945558 0.6790031480846241
Ni 3.289295742713128 3.3222371215599806 7.69497925857697 2.696988742937826 0.024905762102744203 0.3373397905043029
P 4.577296248906949 4.405867757977122 6.157094599747803 -1.4857032199983058 0.7734289685653777 -0.507288681024036
P 9.342463902974195 1.9274502568446306 10.054559670803709 -0.3885353395415115 -0.3964952178185365 0.289024905448999
P 5.708515049256868 4.279083260526643 10.433190175352053 1.9411540904154443 -0.2859089855278366 0.9619445663437046
P 8.400551559420679 5.962871007958269 6.237924114611368 -0.06766577877808991 2.0566904676225675 2.470478925303913
P 1.1731130497265372 8.219883187633863 13.04143726092286 -0.17584417295824556 0.2460214053042795 -1.3926434266271435
P 4.550058043013908 2.287805610267116 0.3867473417701073 0.1406578548650997 -0.19835083870119388 -0.4685259584335415
P 2.084611556992277 6.097617727389718 9.127170049807576 -1.6203431508041 -1.3612242888859136 1.0129614237112037
P 5.465056224592213 7.805393983138431 7.070392013677383 -1.6194864592307592 0.1470483317724758 -0.12977103274926685
Ni 2.591119975753834 1.6802510395284505 5.973213563975644 -0.24267537165018208 0.14166187064958183 2.1918024529687736
Ni 0.8048926874984303 6.1291333129981185 13.162213058297 1.573264195038426 -0.4297375248114341 0.40257510546402925
Ni 3.831356408459484 5.944937491705781 8.09153772433921 1.3567515978265408 2.1667614508397457 -3.9389637245414035
Ni 6.032670067858894 0.5197451498850383 7.181492785504879 1.6674727573020507 1.0606001086350896 -0.3670236907219808
Ni 2.6822040918570766 2.3772880235765124 10.368621184285207 0.10675605991133227 -0.6779808774676969 -0.8875304130981876
Ni 1.132015022548016 8.948111713372496 3.0775311907315626 1.1811593929781015 0.3304350929646696 1.2916576935406852
Ni 6.1599822939755535 5.934651411914085 6.373037466589848 0.31159199211623756 1.3446051922719942 0.440814351450886
Ni 8.769628323431622 5.062047433185622 11.416544032636992 -1.394810095261159 -0.17815482336929317 -0.5335342449841264
Ni 8.548491495506642 4.20977489570159 7.326119141071089 -0.21563096593788028 -2.257512136461757 -0.7499614815710568
Ni 3.83554120419832 4.519625689930826 9.635533851458652 -1.1932919145755772 -1.276671504544498 2.094651006026741
Ni 7.993848667350822 7.011403058875574 12.869629175689289 -1.9850507917983942 2.1277390468299613 -1.1686242366255681
Ni 9.193292600000476 8.357111157636128 1.162594584153769 -1.2134617046552327 0.5782182181550622 0.03347679160120686
Ni 5.747937306460325 6.5274758719879555 11.058509759505935 2.1227526493589637 -1.2634120684314305 1.2217722814034573
Ni 1.632357348473147 0.42368834840274994 11.429104900731854 -0.6846266649189887 0.15277854938803367 -1.0245488714384872
Ni 9.285617341389125 8.98687662434264 9.490840835429347 -0.29513513211179493 -0.3610854708606749 0.15157810132202926
Ni 5.31752365800295 2.401970911717521 5.825362508507141 -0.5342454121185379 -0.36661797064312984 2.3105146568007173
Ni 7.866008712567983 8.117411242418303 7.609027998132157 0.06002548862401275 -0.87047551449843 -0.19819528695993607
Ni 8.02326259669215 0.36461329050277425 3.1557183589051636 0.5476092350199536 0.5891464350317919 0.2223945099139589
Ni 5.846048546381656 0.3965362456078749 13.406354226868629 0.38631030686573464 2.757163869765826 -0.7346271652068316
Ni 5.830364820758675 4.053002448255341 8.173573608416868 -0.15381393263108348 0.6968795141444127 -0.9619054855756531
Ni 1.8407823964215309 4.201025709920175 4.997692311104544 -1.0656973206523388 -0.2963414937150703 1.2758821758739833
Ni 4.801367988887705 6.521606047876403 1.7256958844047228 -0.8367177013216944 0.6357109130548922 -0.27410813623816666
Ni 7.9202629228104104 3.786138394325693 9.592172146054146 -0.7661835998568741 -1.4733845505319527 0.7581342471898362
Ni 5.753621962618832 2.3217283792651116 2.2565548148315715 -0.7380446755288128 -0.5839106405541492 -0.2629480058562891
P 0.6783850161377556 3.894711623594114 3.290289168781219 0.0640610921459671 -1.343235308507661 -1.4247639613107719
P 5.5661394101599315 7.581970330993335 13.249980816361193 -0.07904933802468321 -1.2775636773414643 0.00362911211215504
P 7.090627167586231 2.5015820120585244 7.401256593058025 -0.5795575057917761 -0.09331767501823929 0.4303304212004266
P 9.13968647759371 7.214847088887025 3.3333120168316515 0.4090352592670762 0.08348860474295944 -1.2850126774203419
P 1.6051006257848013 2.7878794426603313 12.191922800099446 0.05702912499985017 -0.6058578342492017 0.9163236831807962
P 8.078164894770241 5.028291315345367 13.501358348537854 -0.4626913540296354 -0.38126143158791753 1.0980266289126637
P 7.315328478607343 1.0417734206311318 5.1089828800839125 -0.6603048003441725 0.1412270971050084 0.2746768642574431
P 2.7929160109831774 0.740711623293216 4.239129571297945 0.3906572709805207 -0.3745953324216516 -2.398447670468276
