# total energy = -340864.74333937664 ev
CRYSTAL
PRIMVEC
9.30107049023447 0.00000000000000 0.00000000000000

0.00000000000000 9.30107049023447 0.00000000000000

0.00000000000000 0.00000000000000 13.61305682907232

PRIMCOORD
 96 1
Ni 8.561058731063216 7.734677219068379 12.60204274623441 1.0993160371480486 1.0845365648460288 1.3654966910090227
Ni 0.9831882595943446 7.383106055149181 10.892692009308295 1.2499659702288537 0.7239041223623726 -1.9220927029086188
Ni 0.23147109105730612 2.4865109838223938 6.370856600770172 -1.4526120938712916 -0.913656163650962 -0.16758321850103397
Ni 6.238023362390532 1.3207427102664662 5.947163075961473 0.43621464789534553 0.4749159211202854 -0.20440192999128026
Ni 2.8172756530277825 1.4677368284859695 0.4618716288997891 -0.3810097205884277 -0.030709256158398725 0.8623868239530244
Ni 2.6378673041075094 2.084890759529926 4.847065010687551 -2.5928148419313732 0.892495727523263 -0.40305795863771876
Ni 1.4835114440579942 0.17447320091171406 9.485400977803147 -1.587356925686066 -0.12930154931201604 -0.7242769323207591
Ni 5.194824595914876 1.063530906593843 12.233373424410699 -1.2197917606383186 0.26684836935195977 2.4778590198180677
Ni 7.881122574128241 8.965832018255988 5.573089832175885 1.5072866025960365 0.5413010334137387 0.583304374428718
Ni -0.11190582974930098 1.2678940276719828 -0.07703983686410547 -0.18126380131192008 -1.2155255291627969 -0.14928030642678808
Ni 3.0727481565164627 9.139780638791368 4.705788260505856 0.8056289503366899 1.5905849457050607 2.532449967690071
Ni 6.82665091020371 1.029823827093243 3.4679943571936533 0.34796873097305875 -1.447929857904274 -0.4774479435135197
Ni 2.0279589069849013 7.916401534543743 3.205888330222681 -0.19043209807474945 -1.1653663918099026 0.4191504933242071
Ni 0.12385584513074983 1.9554942667009128 11.389118975338501 -0.6582893125760404 -0.5131124867946647 -1.834372833693131
Ni 3.261634296278654 8.763719756239423 10.754355327512402 0.5694916369153418 -0.35820197866529274 -0.07160085216643797
Ni 0.6805444469458299 1.8310645455201668 2.1901230711937747 0.1721556683630648 0.7916478055662496 -0.24995442181009855
Ni 6.281319845579078 6.959953852643721 12.51954690141361 -1.400506374314988 -1.5276798215404075 -0.72933352090806
Ni 0.7376213961906922 6.788218886887906 1.7464601480164812 1.1959496639133984 -0.12407063993037988 0.2771042427520131
Ni 6.842685955749801 3.1687166019599475 13.241311832611858 -1.6119598118364111 -1.110419346150062 -1.2169776882282912
Ni 3.200070510623447 3.3122507219525676 1.8172747783933487 0.2184992886246108 1.1994548488531793 0.4333710077989633
Ni 5.475289075843432 2.198131292896318 1.522157391995354 -0.12968438657273149 -0.27165941758735795 -1.171457335198989
Ni 0.6565858194387674 0.46723648636555787 4.2741730139502865 -0.405617748945095 0.39204952334235704 0.7210584253834614
Ni 0.9193643138070611 3.2539144077616844 13.106773708009133 1.6211872439719501 1.479031464405085 -0.081952113493775
Ni 4.480446574909614 9.071231749188879 0.9682163264066749 0.7932873980522016 -0.2678279596564097 0.806363000289237
P 8.87451410806369 8.086443705468126 3.4121395686128024 -0.2702471106208636 -1.0053913246734298 0.47658868083701794
P 4.335973046796254 6.559087015061945 10.963356892450074 2.8065858718423793 1.3838448544989073 -0.03832846326655334
P 2.4341459568940333 0.6676596739788927 2.8013624515052724 -0.021685455393233622 2.217575962388452 -0.7042269556484194
P 3.9433841619615912 9.195168513633 6.9617712818198845 -1.0459201380254115 0.7931727268512081 -0.6385542960409583
P 8.991168134304452 6.899794528634373 6.317601461394735 -0.9955337151530597 -0.3955675637979446 -0.29174410415237495
P 2.0049480585620305 5.583172192600457 13.48683684119825 -1.4238831013677156 -0.6005281945061721 3.01425130307628
P 9.427565061205293 0.34714757478826913 7.47901311352735 -3.9109975783457798 0.9934706619764437 2.1241965808943415
P 4.183044845596237 2.929111724748316 13.350556626090428 0.7415524315717551 0.002416065640660355 0.19133609794625758
Ni 8.253621146677778 4.66111986941821 4.686921038991793 -0.23237064729006435 0.17021988479293262 1.6512840633573302
Ni 4.121211328896461 3.965502107616234 5.174405025733967 -2.2151904928754105 1.6498432171457458 -0.3378992625521987
Ni 6.199163489831617 4.9820347049615865 10.48939108157605 -1.9217592308285998 0.6521158367754769 0.44865184521743384
Ni 7.020578230178188 6.96892938567851 4.905560373184025 1.5256756466261852 -2.3688907827467656 0.010080267054137478
Ni 6.6910133990676055 9.027591126391746 13.320648103783 0.5255743667071012 1.0294103132958465 1.239227243655111
Ni 4.247826801645265 5.141631773711804 13.30865530347724 0.6515432521014586 -0.6098168188969497 -0.20745434366435883
Ni 6.163986841191643 3.942082012091259 5.9796851990800715 2.688039247054022 -1.9605168112127718 1.3466258222464484
Ni 2.6011745809756484 5.7264737858305175 11.60159169978766 -0.28674665093778356 -0.8710218739202032 -1.434857083880716
Ni 3.2379072654271 6.605052905484673 1.3691333897691624 0.14890363981365967 0.18395111833609612 0.0717556325767474
Ni 6.26980512029714 5.031990754629832 1.2093270469326405 -0.1602198361574273 -0.1749615132429761 0.3875382657355648
Ni 7.858920918839078 5.405847283472715 8.794143557852685 -0.8235557100184396 0.8994094239239607 -0.4326161319108097
Ni 4.570899485545191 2.1771573789134666 3.720843028693613 0.8975479452351897 -0.49576319688293974 -0.32669156676183736
Ni 8.139069162370552 5.661608120146969 2.5942806275192893 -0.382739815905657 0.28802346076767815 2.9302806164905797
Ni 2.639681012855472 1.5335233001492539 11.80669983661304 -0.6961079260857109 -0.04270756617085548 -0.8329824026489784
Ni 8.344613519402495 4.122169339158205 10.676488625480635 -0.5877518686771103 -1.6474685462659822 -0.6114237583727534
Ni 6.7102573139370145 7.736769959931412 2.7517431005892132 -0.16396387658089182 0.9145545070955153 -1.4701714429112938
Ni 0.11370837721266086 7.428262752438202 8.438053003776384 -1.2741312546211476 -0.1353701241035991 0.3535850487185717
Ni 8.619636873087162 8.870989002343292 1.4649688299044632 -0.2862740821767392 0.12583184559586072 -0.07104086589790991
Ni 5.790930204411962 0.38072629951593623 8.194080343856838 -0.37914644212744375 -0.2856886419869144 -0.004550595485159905
Ni 3.123866839997505 7.032223170447159 5.2432189958457736 0.4043309118128714 -1.8022962648735605 0.45883804172181625
Ni 1.1481055406719207 4.210557412142256 5.172294612836978 2.724261719721166 -0.3817501982988781 -1.2029178677011152
Ni 3.5568130697419638 4.970678097878189 9.683688639629137 0.8914050655622455 -0.08072903971995128 -1.9700026392160201
Ni 2.7434158521684386 5.515497603625191 3.2896900453420117 -1.4004392685224785 -1.812938060858123 0.9320961155237043
Ni 1.1663263377860695 5.172660144907721 9.304769538111811 -0.06749608596944505 0.2574705276814856 0.17134011444030492
P 1.732603413182046 3.325830284886032 10.725442019748725 -0.18980860555813764 0.8802565051445936 0.1905943346842266
P 5.406275132715825 7.012216567796554 0.9411697434928243 -0.3549245934656017 0.8274167356357427 0.1881715841753469
P 7.608564004126703 1.786717041364852 1.3902607714153028 -0.8096578689904249 -2.5295891012025082 0.5442302912453917
P 7.808862557395306 0.39844762914410753 11.522840465951118 -0.28698139265640893 -0.26074894132244125 0.11956272475769732
P 4.876421049407141 9.199140070737512 3.6580459210897915 1.975169013908308 -0.13561592156581806 -1.1795038596525491
P 7.772941823115142 2.416408815446008 4.877054452308353 1.0565035699682128 -0.7726118719807211 2.309399826469984
P 0.26024581287049753 3.9556894782362306 3.056540111059027 0.7146103557652724 0.3031181503172715 0.015658275362547224
P 4.670746477388166 1.3913657385909848 10.294670380287721 -0.9387853546184219 -1.7822714850122015 -2.4141144304712556
Ni 5.736584049466598 8.542856536090072 10.479249194300262 0.7749220081711364 -0.19794280462949781 -0.09024443540955426
Ni 8.491961078301086 3.5904178374670375 1.0940402780557268 1.7838025769447472 0.6427894171682285 1.566764189136379
Ni 4.6307239710164545 6.823711771924961 3.433362751285117 1.1406007548294486 0.4447494248392341 -0.08866912050263438
Ni 8.58282323603877 5.768951774814855 0.5728575827764054 -0.7578833075212948 0.5299573262661454 -5.042850925999902
Ni 2.0995678487826708 8.670262599831577 1.0380338820256876 -1.553849280846924 0.028951392927027562 -1.1314869654536384
Ni 1.9445283045786153 1.093926804995598 7.12229659740624 3.2798899683908544 2.4651994220725286 -0.1449287143263117
Ni 3.098949272121647 5.736807275158654 7.202423459570083 -0.4949766964259024 -0.28472216430858704 0.5639264841227385
Ni 3.5273565794609487 7.593477667771855 12.858947614580455 0.2420243683297445 0.48846897721437166 -0.2422701657919634
Ni 4.1466404556499485 7.865134033934663 8.560339758313384 1.0378124213166127 -1.4527352497127175 0.3648523941022748
Ni 5.35040360220807 5.388258959152728 7.962808295708283 0.4969785573472795 0.04092810567292951 -0.3085768594389976
Ni 2.748875580553331 2.182524096593336 9.110402277502573 1.186411899626292 1.1341318592756533 0.17077267197260912
Ni 6.6600129310831955 2.2786413591648587 10.90219398293352 1.194847431988155 0.4093142239600757 0.021092559004241094
Ni 0.30074081362372923 2.8041797457604414 8.978954898627785 0.2757767821898412 -0.38005044199895194 -0.6505315230074925
Ni 4.281338558665315 3.306400348606575 11.10969714541326 -0.2976260168544487 0.567784681526564 1.465317200142786
Ni 4.163707920021803 1.9899361307712002 6.554536931372185 0.046578104869855266 1.1203286348439738 1.460100431828537
Ni 1.381004346051341 8.333396428376632 6.604715276625437 1.1002817434954277 -3.287094970779726 -2.130994063432149
Ni 5.494765517475401 8.405423918347008 5.630087722321477 -1.4262608575712727 0.03567559902473856 0.11009258048373297
Ni 0.802264766289235 6.3873892535881405 4.492717477223395 -0.9639618538840494 0.8824815378203704 -0.011552737834605909
Ni 7.845294850553101 0.9676833750668888 9.28946834702836 1.184309508571309 -0.2966119737676376 -0.34447434466655513
Ni 6.902612752996591 3.3645413403169084 3.3218987223846788 -1.7779309486553185 1.6294865078662648 -2.590834321166235
Ni 8.08218381517804 6.8551307880819765 10.666483463941232 -2.126728603287576 -0.47569316560594205 -1.6993140701823635
Ni 5.412367333894879 2.8968649133165885 8.924298087927642 0.6703858387292584 0.45501866797572604 -1.6053042541931064
Ni 9.191206257598989 4.81974032576568 7.012834158877912 0.3506920434414928 0.16921098391244407 0.4451173497016141
Ni 0.41119846669581067 5.370000957756569 11.765561201781043 -0.5366033708277532 -0.12679549506071067 2.2347748427652414
P 7.63112840116546 3.3600117189822534 8.094758862497248 -0.7584759467999711 -0.31049721639016203 -0.024993179610227925
P 2.208129943686369 3.7354773330220468 7.143288183423046 -0.18105219952174625 -1.3077039483702704 0.04653850988117146
P 7.347836395804182 5.075873205260028 12.44840580346211 0.814160899067101 0.22703483689944767 -0.42913434400979644
P 6.393658175106739 7.202972222729723 8.625845337647496 0.7041428805750454 0.5594481366364107 1.1131663127675797
P 1.3121485211222736 8.53948024749771 12.56109385324066 1.2930430039239862 2.132058500140922 0.8130553247077482
P 5.323570013808723 5.7977013837376905 5.67227458779909 -1.1969325966519582 1.8437488755913924 0.34474868137386433
P 2.1801244204037236 7.2383441938502475 8.891939663649886 -0.6067237817939228 -0.33633140384444654 0.3656458365378477
P 4.689441629097936 4.520627199479866 3.0884353420257646 0.27134754277389395 -1.1317556457339928 -0.6307725952130104
