# total energy = -340892.2424804973 ev
CRYSTAL
PRIMVEC
9.09071666419970 0.00000000000000 0.00000000000000
0.00000000000000 9.09071666419970 0.00000000000000
0.00000000000000 0.00000000000000 13.30518274178243
PRIMCOORD
 96 1
Ni 6.383146757649761 2.066383550269944 11.451864054488388 0.5174496807174379 0.08789444712013894 -0.1163655579766383
Ni 4.421333722052727 0.3870681736893883 6.0268888411393196 0.17915164006492373 -0.3675371400232896 -0.12736370885935486
Ni 2.7712686356583447 1.7228180924734309 4.814467221951779 -0.24674825616797502 0.15690105619683947 0.21802543431198582
Ni 3.352429066200331 4.385698112427602 4.675641068455044 -0.8586363557716568 -1.5672668398044105 1.3316797424595774
Ni 4.963367707741004 4.828534197036962 2.5616067082432594 0.35812973066646064 0.2579963182779686 -1.3330393418112656
Ni 7.185538870803234 6.1614423577677355 2.8252756747455643 0.46992772387707454 -0.8084630773513753 -1.245089615973159
Ni 5.230980227165601 4.4877595892799675 11.588827520124871 0.175949073967226 -0.049428429834456805 0.0561876029351613
Ni 5.748014741815846 7.976031235742604 12.361579351343979 0.2499629064505308 -0.9269616225106164 0.6654506062111701
Ni 1.908595979794616 6.566051978480757 0.548535666301515 0.132414641019701 0.2724567166776727 -0.9026402721564325
Ni 2.796868094001291 1.627856465395867 0.5750723775404694 -0.07755964085303417 0.4433093499585978 -0.7407589891361823
Ni 0.3925071495155903 0.42553190529267 4.759689290084913 0.14918234739634306 -0.8714342788672733 0.7454926471664258
Ni 8.92092942452961 2.480874780080544 1.4570773516258282 -0.7201081456550501 -0.5273952219659239 -0.3125350727557972
Ni 6.679340490508386 0.7046850896200965 4.755923915210748 0.41660792940801156 -0.16731325266909894 0.048005324234685065
Ni 0.636401988962648 7.43617902207219 2.433651233825535 0.7301148791587748 -1.010726363733098 0.6198310085998423
Ni 7.460623959389017 3.855963866490037 4.098209649920259 1.7103703279965252 -0.774755143575969 -1.1757371935212655
Ni 7.674964878710748 3.8478822193071958 12.88756004033914 0.5003611006662674 -1.5250246433057477 -1.1221235219608674
Ni 7.705182421158175 9.056662916191023 6.94346944727779 0.9741279957837738 -0.9284150671276914 -0.28781725829414306
Ni 7.093368093765188 0.6810937706052594 0.18067526801440367 -0.920350544952002 -0.1825984609629436 1.0386395452035984
Ni 1.9866761458839512 6.486426390545434 9.32133186153485 -0.4945810036493805 0.5440577702232694 0.11938351886735568
Ni 0.18001800919402192 4.967331260240125 1.4783387199399205 -0.6424410326898742 -0.2580999337353684 -0.07963323555261125
Ni 6.356729134800115 1.900596149062445 6.988640309692658 -0.8925744032799984 0.731692765168856 0.03932502285186776
Ni 3.3777648937577855 4.51307723540394 0.5185508462026602 -0.018126020176749427 -0.9671957874403149 0.12838135149059182
Ni 5.777368666172867 5.219735010556856 4.641899055127091 -0.06988592635786028 2.955168380871194 2.049589080691096
Ni 5.475665958969134 2.9003840855322336 9.109193622879488 -0.2795485905274476 0.043180649152532086 0.9684746541527385
P -0.02734123967054197 5.494065569653127 12.628241890869127 1.592557238940083 -0.313208444673738 0.049977874580023604
P 4.212519958509587 6.175078432879391 12.826794962426586 -0.33243361145193717 0.1676050728779049 -1.7475369097444935
P 2.371604364852484 8.638880846920143 1.5197314804771855 0.7356926303568685 -1.0860676567785748 -0.6215667603440262
P 6.375283287668707 7.626993166467947 5.863208668072407 0.228918941296038 -0.0007970419799986273 -0.9609225528370935
P 4.87705135228423 1.0031515016639965 12.670778263572425 0.10325138919218346 0.9647231575301064 0.2078307531671711
P 4.023660318213167 6.3080847095184716 8.106368477946496 -0.18366572588519336 -1.3535603445827527 0.9339038581564045
P 4.749844952925973 1.2150379274656298 3.760111349171845 -0.48252381537453026 -2.086515264293484 -0.08433912566871281
P 0.011292488335798389 5.458566320779119 3.684737489456336 1.0599840723176452 0.906937871090522 0.32151105100216243
Ni 1.5355038740229996 1.0618502596612998 2.69983469257843 -0.49570200462770114 0.7639459687756068 -0.20057484293570618
Ni 1.809152629363688 6.6533501313455705 4.714465701512948 -1.1866147596657177 -0.4975370009539109 0.5212382012255927
Ni 5.912574896263295 5.371577252283503 9.241473551250953 -0.3397530279314858 0.8666628256205591 0.02361275432293353
Ni 8.677734570271618 2.28645162113857 10.277455267353771 0.4997044409188749 -0.20891832980439504 0.29463068167155065
Ni 2.2448525013312817 5.733587774347715 6.949057510858546 -0.4385965178639608 -1.236922506781334 0.07266194644110066
Ni 0.8173417968342178 8.983619007176259 9.18655016791623 -1.2585416277130068 -0.21027175850849592 0.12636200706771786
Ni 1.6473651435222743 1.1380759195354502 11.711487652040903 -0.45550872023826716 -0.11904927545638852 -1.054046880897604
Ni 4.285136603837518 6.999633713447674 1.481252294655444 0.179967965318632 0.48401531231839223 1.0316957668959135
Ni 5.638898868772383 7.831588837443214 7.988937326299948 0.1393000552856246 -0.9392003306686535 0.21120532606635886
Ni 5.320269246996717 2.9696280749492163 4.770719965778569 -0.3553598812308073 -0.6407330488598321 0.8565452775705829
Ni 0.7054914361950322 7.6371747692179826 6.895744093458673 -0.8995829733873475 -0.14330789089343707 0.18819292433158558
Ni 4.732345323199349 4.530567774413822 6.79526258317591 0.46899955563585033 0.6055971243886473 0.7766793571818753
Ni 8.140055037902329 7.321408723215763 8.894022721119294 -0.3074723135209092 1.2291505761453994 1.2466199365747563
Ni 4.605993451214755 0.21008100945685018 10.603712000475223 0.9508973073906074 -0.8833405433865562 -0.21732172337674185
Ni 8.370841063808715 7.328299486505519 4.681628214500734 -0.8079732821991504 0.0794486303456309 0.6107609279777739
Ni 7.126558300586957 5.977046259391199 7.271854317188335 0.15956214796877036 -0.6859502688264186 -1.9594202357144834
Ni 2.2438616132065015 5.303060520205808 2.767956887549561 -0.1827270161210079 -0.367408070644593 -1.2721072822125834
Ni 2.316996429388677 5.163836193315813 11.510592811850938 1.557096584139628 0.8950097521943684 0.7772262308242808
Ni 0.8683907166938827 3.259840116192195 3.728205660625595 0.34385059503962717 0.741906215366748 0.4998520222403327
Ni 3.924580596451884 2.8133859263198757 2.60017861937576 -1.5128666677869753 -0.589480678442759 -0.11775369657341656
Ni 1.3876160940787328 3.7608022436441684 8.192440293122935 -0.4309680547844255 -0.7251907023842802 0.15324520461180705
Ni 3.665004270626423 2.6352896946449227 7.590473939175586 -0.8152433334980025 -0.6866789194623271 -1.1020005259587475
Ni 4.034987351272582 6.895445008877891 5.933885354447789 1.2739031977707413 1.3140545731786466 0.16687025159440938
Ni 0.6212541276569477 7.064968694665983 11.395676152454978 1.2747172090316046 1.0096076767476225 -0.4364887274923385
P 0.18074253931828785 5.734369575987449 8.128561644726553 0.5776638883134889 -0.9756261775958551 -0.6115641406053597
P 8.552873575832566 1.5298676296435156 8.22659411591926 0.2506709882611489 0.3838626166561905 -0.4120215955889097
P 1.8992870858517261 3.130542851983484 10.44694986284829 0.4294775862818281 -0.3931802945126906 -0.6802804721351511
P 3.9200625102315554 6.234995346920003 3.9366576136424394 -0.07602597781732713 1.16271404178872 -2.3373333196554587
P 7.171530076305194 3.9294804927753386 10.442666317119883 -1.1096636989309598 0.3357691035830733 0.10309480900966117
P 6.39080114114577 7.6994643603280215 10.235211615729538 -0.5587061162640635 0.1506440195435341 -0.07848600932204547
P 2.2136258893255922 8.636771800636208 5.7100519087049975 0.7237385433187857 0.6053860368191057 0.6174216278274012
P 7.003879078165769 3.9926064298255586 1.671463724531265 -0.19848942116158722 0.4636398339858337 0.7591256645688281
Ni 5.357695727819838 3.0050364166558134 0.6636050497387251 -0.38847183329342777 -0.3331725465004907 -1.8110241316648616
Ni 1.327635545020934 1.16370265002862 7.155434053243397 1.26050723607981 0.11089605022163482 -0.4066225360605255
Ni 6.7243759012438105 0.774559974778912 9.172593190503616 0.9571743986485709 -0.9985748159722286 1.4085174175449227
Ni 2.9369560389816916 1.1355487002814233 9.342899587003117 -0.7559737492034078 2.0411484061229106 -0.5828955690260735
Ni 6.469290389488454 1.9555131688954495 2.4628560704280034 0.4274361303717671 -0.10598807139705617 0.6506587926139762
Ni 4.119294658329573 6.500707906545707 10.535416172814337 0.6384465668185004 1.709700041402378 0.7594018010483502
Ni 8.225898676088566 7.281273208803793 0.24466391408335494 -1.3424637204489591 -0.9096470424915688 0.16591971475568199
Ni 7.736099948794667 3.799755964879796 8.311641407318978 1.0819965720329947 -0.5569757638365181 -0.4231940672659615
Ni 3.2974938649338443 8.496656583505583 12.760189099007869 -0.43835560549774827 -0.6548358068098012 -0.5398583874299412
Ni 0.3743957145522905 4.72493638905535 10.328121468038637 -1.434099379779085 0.0033964272760586673 -0.850539180585819
Ni 8.64932608045567 2.325368979507233 6.094838312492369 -0.4483980773354148 1.0947806111715404 -0.4868214143086197
Ni 3.7816745292817417 2.514592248473296 11.382703699665424 0.1255351402910483 0.40178500546256607 0.23030630856186787
Ni 1.1178399840697544 3.4589904478395423 12.507350812430914 -0.7375119429537943 -0.6673452521307216 1.5175694725792832
Ni 2.9367833153636105 8.294288138131884 7.901110093720802 0.8612347126264522 0.046327422311629896 -0.5908407920150792
Ni 5.643253322091371 7.828552538051687 3.66250432352262 -0.534701268709034 0.1128014947744638 0.28656821637839036
Ni 3.011345374074139 8.39147699081102 3.6811184751217025 1.5064425094281861 0.590716350622073 -0.6052340846222737
Ni 3.5148710836471038 4.46874180985758 9.415638957007054 0.13953505411456615 -0.8482462707865842 -0.4022069234913331
Ni 7.467396543361139 6.033190525984252 11.195805836041735 -0.7317655273883205 -0.23045903208964824 0.39131804449297125
Ni 0.5907020468334481 -0.20165664225286983 0.2398494704972667 1.1639342873490663 1.683190425147624 -0.05507817192106643
Ni 4.663019517331697 0.4127558119847236 1.4435594558318077 0.6541485509347895 -0.5515661627851728 1.1920361877916053
Ni 6.359110902586284 5.586009078772644 0.26225536004906375 -1.3492858855771148 1.4421240498557744 0.8387810116086265
Ni 8.059347654674815 8.761069170637311 11.251953738921484 0.049774500319965886 0.7991932220136753 0.03528427712359085
Ni 0.007408934143999104 4.864015264477488 5.837063766724995 0.1422552812592066 0.10907056697712184 0.5838052253245365
Ni 8.214262558659954 9.072435309736838 2.397527452711414 -1.1111497965581831 0.567752542737048 0.2745915036324884
P 8.31352409475606 1.8016255159020544 3.6508491155888514 0.12920127628872588 -0.06953214256286734 -0.25098543417777414
P 1.8843510382460935 3.2721489466596485 1.6542868152489505 -0.04611067831513349 0.34649420331006137 0.22820006085214248
P 4.8632880071382 0.6747475412482954 8.209749926869671 -2.14470421392939 2.414467957155932 -0.15464722716565624
P 8.655480495689398 1.6504923500812139 12.468885262684285 0.6368280573784709 -0.06041166831883789 0.05747109763327522
P 6.501626068936559 7.8506338890158265 1.4848585819866398 -0.5310073647972146 0.20756130155586833 -0.10495165971274183
P 1.7866712868629397 3.3791466827024332 6.01962354031983 0.43161725833265013 -0.31391421249151097 0.21772384391116695
P 6.832800879814948 3.901253817294213 6.2307108921199195 -0.06604289846268625 0.6374695476172119 0.07992505576141719
P 2.433712141627701 8.485002284643489 10.469715744783036 0.3892480493378199 -1.565985659099142 1.1049601228077033
