# total energy = -340859.05579987005 ev
CRYSTAL
PRIMVEC
9.38327736361393 0.00000000000000 0.00000000000000
0.00000000000000 9.38327736361393 0.00000000000000
0.00000000000000 0.00000000000000 13.73337489785923
PRIMCOORD
 96 1
Ni 3.688481787689399 1.2237670024255234 8.768814159242357 -0.21396283420683795 -1.1250707775146496 0.4658062455095333
Ni 4.941205583317538 2.1329690225683198 4.95232382838098 0.10472797373770996 -0.5871327470358727 -0.002977851681401323
Ni 7.581528399944653 6.559070224923187 7.9564447440292545 0.504211584760609 0.6337669019546439 0.5884118708586125
Ni 7.387397779539948 7.326406478238262 11.025015636926879 -0.3132256710649186 0.1680141353908655 -0.1845221603482177
Ni 6.064984384716789 9.324960056014788 5.236109785043738 -0.7116600148876969 -1.3788265753487092 -0.15212908872949285
Ni 5.82595478327692 1.4397794250818488 13.201919977969794 2.2156023836018486 -2.194044712035731 0.36232345703283403
Ni 2.755455626930451 3.825383800918876 4.695647097655251 1.537499635844307 0.30071725418526274 1.1074522931019377
Ni 5.207183956655629 6.381745053846378 11.541885012316449 -0.31885407299528956 0.6379793973740948 2.683925996216597
Ni 6.045129370323809 1.6134075849720642 8.271035061160214 -0.32897007838336895 -0.15940993866162226 0.08779340276590042
Ni 3.027129649482408 5.638795937774853 10.11305117999897 1.6410608429674256 1.4278760245771924 -0.0076305199620642795
Ni 9.029809074100244 3.299601250589848 6.4352391167265175 1.4212379504353845 -1.455819545064996 -0.9044824675714938
Ni 2.913526313350175 2.4379630621852435 0.4865416853992351 -0.016779019230551747 -0.07764705836051788 0.6707699615415544
Ni 4.167113370473661 7.68442541687916 4.603674091947733 0.585981664150565 1.5525485597576294 0.5875202122822785
Ni 3.33723757513155 4.806959037513965 2.1964881787270327 -0.7114702674743941 -2.288365374397188 -2.3961375342778606
Ni 6.744990477844973 7.778323871052386 1.4853464954481947 2.4174699772070496 -0.5112119273378423 -1.3801751189568037
Ni 7.39488563468437 4.437220385746021 7.294949041682277 -2.2362118323220845 -0.38727447055121694 0.1813188229195716
Ni 6.61144767782565 6.979572405928382 4.089331633087477 -0.9121453834333902 2.3699652467578667 -0.46431243457282617
Ni -0.12369223569524408 8.790019427213386 11.252468151051975 0.1865600167138529 0.6582841703697179 -0.48765959393919894
Ni 6.004321498114421 3.631938159744174 1.2950076573290297 -1.473629319552907 0.4518235580771961 -1.4286553259453783
Ni 5.028122879311002 3.9135490727697437 3.502161807162159 0.5688293207409946 1.053745033386469 0.7374386665136977
Ni 6.234202404359037 1.9972493022563833 2.84092695991921 -0.08627953722453528 -2.4506539201581856 0.0332127393065428
Ni 7.7340441863073615 4.93710509121464 9.995836220501966 -1.899510960953361 -0.19626336004454586 1.063884178703
Ni 1.124876644822682 1.3819784380020972 7.103656862607381 -0.16940330242890825 -1.1947615571425683 -0.35391466414384853
Ni 2.684274086672822 3.8428648461996517 12.188946419464598 0.7973654247763171 -0.3179361891667105 -0.3532412922259078
P 7.595500099581301 0.7857255998213891 1.140588004037996 -0.9565874157968494 -0.7329965715819441 0.6840391678466349
P 6.809012577657497 6.476197121369881 13.272674579118311 -0.8995312942138057 0.5070192294127333 -0.9545061077877884
P 0.9014429882895096 2.9906850011353696 1.424494066647934 -0.823710233318433 0.5204090204560778 -0.7770462536029907
P 4.621498565171223 0.8219422345343302 6.667333538044529 0.11475450473577657 -1.0888423913102345 -0.012971472559003468
P 5.582139710504149 3.9723634537788164 5.789331852664538 0.18087556473456592 0.6016144855918154 0.1320685705341919
P 5.88940450318492 4.153610834693181 8.962743977516624 2.2657404379088204 -0.7585474234678549 0.686164955940386
P 1.622781478818277 8.632249005661608 6.299869392651281 -0.7591326065473636 0.3695639406453312 0.48278503945571694
P 2.0402528613126334 1.619009401414696 10.210832434245834 -1.424096245819786 0.010296239719685494 -1.2995226981110588
Ni 2.9227969911480316 0.6290342551387957 5.07640453174913 -0.470624492833783 -0.29400718915493884 0.06645890295418232
Ni 9.29248453389092 7.960181164979767 1.7876738077066663 -1.5722036149843954 -2.733920582967169 0.06368982484947741
Ni 0.8779679055823468 5.413700502863139 11.08685706313594 -1.095985687223235 -0.35574760358752927 -0.2458594258051185
Ni 0.7883416574833753 4.823239023322953 4.285444939948343 1.5298081807373203 -1.759072935408551 -0.395138446680326
Ni 2.166767586766577 6.699096869434736 5.64827586265256 0.6475639557387364 0.09642999539497586 -1.1273803994844325
Ni 2.3831647237849594 3.740568359001039 9.600136855916887 -2.168827332229839 -3.5572752327183963 0.1724444032480772
Ni 3.9536907323033765 1.4534039434649333 11.130296006250711 1.8696949060331929 0.7203855676861529 1.635295658348874
Ni 8.338899612954744 5.7092831155253565 0.7598268166332685 0.35792224264134487 -1.3457213081543082 1.4573503798872256
Ni 1.1280012761047529 8.348085841258492 3.9911656644785576 0.21755337977157374 0.3201655927178615 0.19474563784843882
Ni 6.852935697871834 0.5808389288502034 11.13875596890511 -0.03519197452010068 -1.426087308107886 -0.3701830622865689
Ni 9.11773976402303 1.6001114812882968 9.097454057210088 0.7506590218587137 -2.1351775053858777 -0.5073722418767779
Ni 1.4176630409021451 8.896303807189415 8.948076038717423 0.4980833603756842 0.958568193672304 -0.0648758747377786
Ni 1.4615298614537426 1.806299612796489 12.318864459531175 0.21472542340447534 1.1016433997296449 -0.7605652252288321
Ni 7.725392804799646 8.801176143713032 13.103795295780218 -2.248337154830708 -1.3196228112950434 0.30042543397645677
Ni 7.361509317956663 4.780610795351637 4.829615898455973 0.8945855201727562 -0.018375931404026418 1.1230774012337046
Ni 8.323942669220147 8.68229002256036 8.91028207512005 -0.5441212764713532 0.009326419607248455 0.12331936358665214
Ni 1.8286318123500296 6.561172078998815 2.262820441367322 -0.42392117523997314 0.7912942788815727 0.2481284243449533
Ni 7.227957134660217 3.9984958805673076 12.30543323665683 -1.3295881500378717 0.27511806555991974 0.16493318247269662
Ni 4.606860652858818 5.133422015189082 -0.06466766927860927 -0.3611124674438684 0.5721015637343632 -0.5551978460004889
Ni 6.676051540819821 5.449037924509623 2.6309432928146275 0.11242431394070315 -0.6174409111011108 -1.9175860732875167
Ni 4.8183503359416955 6.685294068786307 1.773514442527552 -1.737732522059562 -0.6407939840047545 0.7172439367333777
Ni 5.280598716868613 7.326293878912781 7.14454073936147 0.31863861455037384 0.9063146356842262 -0.3460889974518427
Ni 9.55893207108518 5.812489780604933 6.110280278374272 -3.24505820542365 0.13826081538783286 1.6929703873525233
Ni 0.19489348083483243 3.1911587168754503 10.336342210719868 1.0474936531601187 0.3347085235290429 4.052644536597027
P 4.576486984810579 9.051737792737482 12.435474197653726 -0.6611928593760805 0.09686271205702028 -2.3705897677157433
P 4.780385596700676 3.0583853455802417 13.085763452132301 -1.7928209783932736 3.0336734163566335 -0.8854542472954493
P 8.024907010576541 1.218061969934535 7.441223072102542 -0.37236721442208126 -0.32377002223966816 -2.2046813658139706
P 3.8285834984179337 2.259117800214453 2.5107904292503065 1.2278596252481178 0.3395200859850733 0.630937660035965
P 8.885728853871415 5.7259102825879085 3.1540347192646823 -2.2024877005967616 1.8936128503013712 -2.734923056089754
P 1.9267527412287573 4.681898720014139 6.941534477125801 -0.5222730702480102 -0.7059801908941004 -0.2885358816277224
P 0.5098544374121642 1.726391624814157 5.005691217019955 -0.45610393062010485 0.07714672168533165 -0.3502027625099001
P 3.5369418621475175 5.931516650914453 3.8296747735473775 -0.7775681875447318 -0.7005667331880129 0.8812342956768309
Ni 1.7918399827494276 2.182268760574329 3.2669633977717476 -0.46758622022809154 -0.1339285065610661 -0.05163392212620785
Ni 7.218189143174824 2.56293893019096 10.117267086410486 -0.5418522779315184 1.3168989846059773 0.22589738086089484
Ni 9.538664192498773 0.6979065708963721 2.136775818097257 1.0678012543692192 2.5596121299271593 1.078044272253466
Ni 1.391511847559407 5.052763365036884 0.359783933067797 1.9627197324013619 1.2836605342678216 1.3639337173972768
Ni 3.983801668592163 4.168849276741478 8.263605382333957 0.5242042258324521 0.3475861508226595 -0.9433698886653109
Ni 8.020872201413507 2.87785109372725 0.6964925110338853 1.4790042107115755 -1.106872252228752 -0.9180879741700705
Ni 3.9197326523940226 8.055684159541084 10.087589657524797 0.5075437344576356 1.9832574473433973 1.45108871524823
Ni 3.208198748131429 2.392069453775006 6.895169828203971 -0.5963951461744051 1.947371789190382 -1.3814634987509242
Ni 7.567415951151155 1.651794571683633 4.969544956885438 0.9660755577929427 1.2528031825673327 0.41225016665994807
Ni 7.943338182543378 3.5969291527970064 2.855347180202353 1.5073971600319718 -0.27542299839484824 0.8471592083699926
Ni 4.0048858922883 5.480509435981293 6.337197007375625 0.32438040213015745 -0.5119904573750794 -0.92020656317497
Ni 8.739725061832303 8.98575458800618 5.602736003789873 0.12099122967410778 0.054117350669693885 0.6193335001381334
Ni 5.647878950030243 6.507753082335661 9.394713461494247 0.09701517847448453 -0.817183745053825 -1.2518570166039795
Ni 4.8589330095001255 8.966406270577862 0.7129338892093952 0.34621729549959085 0.6014360510324223 1.5020482370152324
Ni 2.2056706537199298 9.181827546775416 11.28969911802195 0.4279989448537726 -1.3181343996749748 1.0515989335777438
Ni 3.22094123846492 7.545177584368847 -0.10599537504063178 0.43535358544663083 -1.8254775880860301 -1.1953464831117606
Ni 9.109688912251206 6.780187150334607 12.641420240612137 0.4674774625643691 0.25254969334110056 -0.15907672369191958
Ni 1.1519849324320006 6.699528500182408 8.040753488982432 1.0568426984751862 0.004707175667682216 0.27762514825248963
Ni 3.014940772499194 0.1552744698369695 2.255679767476463 -0.12601593658220878 -0.3123409544671202 0.22879167168955433
Ni 9.506573384736962 3.9187004919104558 12.843960153974773 -0.06628895303522132 -0.09195061946738359 -0.5192335120907381
Ni 4.953197411481161 4.13189793142978 10.959672371695389 0.03026702641465755 -0.9499395714630285 0.017654994077601852
Ni 7.57091591351816 9.141291789602604 3.2551395302686315 -0.2760395489329246 0.7802025398437854 0.22216465329133997
Ni 0.07101733290797096 4.384054737565197 8.628665532128206 1.8252094220263082 1.495868847677398 -3.406367417990514
Ni 9.531720567427504 0.5392316014299056 13.547602722176642 0.5457055902393376 0.04338145230942852 -0.08396168772463604
P 5.9432926637042405 8.748920673413172 9.317408394585927 0.8231497328292726 0.4821342932455955 0.23440053323589952
P 8.629180674042276 2.221021695093708 12.005894634359416 -1.6606179391637463 -1.8296849412991587 -0.0016717312754680887
P -0.3070086292153042 6.497337644728757 9.643493226192975 0.44584085813119995 2.2243284506209373 -0.025026346841008514
P 7.302910752321428 7.093710588856644 5.95800470390592 0.6290167888641683 0.5664150548725471 1.158493061728837
P 2.6607408276474946 5.95158748068127 12.058946744887047 0.8211255033103922 1.853866937862001 3.9090011167410417
P 5.295809009085541 8.585473369201777 2.867294906963497 -0.3405014760617362 0.8628113130849527 1.5199639409533887
P 1.586055332157539 8.457888950155773 0.6689619759540165 -0.15609861490020213 0.9169533463449949 0.8549671344501857
P 3.546981968669487 6.805550148398985 8.556056795420117 -0.13619210578426222 0.2525733474901844 -3.912408599760694
