# total energy = -340895.6685979474 ev
CRYSTAL
PRIMVEC
9.01478248453586 0.00000000000000 0.00000000000000

0.00000000000000 9.01478248453586 0.00000000000000

0.00000000000000 0.00000000000000 13.19404539430179

PRIMCOORD
 96 1
Ni 6.271710362700119 1.8674933191319911 11.103858228051823 0.4549034825541004 0.7046421888089671 2.3599772823072196
Ni 4.607202900165693 0.31565260775253146 5.865743156896217 -0.5711150314513778 0.02445170528446111 -0.08106071202775716
Ni 2.637022194059289 1.616025962477504 4.86040920835625 -0.35090467367293116 -1.4849329174911847 0.3499122278526748
Ni 3.117338818182169 4.322137449291766 5.0608925613435884 0.6745104024205932 0.33362788887035444 -0.10477553914619374
Ni 5.181597794015987 4.597403831634293 2.6311436544186946 0.016550191049197305 -0.08828782590381569 -0.28312576635574466
Ni 7.501020187311906 6.218703441849486 2.6844868266549944 -0.9321267116513238 -0.35866863388906617 -0.6118644454545978
Ni 5.014788259420733 4.35037174794894 11.513506169533159 1.2717650683818162 1.0936087023506262 -0.4264387994555043
Ni 5.799687338438222 7.889313912107701 12.438131672208565 -0.736021474451197 -0.14729438634501085 -0.2652902808362205
Ni 2.1665587271625557 6.513694168209221 0.3383022486772276 -1.5046447940978154 -0.6837085239800934 -0.013926894493737303
Ni 2.8135045902315383 1.7490120332918788 0.31389652812979285 -0.06728756950306476 -0.5466407004590972 0.7507281845337522
Ni 0.5547228355713401 -0.14032410373485377 4.530240997890506 -0.09079927947175975 0.4095538507747076 -0.024602371929712468
Ni 8.508782718245948 2.2931443024320415 1.2996503691718737 0.6827680144436952 0.8909391816694204 0.2953145951124527
Ni 6.82516391690143 0.8050786695488062 4.804650975899561 -0.48618403783493697 -0.1779537631020806 -0.655019383575517
Ni 0.9640768951445587 7.120389027605062 2.572812603048609 -0.892386198528592 0.9463945344242475 -0.6199053134812034
Ni 7.325736757206516 3.9145701196016423 3.807814361304118 1.3902942096686763 -0.5390186651374652 0.11384716243015877
Ni 7.65185552739231 3.9779079811486735 12.472462668241805 0.2693238274756458 -0.9762141888888414 0.6290579265147489
Ni 7.998915637227086 8.71193084092775 6.680870604450499 -0.7319676160967974 0.6697865145823626 0.6085420659495843
Ni 6.9221629761451045 0.7811894960361914 0.2694924141784393 -0.697245896344896 -0.4120730176521355 0.8206269664074188
Ni 1.8305777849681577 6.420003534127483 9.267167519099171 0.7253614236341894 -0.10143439058810272 -0.39678472403449727
Ni 9.101053925709644 4.857426216841033 1.247090581531138 0.5441469875029661 0.027334683259210985 0.02133552825298261
Ni 6.283132092073886 1.9600120314942424 7.0807167729656975 0.8602744055957119 0.1068802441940224 -1.325020585271847
Ni 3.6386456581397124 4.346576524534294 0.6651394970248915 -0.5447769077774811 0.21121895291311366 -0.7613039031670695
Ni 5.825956414519641 5.531903225535497 4.888657930665355 0.9743570810754446 0.7651793269620758 0.35054369078908665
Ni 5.3685012787092115 2.689524287092296 9.155638433490354 -0.6221588854020705 0.9782281339950765 -0.17073513386645436
P 0.306297066518044 5.70485182698437 12.264221193471466 0.756276110935175 -0.784212689444443 0.19863854514494178
P 4.109199272861021 6.066461795705699 12.47179016547047 0.347171431882744 0.8045542292152725 1.7270053654500452
P 2.2702647845546773 8.490086059428904 1.456939392013667 1.537664186446629 -0.7623531703671903 -0.7410292120784334
P 6.212735655862562 7.815419740302831 5.800366151557279 0.4777104531462869 -1.0304546953999607 0.15343906579016803
P 4.7797458364039755 0.9906073999172476 12.66926528555171 0.4592725581560736 0.29861177780648573 -0.5752262254062739
P 3.9492770320633657 6.116421720085665 8.216116904282027 -1.3609021296598045 0.06672706901390445 0.5818457876053205
P 4.455033372281566 1.0718756637724258 3.693580840958023 0.9363412639533035 0.27592770594540866 0.6928179424805294
P 0.21232156531064608 5.445045796556612 3.7288746157577357 0.6350146583188161 -0.7097723109466808 -0.36326576634144536
Ni 1.5802462909033272 1.1813782262847778 2.4706643000651596 -0.6764050483401447 0.8411428269725836 0.7842764528028429
Ni 1.8895615065881723 6.543028270326221 4.768987595019087 -0.45222927815604697 -0.8236480126219299 -0.3992406417741576
Ni 5.932195625782345 5.704896900896658 9.235977273274155 0.15436029205285673 -0.8614807671989873 0.10845221666683257
Ni 8.51315488773788 2.2721038001760254 10.147671971992393 0.1569275385594007 0.44129360508014964 -0.7843792969292943
Ni 2.136548516361237 5.4933740453117545 6.9264386874647395 1.1114269614789698 -1.9512351288005298 0.9648437422683706
Ni 0.5159836109163364 0.14081721233528396 9.114921365564156 0.4524799607142723 -0.8768076273640449 0.5468831554872066
Ni 1.3504324417119724 1.1215200707663768 11.382370833557328 0.6110388642295089 -0.12605373179867968 -0.45864186655061007
Ni 4.205296853858936 6.870670538747347 1.6653791919980747 0.44557500606432293 -0.11251404544103204 -0.13575424691589522
Ni 5.387261041003457 7.775745682706976 7.956668760717834 0.7137914594084029 0.7127653321367337 0.11792827447806786
Ni 5.13156575137636 3.0577330765725805 4.795296336143319 0.529414823499114 -0.8333608690343197 0.4663873148239838
Ni 0.6686092867928182 7.207309560061149 6.77268796673755 -0.0008098974958050568 1.4011517212084705 0.5107822959995912
Ni 4.987194010318048 4.63202059627144 7.16311278610632 0.16265467085116503 -0.9517028340110384 -0.4440729675974997
Ni 8.1758307429573 7.089783841161542 9.079389600507563 0.056578667725992876 0.5319972395143096 0.22587244116023034
Ni 4.523536704176796 0.3144915037719938 10.49030852807523 0.10414021955504 -0.6050247968249451 -0.4836581860892896
Ni 8.138671809667112 6.939840964544439 4.940153973976096 -0.5008670937684083 0.5128162957104846 -0.4673198539405823
Ni 7.168158359847833 6.02556172769561 7.046702195796717 -0.22336407291607982 0.5533808473964082 -0.331995495473254
Ni 2.307901501315117 5.1684632559752774 2.4399482317974113 0.09524265995509404 -0.21033397920499902 1.654009175597977
Ni 2.43693008263061 5.065271041183239 11.466549069189815 -0.24260158098945317 0.7864755173366906 -0.5625954240161407
Ni 1.1724716212166784 3.314843687045519 3.9494392981476025 -1.6098756756138726 0.4108591998496924 -0.9860286038761018
Ni 3.4102831889240295 2.895043297560444 3.057759219441707 0.5176008615833214 0.3928547928524718 -1.856296887459732
Ni 1.0873540452521089 3.303656342015649 8.324083347863604 -0.18316178966558133 0.1769543753032888 -0.7473497549798226
Ni 3.7058959352733374 2.6427195365724865 6.843948920586557 -0.513093203520955 -0.4148549512726468 0.786720286357645
Ni 3.9700831499754843 6.849584962579042 6.0589560878315085 0.6742144684467292 0.33961315991951185 -0.4765382872150567
Ni 0.7275190871966806 7.540730304037592 11.141025274646221 0.22228883757403006 -0.2247208440542904 0.7872805297364892
P 0.2357879455259999 5.4947893661575975 7.9518665861026765 -0.8997706639181213 -0.48354531466050926 0.9938463001483078
P 8.412351590297103 1.4629639711300748 7.836629720469051 -0.32346997450074616 1.1514132720639203 0.7097795100355324
P 1.8864874657701343 3.1522350410755013 10.398385692833426 -0.592433847533812 -0.0944330195696051 -0.0668975331534977
P 4.016878885712837 5.976539340691233 3.940322648648241 -1.2867340309868227 0.7715952577907486 -1.6246446063929312
P 6.884075520261784 3.9484837312070975 10.391894147985715 -0.2177770657466056 0.21620380772221473 -0.8207002428475157
P 6.29927756745543 7.672481349655277 10.156749857927187 0.07399377787864676 0.4011368303556059 0.5463097994822398
P 2.310290418666379 8.492285666348558 5.696212059477015 0.4463039138105475 0.46263144732597744 0.7728245022121593
P 7.0788939839527725 4.062069990172738 1.5588893697830495 -0.9081640301881392 -0.033772982685387 0.1805032689968117
Ni 5.459036738930793 3.003121524444497 0.41506221982536495 0.5470546480680644 -0.8970463230084228 -0.118878297096163
Ni 1.503927142617366 1.1252521907038193 7.1000985552495175 -0.34275221976912584 0.07913058488457984 -1.0283741587218482
Ni 6.7524777259458775 0.6143105476160133 9.114024394709624 0.24743602626361902 -0.96804553703512 -0.30472997488908166
Ni 2.7529883555937333 1.5701857936806562 9.169439163954678 0.22440279859323936 -0.5773126756216573 0.16125907605521902
Ni 6.18198623289972 2.0466891648239747 2.673298580146879 0.9061691112452974 0.1737592654047588 -0.2843848355738264
Ni 4.099183849550638 6.806746716340573 10.452032663238546 0.21025298945541857 0.2980793023417834 -0.4580574548020499
Ni 8.222725641301686 7.133262136954501 0.2967936828512521 -0.20383294486168768 0.46826961944836126 0.21776292467921854
Ni 7.559832628065226 3.9044645484666836 8.243362281303602 0.170864460355467 -0.6947791799719583 -0.15834061685684345
Ni 3.119835912922921 8.379492708239185 12.481540554176599 0.5250778866866571 0.6278482224773638 -0.30462661654199796
Ni 0.11801071419582575 4.730759508529428 10.074828022343832 0.016499540316919973 0.24755943921536075 1.0655921625330422
Ni 8.615409565154328 2.124333486131202 5.6285930777408755 0.15729032121545813 0.5967275898131594 0.6207931154027954
Ni 3.7488153145539256 2.5497590998698128 11.474241383060876 -0.74003856603039 -0.7595177578009242 -0.6094717768527051
Ni 1.149583088556856 3.4052889994425244 12.443607251073304 -1.0620496965974227 -0.18981734730888597 0.9617756448660082
Ni 2.96457431465584 8.315397604965716 7.8824257168318566 -0.2550007259847544 -0.25059874026231677 0.34747019407008545
Ni 5.617624791924724 7.928383979278898 3.650436092115995 -0.15251938218937605 -0.16859443337436772 0.14017474458109408
Ni 3.1662349982321394 8.139104519225077 3.525647162990307 -0.1904066441534527 0.9902788945120237 0.04748621850642144
Ni 3.520561022727734 4.1491437739306045 9.372113109079212 0.06472803630600465 0.9228054342503978 -0.7827224780521617
Ni 7.289407183902426 5.978071853709023 11.3558376243499 -0.07853126073768411 1.2360611872223035 -0.5831418807089247
Ni 0.6080236383300898 9.05841400468524 0.2437795501746539 -0.25897436592052175 0.37800847186825864 -0.14404219795630033
Ni 4.701578657714209 0.4483493040500179 1.615175868491753 -0.5087968901384463 -1.2122406877639382 -0.3616063763611514
Ni 6.094001956113637 5.705969660009112 0.3735734865207962 -0.37877260372779287 -0.0804673014181324 0.5116266462777576
Ni 7.8967691372001285 8.984889438961133 11.298377400965219 -0.0664974695016016 -0.5538315617805816 -0.17460155880039605
Ni -0.14684449588642898 4.7034266881180145 5.787950993156685 0.46300168618120263 -0.4998659061974037 0.43632649088286146
Ni 8.22528583951964 8.822154586036708 2.4361349788178503 -0.203679707113275 -0.37055921467906505 -0.4234365222940708
P 8.47270555885067 1.6312158709185438 3.441878198481393 -0.14045756592883551 0.776090831668257 1.0452724771390836
P 1.74463084901749 3.2583570601662566 1.4870217210746466 0.26926700609578147 0.00020723091479964313 0.04629271241895253
P 4.572099337275836 0.9479584641103869 8.08433430692574 0.3328742985337816 -0.16504451123958025 -0.08683746661053433
P 8.405058631288911 1.8765081015895815 12.296203838674506 0.40749259737030463 -1.1374334128450605 0.17330006638015316
P 6.477842378375383 7.862413801254251 1.6318000288217958 -0.9151283773211143 -0.3467500280746093 -1.772486894821612
P 1.5749185544708912 3.1941898386331276 6.136273172535525 0.7080270461208 -0.11559114170445897 0.3076497196390379
P 6.7968665147670535 3.897207648588323 6.105768951655531 -0.016608812201274623 -0.09433351787726335 -0.5413082325025903
P 2.518486819524431 8.372217778795909 10.174192560504379 -1.0588507300441505 0.9815605408024193 0.30942275237906064
