# total energy = -340862.3949539551 ev
CRYSTAL
PRIMVEC
9.28835289231188 0.00000000000000 0.00000000000000

0.00000000000000 9.28835289231188 0.00000000000000

0.00000000000000 0.00000000000000 13.59444333899575

PRIMCOORD
 96 1
Ni 6.143167919362824 1.9261442940471916 11.489098871187945 -0.6946544814686358 0.4740905970055126 0.9875195865993315
Ni 0.6941613301598057 0.6748006876115737 10.122449653260409 2.0828717540036257 -0.40534624045126316 -0.7258797580315047
Ni 4.25255157472409 7.82708126109024 1.3053739545948315 1.5948838301907307 -0.743495414230739 1.9333819026691927
Ni 7.870495022014455 3.6362600789853925 7.732288047892084 -2.2522974250300374 -1.6760756684797133 3.188501649184844
Ni 3.843594689886196 0.5009747382234366 0.30213804128702465 0.3148488084906384 1.8429806299668001 -0.4731030362812626
Ni 3.6728654773170857 1.2446950035110234 6.827306188030692 1.0911512419490692 1.0483994528038396 -0.07618281511016557
Ni 2.653858869813039 2.9443613915643843 10.772726303009721 0.015587827135927991 1.1440072094078364 -0.7893883201081116
Ni 7.416341012517333 0.4220190953615838 8.937055209279674 0.17841064813384114 2.2064351152802835 -1.1723345955976197
Ni 5.921603551993066 9.070522336975081 10.587950314521551 0.418678181673479 -1.8444867821986815 0.29032485520734513
Ni 5.889298661001532 4.182136572249447 6.64738336387348 -0.613484240446208 1.092758181424873 -1.0595801520110075
Ni 1.8019497289385704 5.703708083973984 4.846146980428915 0.01000004863550536 -0.27220140613375704 0.05501569411424719
Ni 2.680655767602163 1.3670411864151262 4.626583324249372 0.291332213425937 0.6841633521293249 -0.8554654142428428
Ni 9.208547259382838 4.510637745250465 6.378553355678932 1.383300809069979 3.9963623170655302 -4.984395095855855
Ni 0.4292602951939585 7.205560422732728 5.954053341288068 -0.8202981223130904 -1.3688913185128684 0.8538600174289359
Ni 1.5821594369510372 5.339251697336329 9.422105066650614 0.37586648582459137 0.6481568521277288 0.3609121785076042
Ni 8.07277676899939 0.7151892320332189 11.33800988058594 -0.14606976990929038 -0.03640039300590505 1.468480428362116
Ni 3.4008374892581386 3.8310275485660283 6.9468556479107715 -1.2336857450115917 -1.0705286806027112 0.3379267733560245
Ni 4.116978777451976 4.842659203957575 5.018089251871944 -0.059175481918891625 -0.948332889097541 -0.6501612841522674
Ni 7.066699548574185 1.5041094084858706 4.5091274590873756 1.122840345522234 -0.5164284385417751 -1.0622502426440026
Ni 3.903383816773055 0.809961082019966 10.738590677683964 0.38088090832004723 0.00218363791488011 -0.9807593850573625
Ni 5.475679023064803 3.012500747606329 8.565858265024838 -0.6143234485180517 -1.3407968742694971 0.11550500974855592
Ni 0.08487603892798366 7.691201948176171 1.4674519953785723 0.07460621465166507 0.5151308027762741 -0.49537598874685007
Ni 6.648277832246822 2.303065650124362 2.1876857318101526 -0.1970359765445123 0.10637939329820388 -0.3052951033639323
Ni 1.907000998954164 3.86338816967428 0.24707389946267053 -0.38357953819813295 0.17030678807978414 -0.9325779402561294
P 8.887216694733018 5.845522654318642 8.031678594424854 0.7771892069387583 0.35760085474618414 1.3516962947908204
P 6.144087466288691 8.468850708522375 3.3298911930041055 0.4420646789182193 -0.3318021485155253 0.3050176813328295
P 2.756541609868069 2.3512629127336386 8.516646714291273 -0.778886135025207 -0.2953410774750139 0.6577123570266479
P 4.991941609942598 3.475348655311639 10.510516103846129 -0.19631323944587478 0.6653552182838864 1.038822864858998
P 0.5018738507731723 5.648516691716455 2.744065494405209 1.1986009854933164 1.2226253734323718 0.026438396697186728
P 1.7161253491910824 3.396174736159303 5.389870433517053 0.06185457141295153 0.006821136686891478 0.3807035022019185
P 1.606160540551417 5.18086670562051 11.559191567820896 0.08648085460206396 -0.5411652791668228 0.7022240662857777
P 7.250673952216879 4.088779338392087 5.000485036835644 0.7730361040023332 0.09072343192850182 -1.2076723516669654
Ni 6.450788875299735 5.108036731421371 9.002838110219678 -1.2455470152255517 0.2026083284259672 0.5443444482257529
Ni 7.926494500964413 4.742456454096546 2.4941725798718286 -0.7680617907161933 -0.5126136927813753 -1.233422978268508
Ni 8.059828805214975 0.11503346275527195 2.5638575178174507 -1.2100817324394062 -0.49100279937981894 0.21737365966059985
Ni 6.4287754791956715 8.801958904505508 6.940316647549059 -1.13672018882812 -1.9172299754996789 0.2880239749883104
Ni 7.912459799903974 6.3912040921741795 10.704916683491698 -1.1838379682515288 1.3776276699446017 2.6503730999618162
Ni 0.8717648526262224 3.684921759233995 8.061137534122595 2.543667947893077 -1.144934606318112 1.7864963217268264
Ni 0.5651303197552411 7.622533156025394 3.7681890554593527 -0.23144736414484657 0.6946362266361908 -0.20771145398048743
Ni 4.706519817165483 0.8109094228394702 2.8118611813940526 -0.44917532182107156 0.19344106010440232 -0.5489816898874481
Ni 7.185739077886285 7.270318818360378 8.703108538810199 -0.5880863691983936 0.41480044388562753 -0.9747705144637794
Ni 6.396544895026431 8.883436335148902 0.747023203538475 -1.1076070735122474 -1.3852779874010077 1.5733079037921678
Ni 8.759223193334709 2.3928375798061228 5.988760200310196 0.4251961852976548 -0.19654438162007443 -2.263100686293128
Ni 8.75932536521536 4.5852232181262575 10.077642639418213 1.3575365556216814 -2.856080121917765 -1.453300378187568
Ni 7.047519100070011 6.855333792564029 2.0486688133247952 -0.7764885813273079 0.5573339185068853 -0.3573820538671587
Ni 4.095141860050857 3.445923153683929 1.0510337767472628 0.8115360598497442 -0.10323853367637705 0.39422699060965005
Ni 5.13316172570892 2.4639213436813963 4.966267674005366 -2.1085761007482655 1.407728088874408 -0.8341579110143182
Ni 4.859053146625791 0.08880408332140495 5.100648775614969 0.36938396342404123 -1.698026975939824 0.0025672465065439657
Ni 2.130803859345476 6.6607613783919115 7.55428233975001 1.2032906776595018 -0.23488184374769225 -0.2877105575129496
Ni 0.7436719658530968 1.4318924655706413 7.725314352619961 0.449734022538019 0.10362805580531187 2.077562168865254
Ni 2.2206593842023152 2.549578533078727 2.1578459696481636 -1.072415356102463 -1.919749656597739 0.7377124890003747
Ni 5.62500787081376 4.532168147009629 2.916972825702759 -0.4627270923635773 0.0958872355176284 0.12870813870239126
Ni 2.9817562998829326 6.1922382871340345 0.1203807674544742 0.5119536905998731 -0.08269439097643823 -1.5807571609813615
Ni 0.22768539185607894 8.248178023020122 8.000261669959713 -1.2231244245559771 0.24247585404486627 0.2492949338492287
Ni 2.565303714346313 9.089730650537616 8.145994067509728 0.2557700000506111 0.22989107540132023 0.09404941097794126
Ni 0.9430093050047025 0.14853283591515176 5.931160338175121 1.5855738656437146 -0.6189357504790824 -1.7167091257303595
P 8.738714510382062 2.3928654448644826 10.007603815231423 -0.47669152496346934 0.8112444967512544 0.017486329710221498
P 4.759491293107033 0.21480058887061193 8.746365326572322 0.7526182024676135 1.2097462034768585 -1.2949456202633376
P 3.1154156964810222 8.113738404787963 11.934615641428877 -0.8069296714259845 0.5945061566818084 -0.48044096470357256
P 0.9983678876123894 0.5265762250089346 0.8369539640528854 1.9481446628006645 0.7068800770005502 0.6978814730463659
P 2.941602750786786 7.536541585927749 5.66218078750071 -0.47054478863578314 0.350276553170629 -0.4398571297439392
P 6.323594172241066 1.5256676753033944 0.13110509958179556 -0.9832968067672355 2.3288052275797892 -0.7467303762282689
P 8.134256376093397 7.906923941643205 13.241830547546 -0.10118756468461929 -1.6292818480546263 -0.1738500253463522
P 5.750790744248877 6.3452638992920285 11.173327385680858 -0.6614517694644222 0.4097973342440814 -0.39177595796599624
Ni 7.364251930090503 6.227571181133975 6.516360001796206 0.3193693220688113 -0.06393639364264472 1.3155015900378182
Ni 6.6701890564702335 6.425032273022701 4.474637947520452 0.18141781039128108 -0.48679364639447775 -2.4551723768538296
Ni 6.777943237146706 6.236218637578229 13.160753444907703 0.16998360041241048 0.29027651846791297 0.0537648524262816
Ni 2.7281749804580224 4.858700189219903 2.8692836359909055 -0.3480687468860328 -0.4820085663010086 -0.75819775343792
Ni 5.013592760287988 6.7939284922923155 5.989602653907934 -0.7419494098998577 0.4040555466642977 1.5063059838503219
Ni 0.33703809804711243 1.0848517404077205 3.7918167672777146 0.7689210533926951 0.8070921651457778 0.29510350754291115
Ni 5.040993401008236 7.957025316573719 12.781142181863554 0.1680827838452718 -0.723858870946734 -2.311237908119987
Ni 7.0500176669695875 4.210308146250976 11.61529600515734 -0.2857367216160305 0.06708239547079416 0.1640692918105045
Ni 7.905818627661609 8.51613771255857 5.002482961520026 -0.06713638863718116 -0.13796333875207206 -0.7422214326143216
Ni 3.815943263640712 5.378662178209553 10.335297830375293 0.12872330821104283 -0.2156150250982803 -0.12079068362752744
Ni 1.690535937264207 7.729730035534675 9.653223433696592 0.3714521588069797 -0.8655901613816706 3.037335438589253
Ni 0.09997982939415141 3.6957334018775096 3.869454392879159 1.1655383986113927 -0.612138782161907 1.0292038537119952
Ni 0.9703820806665906 7.920299169655801 12.467640769777494 -0.17757966759211352 0.9573356068167835 -0.32543146910249116
Ni 4.347441386791226 6.615285603149086 3.5753795706461164 0.24822149827939186 1.4996738232457851 -0.32313393131756607
Ni 8.986862143426855 2.597367108165396 1.7421819652631199 0.6302825429504694 -0.5018166021658712 -0.9270158727873196
Ni 6.2305248773200885 1.7403400849055524 6.749165133708217 0.5900550628889902 0.17915061162365922 1.0996957890849706
Ni 0.7034273908996427 5.908729895030943 0.11468514952577726 -1.1306192181367045 -0.8417745470193116 -0.16336403821336384
Ni 2.180041417466843 0.9531614746003739 12.115177504257803 -2.977783290057233 -1.7661195578426874 1.3630194331131236
Ni 4.432253336084982 7.527225368082863 9.309583174488818 -0.07200965756908244 -1.626925689117624 -0.20921657777110422
Ni 4.640238131680843 4.638436191240257 12.51719227422305 -0.5551464239372633 0.023713027346223676 -0.9680403948287973
Ni 6.343564130732094 4.043944459491533 0.33123937940248505 1.0874812492966497 -1.1574965021435228 1.5320247287726647
Ni 0.4158720634874618 2.7277848696409888 12.141563856853763 -0.8268436367410922 0.40399615418127194 -0.3657893040942475
Ni 2.340293368092753 7.007857833671551 2.2298557822962537 -1.589038170043231 -0.15428675850244394 0.3989601344192613
Ni 8.321073015688768 0.6097116266247236 0.2217380595668672 0.9678707020201526 1.929079161528781 -1.0348340554145792
P 8.472278110700602 8.29343087779607 10.052098740419993 2.0109109473946076 0.3034148556220839 0.7027408580211961
P 4.441541688871507 5.461031290720454 7.827694292374151 0.14425534240837093 1.4416041727965625 0.8179591897672688
P 2.743491474203002 9.095164336917732 2.2952587896072885 -0.42850519506622975 1.1440779147447715 0.24847937992646885
P 3.9462588532356526 3.151157278003569 3.2925065018736226 0.4410516642726727 -1.022529269905297 0.2674476934988555
P 4.87671959362576 5.679976342604412 1.0746735634242468 0.8589477163644884 -0.3668506554792263 0.33814634556599826
P 8.282656388563701 0.5469492980108978 6.714689554670473 -1.3383872363867402 -1.0592345957461304 0.8441703009449978
P 3.4536324864967445 2.408599914484855 12.765902781446703 0.3995239773425313 1.4588256788811715 1.195345454670496
P 8.529485075512808 4.2644778197019875 0.20132133130680735 0.05162569459609173 -0.8484488737156936 -0.2622543222233742
