# total energy = -340886.2641591903 ev
CRYSTAL
PRIMVEC
9.10653769845641 0.00000000000000 0.00000000000000

0.00000000000000 9.10653769845641 0.00000000000000

0.00000000000000 0.00000000000000 13.32833842462870

PRIMCOORD
 96 1
Ni 5.44448918012462 2.843397965655466 9.828209708069002 -1.2216954054189346 1.136262789575727 -0.2918420631828199
Ni 4.63391627261208 0.4170584748498715 6.535683684920183 -0.017390684672621663 0.17723359710660444 -1.1655743940556507
Ni 3.344558046760259 2.976990871544793 3.383465728451612 1.0497775640982887 0.5392531497457745 0.40648163960728706
Ni 5.099906905690657 4.6501168029172675 3.091681337437223 -0.4245115005258044 0.3755960057720241 0.8417984582787116
Ni 4.939586312085913 5.225331247395749 12.00312862490614 -0.7188850718812265 -0.6294155669644838 0.3407205340510777
Ni 5.853809830016471 5.761360260787537 5.267173055486389 -0.7800174204161727 -0.6031476344068902 0.99425459133032
Ni 3.106440302847913 3.114417629743554 7.57795969129337 2.15865681945474 -1.2753463579751714 2.352258573506723
Ni 5.702741478564662 8.481911034865158 12.727190336327473 -0.7716852464013936 0.1828774256559431 0.3345223756601658
Ni 2.455741768600064 5.692050403478495 11.959864375649863 -0.6382107966586105 -0.380294696799274 0.013375135755325352
Ni 8.057327828035985 7.159924084964158 9.510328712391555 -1.0201168038090624 -1.1750260263868537 0.6090622001191124
Ni 7.667021628552921 8.62359054610075 7.590088688659013 0.9131450283424983 0.8614200891643808 0.20097747769076357
Ni 8.616414594509694 2.503460025373075 1.85906321511128 1.0528963122329287 1.0438390871266667 0.5650235738416591
Ni 1.534460684066628 1.4145640106556616 3.1676926957308575 -1.1946563990232717 -0.321856093046407 0.12347414399696155
Ni 1.9650177795299792 6.686019870752803 0.9624298851163614 0.56059844819077 -0.13599053129641742 -0.11164089880745935
Ni 7.588987708268964 4.042701641654556 4.213407330683717 -0.8041770483815118 1.9821163917604188 0.918608879670547
Ni 7.661339149120409 3.7473310961521493 13.24015795402232 -0.19457903036358745 0.45213980376603424 -0.4792909102595294
Ni 4.666945684313551 0.8818406703952855 10.85211964950711 -1.966537049264923 -1.1885063202614758 0.45067967428073996
Ni 0.3551859267596294 0.3922914246694215 1.108161805562639 1.1285278828253145 0.013152221111241865 -1.1145997027799963
Ni 3.52670701087739 4.378031673935584 9.650982827498781 -0.9991764541119694 0.7262898489857299 0.9307324024069583
Ni 9.070903670659966 5.105671343961138 1.892544311075336 0.09702880532123935 0.1984480264006905 0.3441910090981814
Ni 6.251046104576684 2.2882361168667122 7.687038708746194 0.2289405385625928 -1.1032215428500418 -1.1430006225201927
Ni 3.4528894174800566 4.552804342635513 1.3763238381668776 -0.48769841759693433 0.7330783326624729 -1.8419002524184278
Ni 0.2548801475844988 9.141597721676929 5.145272033160205 0.4725985858410183 0.24000913767192858 -0.40256893481644224
Ni 6.9812629247294815 0.9957907747847294 1.0289968533147118 -1.2735213889512906 0.05275569443547688 -1.1437434142234884
P 0.16983146142415873 6.2365302837186345 13.223644158825339 -0.6727031740085254 -1.4523413567084082 -0.6930503702063096
P 4.033039605311777 6.683205950649204 13.344465145797844 -0.36130015797464227 -0.2366736455407924 0.14531952200682716
P 2.5296595339104706 8.711814681905508 1.6612710407871496 -0.46570494404497864 1.790382287044794 1.0033339279237687
P 6.109321060653331 7.845209248834888 6.217802689242737 -0.2659240577654775 0.4699025270660939 0.09920987213295818
P 4.822822287592869 1.5291971053615132 13.168557802518926 -0.265325247839214 -1.0391730491095652 -0.38883435883916906
P 3.520122984227221 6.528230894587544 8.905476130796005 0.5807924066401416 -0.5495900128954083 0.07343353449980256
P 4.569924633233463 1.2963611532293864 4.067342110963032 0.46137160677694733 -0.13423035407220107 1.0865060298675742
P 0.06368565971686552 6.209401908350924 3.871588890396817 1.6616121847562155 -0.9172716489163624 0.07290363013826154
Ni 2.6603838804708855 1.8432815855334885 5.525942605259391 0.1935981545075569 -1.1027307192565525 -0.7314850200334241
Ni 2.0663189032595546 6.726197914432675 5.358232056431116 -1.2066259126803218 0.08580953956665222 -0.24681227663669109
Ni 6.571905848687422 0.7060234818381304 9.514634283346188 -0.04335317017465437 -0.3459216186360429 -0.4562299146750078
Ni 0.016066664203172393 2.292834918330523 10.661763873748026 -0.7478017549155767 -0.022232071925323 0.3093337922096802
Ni 3.4159259815560774 4.407901117106476 5.535485345960238 -0.11882378970914373 0.8510693420576761 -0.6678615296455078
Ni 1.4166494077550928 6.760702585217587 9.756543078841474 1.4451435534083885 -0.5383959439518018 -0.5933985254399264
Ni 1.6351425632426602 1.5825340958041707 12.293499681292445 -0.8464195019904908 -0.3938068723530959 -0.3182323802508906
Ni 3.98208852770777 7.186087167351344 2.381733848567892 0.760019122917375 -0.21497970550712653 -1.1188708193515247
Ni 5.487863618485278 7.915438866436693 8.385857098073103 -0.7717520950835869 0.006364508765447103 1.5609457826823891
Ni 7.180359155231073 0.7880588147224801 5.748898874801243 -1.7744285919290153 -0.029188962859130377 -1.6284526672851114
Ni 7.956227048132555 7.002034936885824 5.387527787736226 1.1309645172912652 1.3812287570322987 0.7510799114462161
Ni 4.85423984214762 4.554361560556922 7.591834411907751 1.121022575587205 0.7245769800596812 -0.19957802624007565
Ni 0.6693505444620631 7.377488373621411 7.312819207848919 -0.5118935267858991 0.18143940765783592 0.10934618923601168
Ni 6.528285533812857 2.0681766369201835 11.769935696501971 0.7464182443044887 -0.06373456204448379 1.0451580630484065
Ni 0.8281039029540906 8.00262485696051 2.8136924401605117 1.0329170408975243 -1.328065799856074 1.3139890100480338
Ni 7.079413186466029 6.266217596138484 7.465042268262334 -0.30258516063193697 -1.6673981953103734 0.34499010796070906
Ni 2.409362172847212 5.459505860548035 3.2251248961106946 -2.310603102749466 -0.24716297510789045 -0.4715218078370718
Ni 1.120923707288154 1.3454636037103167 7.779031129790011 1.1123281331370003 -1.7312818813382118 -0.5829598466051058
Ni 0.8157199225369879 3.858540132738411 4.272904893780371 0.9727714817558796 -0.5390500325960329 -0.47102764180947265
Ni 0.6975006733431188 7.7714280815877625 11.823062325927175 1.2592365968975023 -0.03765637690019321 0.12949309649753182
Ni 2.076418053404835 5.331868630217782 7.531350610794204 0.13848115892875507 1.1156194022937627 0.5761939886361819
Ni 6.45380316317422 2.5060736016505283 2.931701328336927 -1.1493962416338914 -1.5044637884352607 0.4901108836931688
Ni 4.1076494674761435 6.897956319202858 6.77315486466633 -0.5434471332224641 -0.30156957488322905 -0.6646062559330038
Ni 7.823444624085366 7.9428404379309665 0.024693287226277994 1.684620215615615 -0.33638231168704 0.403774267978453
P 9.032355697201922 5.5249454393974355 8.52633818896684 1.0719183618613861 0.378435017882716 -0.18455147092425636
P 8.21813106813099 1.7744270551020502 8.770366075750498 0.9306663250557133 0.03578872756383514 -1.2148462437075853
P 1.7237947063123669 3.7077540839507166 11.164349127979722 0.33073205537979816 -0.26312284087125654 -0.7360543845716614
P 3.9248084065050524 6.211441772762594 4.352888523754232 1.20151096005126 1.1093772780387927 1.0193071634235735
P 6.556142432184735 4.208786673529781 11.064919397717103 2.0298527786044334 -0.4512723135594163 0.503379575777617
P 6.3555527295245975 7.905603805880424 10.607664666112257 -2.0383276488446636 -0.5623686527173153 0.3854073354354911
P 2.049726791839626 8.841182154370658 6.286057098849492 0.7623994502240935 -0.15667428489801405 0.3352155450724485
P 6.906826086778605 4.519228538680915 1.9877750168726804 1.0907637767026632 -1.642405272810462 0.24760726173416067
Ni 2.7963626991988626 1.953853164491103 1.0583444918838687 0.6791509865163982 -0.8365634351320173 -0.8282595432520122
Ni 0.8387002700497157 3.475673974435414 8.557499849816374 -0.85333242706024 1.0761676240560434 1.0762365296207657
Ni 0.30373581089776724 8.859686638676529 9.450378554378561 1.8655135209619937 2.2241250763608793 -0.25118983687909646
Ni 2.453820289176571 2.007745653724439 9.855812534043176 0.4637845870938142 -0.38839341464700855 -0.3165912451030419
Ni 5.3186186180794754 3.3437930976058827 0.873067432117591 0.3581808956193703 -0.3767378326859512 -0.6761818765857451
Ni 4.064111111439546 7.481603417454585 11.242959492090726 0.003182768603355809 -0.46204703557741716 -2.4008102571631813
Ni 7.394399213855663 6.166364411879693 11.73285660755108 -0.829024446442495 0.7913786110652629 0.8415919986948603
Ni 7.436353032358193 4.0522635060842624 8.764195485905194 0.21580245851873803 0.11812804919369978 0.4201753350442958
Ni 3.168938470067985 8.917795454796488 12.891874782727184 0.1656636328808179 0.12856235715314632 0.5915265052281942
Ni 8.993488994929553 4.853511319143451 10.806643422279425 0.6520821553240641 -0.5928537086800499 -0.4958930375925847
Ni 8.706897151627373 2.393006831403638 6.4923802775524315 -0.8535427432988333 1.1938750407725567 -0.4568786040026003
Ni 3.5982479698866983 3.047548324498474 11.992438460473728 0.9947608415427771 0.3700851032561239 0.3277801718403258
Ni 1.0589081865583438 3.9586847261988694 13.284221757275674 0.2567506187963256 0.42999052136250465 0.039012376707455394
Ni 2.988756518062108 8.883591299750796 8.348897304764144 -0.3458488564165786 -0.8984876834406398 0.7458358894384575
Ni 5.537084453954386 8.22645444345361 4.057945985516774 -0.047998125145833466 0.6041218253947015 0.3564857673051344
Ni 3.029116692493021 8.839433699160656 4.245129043592707 -0.0031796832795622653 -0.6469677169156343 -0.2277154079062401
Ni 5.23725170505145 2.8821644960147617 5.427286020034946 -0.27590559445822166 -0.6412392990722892 -0.7781780532145889
Ni 5.6318926164093135 5.632129386385667 9.72634124704993 0.07991374290750754 1.6643627509181596 -0.45717813752089004
Ni 7.918653474192586 -0.06972602607517434 2.9233979873969216 -0.9081429471422167 0.525254007253205 1.490856224954155
Ni 4.692453095996987 0.6379867184788709 2.0378892036756495 0.09067046720337933 -0.842409352389833 -0.6787010434631731
Ni 6.172666135865747 5.951550297563174 0.6267947838273383 -0.5027560832610052 0.9857349838950831 0.28898299646747005
Ni 8.026811820698892 0.01393664506973589 11.272135927753904 -0.5992845519070582 0.6541992016670669 0.29384778075893914
Ni 8.93960561223377 4.880657907586265 6.313793790925683 -0.4136280208440811 0.3869235149697014 0.29592343234104523
Ni 7.0210220676819555 6.396887303473586 3.347825472433953 0.29621422410858667 -0.018454864271077894 -2.708967769676573
P 8.369964368737175 2.091334561915177 4.2988822028014955 0.4524714760738401 -2.1071712499809387 -1.0771580129937708
P 1.6903828200337072 3.426489565116515 2.0852322711015137 -1.4880696633479535 0.7376698086878973 0.21098266853259148
P 4.304068375937417 1.5261464152815594 8.403344382134403 0.5315424113650781 -0.4627234928191514 1.019077821021587
P 8.47329625034087 1.4503071705476596 12.802681711326883 0.6151667703549535 1.1186448193836478 0.2582757971916004
P 6.534714749324641 7.867529372375088 1.6842623161449397 -1.0003722741922836 1.2566703788322229 1.2672682089527272
P 1.610035839211517 3.4741440761266613 6.371479153049468 -3.1172298982230506 0.7625439462217577 -1.5792831475389961
P 6.702520916797211 3.992734070106176 6.481610886243316 1.3149637152564773 1.5183045509730948 -0.1390617140225734
P 2.3146086496175977 9.050532346155917 10.57928869509991 -0.2695354292658197 -0.4952091241516826 1.1785227266862026
