# total energy = -340857.95284887514 ev
CRYSTAL
PRIMVEC
9.38584238485253 0.00000000000000 0.00000000000000
0.00000000000000 9.38584238485253 0.00000000000000
0.00000000000000 0.00000000000000 13.73712906571887
PRIMCOORD
 96 1
Ni 6.70400700396184 6.804229030971735 0.08332844896015726 1.2488015176071072 0.9335482745891986 -1.42492748347183
Ni 1.4753887518043274 8.836301491708817 3.8509839893502598 -1.3524136325728193 4.193275909099566 -2.1471441908294504
Ni 2.086829466316379 1.0647675250150461 9.41463176937101 -1.0936974054096906 0.5790756810593511 -0.2197892110806279
Ni 7.783491530133611 4.776014151532749 11.537320785827303 -0.7538806141198049 -0.5493868957456668 1.6646964801084942
Ni 8.763467353331144 4.073436905622862 6.64592741011119 1.7039857646264203 -1.5430730161670263 -0.3137787153549112
Ni 8.972217878029317 7.237939430494145 1.7217708737204709 -0.18729792332114192 0.4062029320246036 0.20634568398121234
Ni 7.90410899305777 2.3860876709599013 2.2964087609138764 0.23025488649864218 -0.2457570958992993 -0.31230753012602347
Ni 7.763255653543113 4.153057008181857 0.23810287018122767 0.831358236781994 0.6219177159255418 -1.035677891472113
Ni 0.7910819870498497 1.2008340848167378 2.510858369223252 -0.5118750148431378 0.9396381895370205 -1.0785700628499488
Ni 1.290938173531385 8.224353941697746 11.791306378813001 -0.6319771570440729 -0.5153796855622865 -1.393194414034607
Ni 5.033674301886343 2.3177775087031094 5.87802188413041 -3.602357726879332 -0.32819977587624766 0.9592793608067157
Ni 6.654440369326209 8.941141353265339 9.39886167667743 -1.8824714889725707 0.47903919926003957 0.6427282249129899
Ni 3.6704463688466022 8.299600241617052 3.8246501308391463 1.8464017398332073 -2.291209528714202 -2.414912758002834
Ni 6.154456535385661 2.798745625587837 11.940354497479404 -0.5633950370993007 2.1869888336302146 0.2460594576310665
Ni 6.077426925377212 4.45035357172732 5.488615477312141 1.8494109589731762 1.2233807635411578 -2.2614400107612536
Ni 3.698998101958056 2.9591872185553556 8.623345170953035 -0.0154628715222895 -0.5004258924659317 -0.4641273151452136
Ni 4.974102359066357 4.624526652381249 9.835633738047623 1.2720124085059321 0.21020902359136057 0.7458993956865413
Ni 6.5623277103006314 7.359823982165854 7.536491819776069 0.0566606859168379 0.4765889379473341 -0.7768109976637332
Ni 7.651460882638929 5.07824766827237 2.4556771235595893 -0.08992356173502578 -0.027067031420121124 0.8188840155743832
Ni 5.084432938528927 3.296636416634284 3.200435284583279 0.4770705055694429 -0.14582602932960045 0.5309891099647693
Ni 3.2548788030205893 0.9797693346608954 3.0049422625215048 0.012613574998952468 3.429207041592849 0.9260632790660633
Ni 0.7662198286544092 4.272153964608957 12.090968174687225 0.17273030991961222 -1.3126826325317844 0.34804097897189096
Ni 0.9789621521994935 3.823979981679331 4.805124342277383 0.6542043438733893 -1.3693579737366417 2.3611970136469336
Ni 0.3942945536310389 9.230535037363122 0.09335909891946388 0.019845831081333563 -0.34548890197399856 -0.23960907402003254
P 1.6212165878834393 4.963684073808725 6.912551040123375 -1.1410900357610412 -1.1284798031961984 -1.7165846843373531
P 5.48947897482899 0.7158300556250001 4.05928023926783 -0.059689445440832684 0.9665388705826063 -0.2683447513918282
P 0.25784505145230985 3.2602662766583195 0.9585122783982982 0.4752313954781751 -0.5884545511710898 -0.2461113939149245
P 4.486179332833967 0.9909103297967586 11.902604638644997 -0.006633703266433736 -0.8517959358110556 -0.4246225721823719
P 7.394607914746738 4.332317215511132 9.651322070244781 -0.13377758280549865 -0.7893641517383954 -0.48941514317772483
P 4.785118418829959 4.265912379296952 6.916287544052261 -2.8436681214066573 -0.2502557551006012 2.9964402430367882
P 3.3070453160493405 3.188971416462855 2.124612175599797 0.02457691800841574 -1.3822176033081293 -0.5360428703385929
P 0.5540359627425042 7.507144167214303 9.38773476030543 0.23114525952339549 0.7484113634751175 0.06595445251393803
Ni 4.034617060734968 9.288774190537538 9.759639386475135 0.3453657461325729 0.6211648969199173 0.750431736339256
Ni 4.205542639858139 1.5320886267965341 0.27487190846660586 -0.031001847698153062 0.727911700859869 0.40005182482154333
Ni 9.364921531343988 5.999618290435085 7.837402871296951 -0.49836309639963206 1.2942149127448999 -0.4224967840886208
Ni 3.1530705686156124 9.008447230366665 5.81086054900473 -0.7806154590114879 2.183254306288447 1.0028613591627245
Ni 8.828774045964115 6.471125478004773 12.54997999003756 0.8597979801799258 0.20036246981458397 0.644861983426541
Ni 4.918528785183082 7.220397290722513 9.79743054301687 0.9797479130737127 -1.1983811561730264 -0.7757738146484704
Ni 5.056923033943236 5.947489320776631 3.281222985958534 -0.7591007248681637 -1.0030315661920015 0.755650561536034
Ni 7.142231993762556 0.38036877900333865 6.319972114848924 1.5849966529840058 0.38409915814702883 -0.9483496012680895
Ni 8.811513481469715 2.976072349346777 8.663114863109463 0.20927494181286535 -0.5299827801874422 1.7522165746083498
Ni 6.894680395861637 1.436578292759008 13.719779786381903 -0.6009524265277844 -0.9731635749879756 -0.4551528795607452
Ni 6.495509897013175 7.470173333313574 2.442503154922102 1.1766455642681477 -1.6437941827381883 0.4533559355613225
Ni 6.693138198260635 5.026681849168384 7.86822973264845 -0.3261585770765028 1.0013408087531401 -0.8620397250262508
Ni 6.046810306899381 0.12240734310310572 1.9919939743599553 -1.225129627911464 2.3833252130045404 0.521038940730593
Ni 6.7372235008327905 2.4644500706139207 4.691916063481488 3.2410326292040246 -1.9976743940996755 -1.9738644361642719
Ni 1.729932802423206 7.276702960326593 5.133991125906241 0.9619443092333884 -3.6509178951762222 4.120502891001897
Ni 1.3122721937030926 2.5103562266455186 7.330311138774778 0.11970464965220029 0.7249819288075837 -0.37029953325977516
Ni 8.13497256286133 9.093726995998049 3.463048344063405 0.020977116472299356 0.9360813254236975 0.14056863758540306
Ni 0.32623687053949946 9.293833159685162 8.026962163683162 0.3662127647849112 0.11548315537168499 -0.8213342768870887
Ni 5.4549390741550425 8.483403196752356 5.402510696118464 1.1393033761742637 -1.785861259245989 -0.679012661166321
Ni 2.272096612893298 7.583544925770264 1.7577477468925662 -0.04576357938835989 -0.36090575074970105 1.3384471430903981
Ni 7.85126669936366 7.289242446006048 10.023777645373608 0.7398308208949581 -3.475601312586672 -0.5815172006213081
Ni 7.065155454541235 2.819375707566461 7.180946717213615 -2.24867576911705 -1.3300787165210448 -0.31570961382903695
Ni 3.3903165113697935 4.0350675811785415 4.840881586733236 0.5826500286741707 1.3721712748157209 -0.12644762480298868
Ni 5.9241373444514185 3.0689828049911827 1.0231450675344238 -1.9916487567308863 1.7903984849947103 0.3482227559653938
P 7.412215755416391 1.0309409483767555 8.287486873190476 1.4602331007516594 1.7313291896363796 0.07784657596583368
P 6.495190778365644 6.482003669548552 5.210658442391316 -2.0071656214195626 2.232542353890297 -0.9152615604648688
P 2.848481205389807 6.126214535079163 3.7850597082758908 0.5808885658983738 -1.2272402464965637 -1.3462255014842364
P 0.08390380110997057 0.5419469975066223 5.38506429194109 0.4394429250246561 2.471866549680059 -0.6255661113114064
P 4.55649806540169 5.1265753716881735 12.339898552862328 0.6369175317684838 -0.08654358951919934 -1.1812020732905786
P 3.83502711838945 9.177148364799693 1.5001223241564983 0.061364004929778185 -2.1356480172643932 -0.32039262112700306
P 3.17279960970709 1.3737119191953926 7.2626551697454245 -1.8744982409591073 0.07192481116476 -0.3610880419638362
P 8.028640352335472 0.2570697808556609 1.1758133056817892 1.7386354934898056 -0.9552548130283548 1.9386282386697968
Ni 8.347946716718003 5.8584458322728965 5.592865907954987 1.0361949403178476 1.1649077070059293 -1.5439474483521798
Ni 2.755514434689955 8.757488571611225 13.434830298743117 -0.20181102933565245 0.8433596321182443 0.4445344806149505
Ni 4.0471283888867 7.573229884780952 11.995425928784943 -0.40796876567577484 -0.9322179858135493 -1.2497623388584798
Ni 2.4703068363803733 5.819447656376088 12.431552244186017 -1.466641061160532 0.25594020707988824 -1.219748051884577
Ni 2.4291874600617405 7.9267851887176235 7.707518765999044 -1.509207473767833 -0.49949026802553975 2.0577980988644495
Ni 5.669095844176095 1.904087111391985 9.693824919758887 0.4870013915299097 0.5026308705370505 0.16117191565805147
Ni 5.13681532593689 0.8387423570586108 7.650221012834845 0.9283592741890915 -0.9715553499605913 0.5181181675393722
Ni 3.723739182984286 2.8506962642373757 11.081151942192767 -0.4296598774959633 -0.560954545978608 1.0417354105201027
Ni 3.703756724143298 6.504886353745044 6.311441322533012 0.6464339558993512 -1.7382850521289224 -2.0872050912716573
Ni 0.21667968450506284 5.120296243005871 9.929018178742037 0.6307065178617655 0.1383988836275939 0.7645226672146833
Ni 1.9395937538511008 1.9396688405916964 13.19848258112331 -1.0552272743589504 -0.16442796070150392 -0.1623512806781333
Ni 8.730860936227531 2.2105818006604023 12.638351452212964 0.5547712999860316 0.4178117199081256 -0.49692687817373776
Ni 5.224450938054459 8.741222906429716 13.608440228842579 0.8721331047065108 0.4858832187650664 -0.7126162081533792
Ni 3.383258357753813 3.8311976946190778 13.555276939332423 0.2847216500879548 -1.3823816396898194 -0.030493283492850708
Ni 3.76870675475844 6.033491796286247 0.5355364670282782 3.1183359868030363 1.8882289602816384 0.3350787623842681
Ni 0.5671357832236535 5.397901308830155 3.437125585457053 -0.25186603701051463 1.7338031050981688 -1.503872948928797
Ni 2.434706335495513 1.9274484735597723 5.27889070215474 -0.5653593599145231 -0.7620279258172876 -0.7435573778169259
Ni 2.412499431964382 6.692049440521999 10.103837005365087 0.3196824824338559 0.10651643309670043 0.08343949667257888
Ni 2.201374289094874 4.874002348009928 1.535384934708678 -2.698965664158539 0.02839886285766722 1.2526255193388878
Ni 6.618126544405691 0.6578696619750459 11.513939713390108 -0.9244879641591432 -0.09802510779623763 -0.07033792629361435
Ni 8.941310298431679 0.7702885914104299 9.887312187262502 -0.5690283241256782 0.12371377081159339 2.175255861464002
Ni 8.158418397612289 8.578359766077991 11.807130909393512 1.7160804910074252 0.360223894191328 1.345587096569289
Ni 9.082557843334463 8.119392064187755 6.17622699723708 -1.012232001744347 -2.15167755992343 0.7302912568356391
Ni 3.2129240867128317 5.252589694092638 8.213292726223766 0.7112825769436202 0.6359027173507242 0.5070194865230494
P 2.6684701306545757 4.461926315621608 10.160447714852836 -1.2789057931916554 0.7261268410453043 0.48420968771738543
P 1.0922962012858857 6.838599986479344 0.13390875459382745 0.2540992972164075 0.708389057445909 -0.4002613697291881
P 4.50674371391457 8.182680800667221 7.247269896597398 1.019178351155193 -0.48353477313754784 3.1940745152869314
P 0.970890327585473 1.7629991258129667 11.257480950886045 0.42367409222617364 0.099197530837784 -0.0323151671929379
P 9.323220232785742 7.380585465940521 4.126290462328062 -2.467327781269441 -1.1489905215550404 -1.700419901652033
P 5.865813718693833 5.375506688447536 1.2140906488688803 -1.1075209415563443 -1.523245697028454 1.6390109024169321
P 6.175950114881134 7.649677572549786 11.763941954787214 0.7594568226560018 0.08801683163061616 -0.6208005716019631
P 8.338232369653456 3.6357750663766115 4.034828242192893 1.0915122248329137 0.9913893539673829 -0.0719752047867212
