# total energy = -340862.5393306189 ev
CRYSTAL
PRIMVEC
9.39057014971252 0.00000000000000 0.00000000000000
0.00000000000000 9.39057014971252 0.00000000000000
0.00000000000000 0.00000000000000 13.74404862747839
PRIMCOORD
 96 1
Ni 8.688427915936002 8.048826786072675 2.747751282560581 0.5096353268793417 0.9577672950375635 0.04418466493701422
Ni 4.656304864729652 0.3388052009907059 7.082088238746341 -1.2210086637645552 1.9137836688222911 -0.4678916672836522
Ni 8.316223273759807 6.711299694562883 12.278686135841946 0.2684987604711892 -0.6101351214683169 0.4692499810837596
Ni 0.1258890456289702 8.903274772539826 11.835646544204062 0.07714466480280262 -1.784101596242405 0.03811814702796016
Ni 4.155186474249016 6.264994062594268 1.37187779746096 -0.8457543576026659 -0.17633808187552857 1.402440358112907
Ni 3.0615043202553527 0.6860384387750623 3.0382044373668777 0.4694489844684431 0.1519156871671061 2.632387462017673
Ni 7.365690972559916 2.262028731994363 4.553197342511708 -0.08870100218183434 -0.15544941135197743 0.4439348993577387
Ni 7.241491290517772 2.7688002457616596 11.222482686747602 -0.28056983270311037 0.41078952295402155 0.5431236884447743
Ni 4.726959515242662 7.66254567910129 7.867382187825413 3.3180770209835373 -1.703531450697821 3.3975768162820774
Ni 8.925314440901607 1.334080752230382 10.524161382093883 -2.408990736091445 -0.9159542156565194 0.6206488765154472
Ni 3.1138097965123266 4.573301614346278 13.372326971326537 -0.05680929567956022 1.8443685114532622 1.625855853092213
Ni 1.2242580332312243 0.26021176239373717 5.598308650034285 1.0052252314092107 -2.16738545757699 0.013014924202429199
Ni 7.103027332275569 4.165206212698959 13.485949115046264 0.5425390195858979 0.48194583138387326 1.0106739132286078
Ni 8.189713511437734 0.9908272381152724 2.247660220464597 0.1304570030726979 0.7867305707702902 -0.23448435119895744
Ni 9.189874976375167 3.5214168885069768 3.5639139141444867 -0.2112328368701846 0.38744339202891337 -0.6966874527382647
Ni 3.8140458384387204 0.1050936278244696 9.599077526254208 -0.7115060058083359 -0.11719319608425624 -0.887583120712994
Ni 3.1211344413023516 7.255577145883206 13.260643041305093 -1.2356516104887105 -0.2696794110428517 -0.26628992574532845
Ni 1.321196889856133 1.376967486533003 12.260075903733135 3.0704160231933058 0.599260126427026 -0.8351806958518779
Ni 4.073911088790468 5.4652649289367 11.302569226013308 0.6833794227754488 0.08047347206571946 -1.2631852971326052
Ni 4.825025240296806 7.671786000221013 5.411677639841471 -1.7189596123274333 -0.9479708777724318 0.22784164907145923
Ni 5.821796709376291 0.6881109376278297 10.63928226082449 -0.5034623652994104 1.6342533331272886 -0.2946332527747119
Ni 7.821884874995065 1.1206049188821263 7.7774552700014175 1.8272922726972658 0.9909792630131579 0.0024890849704408747
Ni 4.036189168121839 2.6974694741911076 10.303803199814077 0.6168919805761762 -0.4577085561030633 -0.07785557482689817
Ni 4.92488456426748 3.74904431121237 0.9164802153824695 -0.13001323066705994 1.1078356445832855 1.0976607609328128
P 3.216899476646807 2.0492759725548657 8.325649528170354 1.845601098308783 -1.6804308601246158 0.48363170372672837
P 9.149007214674924 0.9493772610599256 4.207218684911899 -0.7054559429595141 0.5265488148052286 -1.4248747758570233
P 5.2330736890929055 1.8939747218658478 2.7994698481773286 -0.5703719826377661 -0.9018157193726083 -0.14097564321583464
P 7.123940132208115 0.7776650498131539 12.354388217860903 -0.46181152252784335 -0.9377052341803657 -0.0595439210019039
P 6.197006334030445 6.622089277248475 6.752217226285417 1.612031545614611 -0.030051053749109533 -0.04185190303877953
P 6.5455091769117395 3.2937988563718266 6.403778239281779 0.6274468732738872 -0.1206814117431728 -0.01106602800617449
P 2.519659026628128 9.089902965561567 11.63057151499575 -0.13532667246017338 0.30185856687855755 -0.41065119760394436
P 2.983891257191818 8.684127034764424 1.5121062438519406 -1.2084837918246671 -0.7877811235219917 -1.342212266559785
Ni 8.384727483687028 6.533329607305762 7.575939266915438 -2.8161586031324792 -0.7393320268816687 -1.6155997225818433
Ni 5.988338472646924 5.0585123788342194 8.409282885817074 0.533551728485623 2.147341137331605 -3.660314248789457
Ni 7.444975557126815 6.489503815978778 0.9711746527094207 -0.6083908850837005 0.23281107726159259 0.02706240343443081
Ni 1.497608142452813 2.1997035172874444 4.5219840260789335 1.3383916072621143 1.2843891849037299 1.6046036285816558
Ni 7.10274561516826 8.28387275927053 10.495862898664729 0.5464967186820653 -1.3133819725916542 0.35737973987431354
Ni 8.387863934148397 4.420301053366948 5.683879282322265 -0.6837666309115384 0.33021603497532803 0.6463640218933642
Ni 0.6791898958963889 5.757922050579175 4.6599192952164215 -0.19866168507339335 0.9092721756506532 1.5901049207448485
Ni 1.1650880501261631 0.6293269069597813 1.1112087142963585 -0.15627576390801473 -0.8108971407141647 -0.5507261833823806
Ni 1.2040870883479247 3.0538416149365575 0.07945173671723575 1.168688257094284 0.7337046533925623 1.1537565754851162
Ni 1.7202491723588433 2.425321357960703 2.4039718965118286 -0.26883608920594987 2.565925987960329 -1.584549023923626
Ni 4.736706927155542 8.66606896818594 0.44601921957618523 2.1948358404784587 -0.7052060317322371 0.6896266892367413
Ni 3.948828693145425 5.22660358619505 6.428352422552313 -0.2116179881237452 0.40370407686214993 -0.5083975978174986
Ni 5.359339296588645 6.289644309483775 13.166482854415271 1.0467454621401844 -0.7284413481110938 0.1569779321813619
Ni 8.096465148918568 8.661110747097307 13.962991022479278 -0.05127036813920202 1.033022456127137 -0.888737031811779
Ni 8.825577194344099 1.7321188531467815 13.219727387696608 -2.793472217278557 -0.12879401354797818 1.4166534163884954
Ni 2.815095757062715 7.676894470433544 7.146699118250557 -3.6109714366902717 0.2054475976469752 -1.19622117240723
Ni 6.047095270661266 1.5576232768798002 0.5222847358097602 1.1379059816061046 -0.5200236120922012 0.3228310553651666
Ni 6.109213892822824 5.270495111513739 5.036589153543459 2.526450812683842 1.5528164687070354 1.6021412830840924
Ni 6.0580916284165465 6.296377348348452 2.8464612007334362 -1.7379065857435814 0.14822075481402214 -0.6603600790621401
Ni -0.03447653959243327 2.349379816400533 6.411612792036033 0.2551909876186895 -0.7044748099931674 -0.968323730397171
Ni 8.344639139317007 -0.025728284353475152 5.827174688954813 -1.011862277109754 -1.118027497514623 0.5702205446615664
Ni 6.812483088937909 3.2088893202289976 2.0887520517450033 0.11551246594772366 1.1392403841468122 1.6777072905458654
Ni 3.6645761318709913 4.717803709255131 8.851826655346096 -0.8169163503250512 0.29154587209863986 0.16913333659697324
Ni 8.54963528773527 3.6824182153338727 8.118210892431723 -0.650874251058892 0.5489924885207255 0.759713418751498
P 6.003560587011836 3.857345757832061 9.886850612312974 -0.5770229122953804 -2.2266982364046943 3.54665760510355
P 6.241789963522278 9.4539565927663 8.45723583276613 -1.1656484418266957 -1.7750893654414652 2.109748780900128
P 4.334161352522204 5.727233667023018 4.0807183131600695 1.2221522904506952 2.074150572080544 -0.41847352186184056
P 8.63218779074695 9.012055138241942 9.216085936039164 1.3907755201804692 0.326005082217774 -0.8766657024695419
P 6.379230349607927 6.33471904665316 11.309523882335732 0.08663074991636692 0.16504142591578674 -0.452023332792828
P 1.1529929956523783 6.21529916486502 12.459406721123425 -0.9657886226801432 -0.5504294780775681 2.875640560548196
P 0.6064871620132442 6.302941356948743 2.4882363004789205 -0.854638033245541 -0.8477068533433465 -0.26693141598406933
P 3.275299432991891 -0.16582901898914265 5.464455461781699 0.9430711264779693 0.21577366216333163 -1.1433240672978824
Ni 4.8110896340552705 8.365608282671014 3.1327909561457594 -0.012720018669829705 -0.3378709804174246 -1.3744361595904975
Ni 3.5909916234419708 1.823892896137698 1.0408329637195832 -0.18628722266844044 -0.43584852280517844 -0.5173162404633671
Ni 1.0663649851549666 5.481501224887922 7.461080385094626 0.9201147747921122 -0.7574616466028438 -0.5523038122821455
Ni 2.159943842875949 7.573363433497613 3.1389070345454297 0.5474104887455863 -0.18001501650648352 0.7530041250521224
Ni 1.6120040691606143 1.219299812142592 9.799424403344856 1.8851202394493276 0.8705655031090748 0.27289868931109773
Ni 2.260469897333921 3.9898936568207835 11.349711766750337 -2.7855439635704156 -0.5571696250148791 -1.6265765333083213
Ni 1.0318640300798998 7.491956580055655 0.5707560422362631 -0.8023659633147021 0.16712324814547994 0.6115803385552757
Ni 0.41611494863537146 7.247952002845385 9.017663186791433 0.8584489223511989 1.043881767439144 0.69191137150586
Ni 1.172393913775701 0.06622981381421619 7.894828946533471 -0.7502733563845208 -0.35878356220037566 -0.06520369039084255
Ni 2.575514138437191 4.8594698519504105 3.9142497963373364 -1.0565848168281093 -2.0924249449096997 -0.2987837846079758
Ni 1.7170939407569863 6.200480845020585 10.533837425672912 -1.12843917976625 -1.32594618240991 -0.3309043192916043
Ni 5.488844650818434 0.5705409981776841 4.838551417675718 -0.5670529455668621 1.5289208930363605 -0.8163417087685036
Ni 4.222920657416259 7.827650685124649 11.365531121382745 1.8489777280904998 0.5928483093634113 -0.9006872621951197
Ni 5.200450848066564 3.5403201064073873 12.39692562295046 0.35353388376566214 -0.12147228307558434 -1.4279140769039795
Ni 5.750240564119893 2.213883278355313 8.376805598629508 -0.224915990784232 0.8852850687074367 0.7072359176780723
Ni 9.042245821575186 3.9914055386300062 12.2237644467151 1.2452801347174103 0.830958173130098 -1.3698346562627441
Ni 8.033426250873134 5.2916426757023745 9.916262817373022 -0.4554436713282866 0.09703677574103933 0.7342355861953678
Ni 4.413408374808129 2.7816841081359085 6.497842642355114 -1.1673499978988349 0.18312245178721365 -0.3684588805066106
Ni -0.09507295031750071 5.136801562955294 0.6612463942748764 0.5726659208782654 -0.017094493588441527 0.012229709296972485
Ni 5.233975183836294 3.4823802880042405 4.249219888440547 -1.2592273409261217 -1.615082930846425 -0.42011337145810873
Ni 8.07645384372941 5.872524569832336 3.451817738089349 0.7967979823086212 -1.1408624931312676 0.6374656909624699
Ni 4.538152709924401 0.9017811557801283 12.660454134754247 -0.4938708649562333 -0.18914500383220972 -1.9973270380625863
Ni 1.5594262663665754 3.2134249656566665 7.9668067283938075 -0.5630826480652045 -0.15368049237701273 0.9323887070634588
Ni 6.85005476048264 7.998634188120516 4.531715474022398 1.3896846011091357 -0.6506335958029956 -0.780477904992359
P 3.270322430762772 2.590539050826986 12.524057980079688 -0.7079923362281225 -1.0428129598549976 0.6648615664769195
P 8.757739714904176 3.040976533702795 1.4182343474685992 1.7123151104277219 0.3819204053281552 -1.1305251157610015
P 3.257983221462652 6.894603625718382 9.50943889893669 2.4235215827177683 0.9232864876518744 -1.772732692283831
P 6.7453592928365 8.709547308413908 1.9292381912446963 -1.0342100486773351 -1.0759326252271018 0.3130842603910479
P 3.000099381432309 4.35857683515562 1.8843362405677941 0.12348237152707765 -1.1810673474849271 -1.3158995968071854
P 2.0509287129177434 3.9292869164684476 5.981698400427659 -0.14279881246750245 0.43256419562695175 -0.4141838933475512
P 0.7451088818355412 7.386425351657833 6.467715814899527 -1.0020949133103454 0.6650996506296546 -0.3785939120580835
P 0.3121866905781354 3.1901739137334593 10.120319908766925 0.22660417711993233 2.0795326623280634 -0.5558228811789975
