# total energy = -340858.882848668 ev
CRYSTAL
PRIMVEC
9.34004993368740 0.00000000000000 0.00000000000000
0.00000000000000 9.34004993368740 0.00000000000000
0.00000000000000 0.00000000000000 13.67010718466353
PRIMCOORD
 96 1
Ni 2.527034505575699 0.6543461355751347 9.200788620574864 0.005535327995932402 0.9493597877001585 -0.6239298612595642
Ni 5.459427167937848 0.9276901619548793 4.292262801814163 0.925616935557264 -3.2984484481193324 0.7013174953111084
Ni 5.512198448717652 3.154013361537931 10.858999561406797 -1.3941374946741667 0.29730360051802346 -0.8307337158241178
Ni 8.733385447665908 6.956655814232357 0.875041235826088 0.25156701771285706 0.6581155060023376 1.5313881236299303
Ni 1.2924387166700901 5.951162104308657 3.2423580895931385 -0.7214942273692994 -1.2233373118977318 -0.47784337917972547
Ni 5.973017820596221 7.9244624236345516 5.457872049663542 0.8168924390656511 -1.228824303154232 -0.9473103613702973
Ni 0.07562171235994236 0.07437574973055729 9.520449953394793 0.47152772137434273 -0.06666381987613682 1.187549355664845
Ni 3.0814038152048004 9.104951304653895 4.062933759624652 -0.029795743205193844 -0.5506338807788904 1.8709673449877133
Ni 5.418966072656768 3.2066819017710833 0.4987166235182242 -1.074393048654124 1.0482444152832142 0.7537947392742179
Ni 8.832492714985287 8.471602534799304 3.518398588319985 0.08036522862262933 1.2206883043106591 -1.0543530992841132
Ni 8.303976662913442 6.292522240581265 3.6483056035153774 0.18342892728403895 -0.817997756314688 0.5444516632275785
Ni 3.8245075090316853 8.927247519146544 1.9852275627870992 -1.4454487433536332 -0.8346384501951626 -3.183916600917323
Ni 2.39965490782792 4.068712448371283 4.758413474058947 0.5180513188571787 0.2827856094075065 -1.2035511304097402
Ni 9.20919559930582 3.8427486260870753 10.054678379860432 -2.547924666286902 0.004134590993663847 -1.9674909285377602
Ni 8.503013121925406 8.074753163285491 5.9320336825321895 0.6178605151370327 -1.2513826480707222 0.10880008692455456
Ni 7.032310216766233 1.9612516552186474 13.295832537047815 1.132361654749108 -1.3450939589829545 -0.4461244508098897
Ni 6.197487234929142 6.584828435852896 11.631484249560941 2.2766974511409566 0.8611213269770396 0.05069958323739655
Ni 8.400646177262285 1.0295163177406297 11.36096652221907 2.6717803619929987 -0.42989179100111125 1.0606808412743538
Ni 0.030277639098033122 3.5339385630034252 7.103862469473828 0.43238730372945533 -1.5959996889627288 1.6878680331289513
Ni 6.624654407754679 7.667611057007191 1.9707915819776722 0.2937482790665973 1.135287055926019 -0.7642647855676064
Ni 5.451852387634765 6.190874479744699 7.519078114708952 1.177561648324514 0.30569619545709287 -0.13534852683704432
Ni 8.52028287381246 5.542581630377244 7.383334502458817 -3.5631499463316185 1.4743818814482157 0.034433241977205216
Ni 9.46968958531444 0.7550486833825116 -0.24993879584768997 0.07454707927895549 -2.3950643558183398 -1.7396227971037392
Ni 7.826457282179246 8.47672088203246 8.147643845114457 -1.9483889176009863 -0.8677334329769185 0.805705054990264
P 6.931129458414445 5.428754444737694 5.70010623851738 -0.18331117075925205 -0.08656235857227673 -0.14841255910985407
P 3.5528521636368944 2.704869051778787 9.901039232393641 -0.6640586109596499 -0.9558963032670957 1.0908306253848568
P 1.66632090598257 0.5387443404934319 5.62374479422155 0.7419231846476125 -2.1295650442951066 0.9014238832508281
P 1.2552279586830575 8.093890925111653 13.567567272865018 -1.145272706383821 -0.3468019643584673 0.8332685664308295
P 7.475364814123885 2.9764029765275355 11.226138234839098 1.8719595336976538 -0.3501318000626486 0.7108758284235047
P 0.565554019139511 2.138890060378129 8.843110483479178 -0.14615821585803862 -0.9469414080666531 -1.270095393988877
P 4.850894910124309 2.82375854435332 6.6574239721114825 -1.5035662163216557 -0.00696846089803316 -1.2514692942472578
P 4.635009001461589 0.40266168443934824 13.455240099206572 0.2623962471178771 0.24136205215539722 0.10255616289737177
Ni 6.884326469390092 8.777872104365768 13.110015050369949 0.5383488927639503 -1.658488037304937 2.426312515199344
Ni 5.02367648944211 1.509043809159366 8.486046921653458 -1.5187843188229908 0.5460208074869113 0.7075390507407879
Ni 4.135867405682218 0.2354607848146329 6.130113720455331 0.03274582697245328 -0.03421675509102494 1.468832669495212
Ni 1.3946468804883883 0.5485822148377446 2.6666962686731135 -0.6214765146230652 2.154335566371567 -0.5301144206692999
Ni 7.36006190063244 1.4785859071022092 9.350421820727238 -0.08309162641485689 0.8078717236242796 -1.1981374155933364
Ni 8.908193817767643 6.09658667806822 10.239265781993396 -3.0098845414671516 1.6439445922731237 -3.699590420681261
Ni 6.3512711531662145 0.6924656803975434 11.464763428490578 -5.510006229338162 2.906099134148369 -0.538596489998382
Ni 4.960491053251779 7.236567763558004 0.10830254624463802 0.2215786988808829 1.0483071502003494 -0.20696094896770809
Ni 1.246093390080819 6.035605493606036 7.47730194043074 1.5705555378580114 -0.5050957871377753 1.3603922799029218
Ni 7.772565195435979 3.0294637988479 5.476504514801175 -0.41601888967376094 0.9157989210255776 -1.1910799945259227
Ni 1.5482253176321579 5.502129875145859 10.59315746294251 1.3756967714704758 -0.3179279616365944 2.2585711738538907
Ni 3.024625653105611 3.490245810527688 0.9154079966052436 -0.36074428547117227 2.8008052606048603 -0.6009969066124746
Ni 2.4094806401076285 6.341641561930112 12.923882804017344 -0.49117994838763146 0.14324104221124365 -2.0057096056993267
Ni 5.664226437611962 0.783172507020753 1.9847904484613481 2.596059574120916 0.5766336472767618 -1.9620797848245173
Ni 4.096443055917343 4.102672869064268 8.268719843322716 1.3306181339642826 -0.3425982106897648 -0.6828212362791338
Ni 1.7501198318509579 8.337414040823475 11.544050176351051 -0.6052394839389125 0.32519441339102056 -1.5730888458028263
Ni 6.626578457991961 3.9846800212605062 7.851508229467655 0.17549321737673004 -1.163895463691331 -1.5292075710388437
Ni 0.9423736540812382 4.8994164682926415 1.0336632998054496 -0.29772346166426145 -0.4923444010093779 -0.5926336222494439
Ni 2.3557379941594894 7.3257652381504155 5.99339874303686 1.5797757709046987 2.78696758339082 -2.1926000091694045
Ni 0.3015397684006417 2.1778567477079234 1.3060238189522535 -0.0005337610162829518 2.016297922738134 2.1181138650353715
Ni 3.445880574473871 6.627269621669431 3.6481552287152796 0.6430051327234604 0.2052503940345046 0.7056492899172429
Ni 4.465701920630529 4.513149373083875 2.660571998087748 -0.12486279681437205 0.8630355132806168 -0.10458759150510374
Ni 1.0684923451201194 2.191577280710672 10.961333815895985 2.1327920358728365 -1.0500480441508562 1.3659240083544282
Ni 7.69626632947311 1.5048688069454599 3.3570361537599522 0.5098093905633607 0.8478035268222108 -1.162117802965618
P 5.011030062154348 8.088511056487022 3.4996428345263704 1.7153446412826652 0.20854783383885375 -0.06469744017838536
P 3.436204282989291 5.729905667071002 6.866248803204374 -0.4320803140119978 -0.3597513254302837 1.2483135222270951
P 1.867075934138514 2.966726685042956 2.782946263203687 -0.8256413889028749 0.15248827184112448 0.7066062545138735
P 6.921976209712815 5.152896076979911 9.4796180581408 0.2797941308793504 1.254299050386569 1.5574655374432727
P 1.4197155738712184 3.255259500237588 13.10230483934628 0.47092068391796316 -1.1332337729414161 0.4220540401242473
P 1.47540095015603 7.531769374235252 9.204766547740196 -0.5090483440276201 0.058034169225596836 0.5506768182016838
P 3.770428621294507 7.5334879433792326 11.119291802341992 0.1273685939553613 -0.5693162876797421 -0.1313255217205803
P 0.6738780474984487 6.506885721143611 5.26215691232331 -2.046721529335314 1.5432931025976326 -0.15792178415186994
Ni 5.057861071327787 8.815222963098233 9.649209076482602 -1.430198244952466 -1.1615177074877736 -1.8407334858038362
Ni -0.32170586969828285 6.501580572916544 12.301018239945996 2.4738110750009397 4.925399591158253 0.22865051812599976
Ni 1.89345223447872 3.8744207346046533 8.920018320682196 0.1902104689822466 -0.2594196809880564 -0.15207432423215744
Ni 8.765001515885313 1.1016308414398965 7.108086039946151 1.3349221606562753 0.7618849724815201 0.686712858024056
Ni 0.26503605217556137 4.568423787182082 5.143842766810023 -1.3878141235593002 -1.1884276445047404 -0.4647616062951029
Ni 2.418717949256518 1.3785913350617542 0.5629537493042726 0.8118299369410793 -1.8607027298369117 -0.837300570408358
Ni 4.393830238223346 5.38019552637058 11.328677036416616 -1.663289572458639 -0.9637183704146758 0.5012183064602401
Ni 3.1642780761533293 1.9377894503834499 5.00696340451691 0.7498874338000118 1.4162577236119738 -1.593475122768662
Ni 7.902681427744551 3.6444780511501453 0.8895790231771964 -0.9172081426682784 1.462276099323617 -1.9029631811680197
Ni 3.431618318588781 2.5650765279856347 12.273923689784205 0.2352839642821174 0.667005866513432 -0.3213657836735498
Ni 3.024476212310482 6.288842261001222 1.4259967572914691 -0.38379525375336476 0.35634307107968305 1.0967117667559823
Ni 3.5978992233184854 7.883665086564431 7.783321196665362 0.21077286651463056 0.3563754669795153 1.42991439516346
Ni 8.697230115294472 4.019023383991009 2.8883842162067026 0.9117782299019587 0.01638255512308146 2.0861846204269425
Ni 0.6247437820700892 1.9466438174948222 4.612089453513703 -1.1987192562387354 1.6649865005450875 -0.8412739532338093
Ni 3.19694956998833 6.042311649287434 9.274087462575526 0.9760290694612287 1.1155155297260464 -0.6655549929995183
Ni 5.189079429500433 2.968286473342111 4.397714764891722 1.0187374069630324 3.5037950014120693 0.5448969782951131
Ni 2.0644872245034547 2.2167860748389354 6.97133090031399 -0.1725145943643803 -0.001312805274152578 1.4827598210992656
Ni 1.1891938073355872 9.000697669952274 7.56622668557204 0.6337435049158763 -1.4466437921029989 -1.6363940336193754
Ni 3.6969317702402997 0.528496437967485 11.092484925710822 0.5686688839037304 0.16291563782203555 2.446866685201612
Ni 4.475359532015718 5.24113152645368 5.115011901409829 1.1913365906214193 -0.7150808676437878 0.9295954605890377
Ni 6.086172522657693 6.0973525621432545 3.5387262724773594 -0.9545035366846271 -0.4961406348270165 0.969973093075136
Ni 9.15449092823904 4.359505555592236 12.251765355886503 0.7901203131781296 -3.091505496873753 0.009004774601771588
Ni 6.563757283739756 1.6658165432990109 6.831116206274599 -0.3201869328741002 -1.4740790054958162 -0.011318767446928894
Ni 3.9824477493832724 2.2492801077297204 2.5046641525499105 -0.695976285603853 -1.9101730686528975 0.9375815641183077
P 6.827707088135727 8.41014500780265 10.46238929516519 3.7873928223082256 -2.56559123032873 -0.402976454667506
P 7.7722102735475485 0.6326267840131253 5.30320829874515 -0.49621879636311955 -0.07913469864963792 -1.8841668743971227
P 5.603161192702519 8.637799379081748 7.368283012374454 0.621060253021253 0.6325739100878073 2.219371106615662
P 1.767202782744101 7.928431944755155 2.7552100516278104 -0.08954792356316191 -1.4473942971157783 -0.6287146842427173
P 6.537894686132805 3.6934479317038633 2.581558913683355 -0.4222188478368858 -0.4390613733155213 0.3992056747711641
P 7.692166047656767 5.430949356416146 13.264856262232554 -3.2905369065817394 -0.01350111981022836 2.4420412387885104
P 4.1930658700177075 5.249976553515356 13.66212313396776 0.7174709651425193 -1.7033144495910084 -0.653957517969906
P 8.146288603903633 9.51237361242306 1.4445750501408687 -0.68630482395236 -0.15224967346775714 0.7220151328697758
