# total energy = -340865.634631112 ev
CRYSTAL
PRIMVEC
9.28281898006417 0.00000000000000 0.00000000000000
0.00000000000000 9.28281898006417 0.00000000000000
0.00000000000000 0.00000000000000 13.58634389904992
PRIMCOORD
 96 1
Ni 0.6802988298951287 6.5372768827298895 5.875617953749117 -0.4399933982114874 -0.33699449134974224 0.2610937262563697
Ni 2.493383797509086 7.808521838216741 6.889403919265997 0.5386656526734206 -0.15485137275666236 -0.2017611499343235
Ni 2.931217246974516 9.394213010622389 10.622347625553282 0.1677894209745691 0.05627347778074825 -4.120148335875956
Ni 2.6765523855778612 9.167025293999886 12.631387336375175 -0.692697357742265 0.637885809219024 3.8731784506154785
Ni 7.95641571339978 6.7125922057719976 1.672084513954325 -0.33326536332461315 -0.46404658250594916 -0.2903603364309709
Ni 0.8662671162287302 8.887426780284525 5.435434094467195 -0.22237599797119767 0.36438548176818536 -1.2254021648465605
Ni 5.763405378931918 1.3837063098580868 8.10712135451258 0.8732042262835025 -0.271497438088197 0.7702953080324024
Ni 4.665888384407318 0.10187151425017019 0.4342001540381996 1.5911588159306596 0.029010014079104876 -1.3873076162365268
Ni 8.978017812666604 7.146656830650163 11.072109497665597 0.6466728113830348 1.1576497398919354 -0.26391011265924225
Ni 0.33022979437132816 5.889076184996944 13.535205312752689 -0.41304309487488866 0.5875500370789494 0.0076852844593996664
Ni 7.162456188895301 1.1980220777914075 0.3207408966050651 1.1892475693028746 -2.0862902927668716 1.0779817944466465
Ni 3.403777722994036 8.261681222149106 2.0052903801549076 -1.9079120405328625 0.6515157412976328 1.181457126724178
Ni 1.5727045083721893 2.0500642019080058 11.288974719359432 -0.5145808438100751 -0.2920557218555228 0.549581528254976
Ni 0.49407248118831054 2.152917838427468 4.373810976867667 0.3711001747841996 0.15706483546821337 -0.7657097455442491
Ni 5.923153414208401 4.301157135987985 7.321572064185594 1.2377815123475198 -0.17581203416872948 -0.6364814726723296
Ni 3.7681098101886086 2.5854693637792185 10.15929739778414 0.39983225261156946 -0.40916227176324366 0.18267585116809829
Ni 4.990991277745279 7.9885621162217015 3.6471184732724513 -0.8118067970126277 -0.05267419046526412 1.1634244375921834
Ni 6.481579967647147 0.8404497395240434 4.5305021797880265 -0.243718982423348 0.04680281928615165 1.9936367336951921
Ni 2.375547690832366 6.929912285605674 3.837191622247651 -0.7534797791369604 -2.2372418162484955 -0.1283965209992434
Ni 5.682273539294725 6.160765736770557 8.813896641274207 0.9083265239079323 1.6671745093353414 0.6366457661643358
Ni 1.9434788720779992 7.103510287099399 11.558405761226439 0.49893182441890843 -0.34088945552877414 -0.08318932833498577
Ni 4.760294655472565 8.980617002037132 5.8587714935004245 0.6598674556964378 -0.3429679353243577 1.3851316916311307
Ni 3.493923180055453 0.7344185939991106 8.108112759601052 0.9908026282259774 -1.3142137244643302 -0.45761599638925704
Ni 3.9834990636327503 5.8857158044536195 12.577273141962701 0.5207219237108064 -0.6695103781028405 0.49302111536142834
P 4.50686440902691 1.2409179852242986 11.77580103189548 0.0911188675947076 -0.4119130950355035 0.23038781253208065
P 4.6826067417513215 0.7220993646647262 2.510552371583341 1.0550814928097056 0.97531173167923 0.5273903368699175
P 2.0469544574825527 3.2830453767330137 2.1332874607065557 0.42825476961832054 -1.474776802893789 1.048092205976066
P 4.446748872014272 3.090501141291976 8.233243305589776 -1.059123266979247 0.7784068813959433 -0.1951791258414316
P 0.8399484672882988 7.359010602222296 1.7565915866455324 0.340607148401665 0.5876305126078977 -1.6317436793315576
P 7.401238146674194 6.288255975394952 7.3243299897641085 1.2426349837850792 0.04612996158884314 0.6908510485621457
P 0.13597659191916886 9.388086349963286 10.769093216003698 -0.13680274278506763 0.3526473673956507 -1.0279013328504878
P 1.05971735482178 6.258792307316182 9.288521616279462 -0.6369103326796322 0.7936067290648332 0.22959077055208202
Ni 6.622975869403867 4.098364668171724 11.273853006914468 -0.499734779936178 1.4295657535747894 0.21167095284886775
Ni 7.702716265197893 7.777999928751398 4.871695911893393 -2.17397288098652 0.7065921134464863 1.594206601618048
Ni 0.7931185010867298 4.944920646152672 2.2044931817940867 -1.1118563357069045 1.0060045327773963 0.3392825160529705
Ni 7.822093319858569 4.851052778599892 5.558010008617456 1.1013006716782454 0.7303056550133423 1.4174124060417073
Ni 4.9222427188948155 2.2771869387962447 6.200427510000976 0.018031403580414107 0.34324407180387984 -0.9325954237576262
Ni 2.080010576584159 4.326239313413581 9.590111128633326 -0.6014530203132867 -0.64921074731354 0.8635857293571322
Ni 3.1273632162575704 1.2882882115021703 5.108791181427196 -1.4747338654709956 2.112570823729955 0.1871822236788841
Ni 8.217300063647341 1.0028600873414815 8.557222977806902 -0.5351530115344719 -0.5101896567209149 1.935545743089731
Ni 0.5256582017317332 3.3789554645054944 13.112846322861081 1.659769218010206 -0.5561869493866357 -0.3585053688383245
Ni 7.770109532448009 4.023767933237573 -0.005254075656138609 -1.8874411742730202 0.41076278348114426 1.1429011208278512
Ni 3.031620219230338 7.097671393834892 9.450824283394406 0.8794345234639306 1.005230116505217 -0.5358235552389352
Ni 5.846031752457166 4.574684685959329 2.5803183274159833 1.654344447450209 -4.362620076155764 -2.7082188073256908
Ni 3.876440310024541 5.63056823645958 2.8737287477899467 0.5890201938665727 0.2172502467088581 -1.0504925878874423
Ni 2.4017530893787957 7.182637037793614 0.32646468291173475 -0.20348327483175277 0.2636519739018492 -0.4519310301893378
Ni 2.5137131715142864 3.572845708727698 6.339673510835502 1.113672562980037 -1.4877485325631086 1.3251612246147695
Ni 5.11147298788843 7.101969339115444 1.1662284220983425 0.8519574010895844 -1.1273865701320198 -0.10017455003907265
Ni 7.99094780075108 5.0891292421210705 9.206242420191563 0.7239074647964823 -0.5202429271918588 -1.8412052832339323
Ni 3.543168535807777 3.276315332827182 12.512031632198614 -0.12358932941858713 0.0069800308622589465 0.2808223150335486
Ni 8.593699815776507 2.8538171006478663 10.174554639389138 0.5951648733117298 -0.40836625822450956 1.4436394580590364
Ni 0.12068871701087437 7.295339745463541 3.697713550933614 0.22373456888162116 0.14322715825417268 -1.8743241772750883
Ni 0.13620959068059832 8.707767097865961 12.924893369786696 -0.33746963121394785 -0.31688769329753813 0.04015883160707277
Ni 4.7995424149675365 8.057041473315932 12.035599292298926 0.26292975102384397 -0.2649238986357373 -0.4811678155672681
Ni 2.6484904231953403 4.885278532918237 0.7824701792048276 0.1659935054164109 -0.5278479932326263 -0.1688885675760188
Ni 6.424277124846188 2.094705279346823 10.171131135675386 -1.1500364463210515 -1.1437884085288108 0.8446192155569582
P 2.925415484986731 8.635119754959707 4.58336690673881 1.1684877110477037 0.6267578176266625 0.8000589124480801
P 6.091320966481559 6.19151043389623 3.554309775388161 1.4351604740537476 3.3423428355094376 1.6071515918144903
P 6.856002479290877 3.0107710073510323 5.2780912376403695 -0.17134705641884038 -1.1193948101757947 -0.7530833150294901
P 9.323385100275503 3.188202813166285 8.275388232950968 0.21859981875821707 -0.12958951286608003 -1.0381188968134378
P 0.2909514015730608 5.21203376807032 4.276899272905616 0.25473950190356776 -0.8596951360534743 0.45364775577012845
P 3.5864543216462472 5.541610980253262 5.674527026688634 -1.4429501453014957 1.0073340502220973 1.145286333230576
P 4.499345325490741 7.810647603809064 7.707111680079839 0.3874940427611907 -0.12896627745978434 1.5340720982199967
P 8.528209526458383 0.36482686145689097 3.8610763159989667 0.7165381689156046 0.22167485813911503 0.09541800919069374
Ni 6.587459803219439 2.0776991546082257 2.68330285168589 0.5830408363546863 0.4216843154896544 -0.44828083503126015
Ni 7.36196253872168 7.972168657549016 9.574296917877499 -0.09157780950899712 -0.02853024622920893 -0.9833281742258033
Ni 1.0429989974777771 8.674840938232881 8.728071408259375 0.33040038307199227 -0.15400599403723156 1.2484143094710176
Ni 5.099210383751047 4.358190777032713 4.938079208416675 0.7638935182711166 -0.29350608114880417 -0.7548532624457193
Ni 4.134057107920581 5.128079951402268 10.376054010493561 0.4842837354884305 -0.6884411535690724 0.5208661625981545
Ni 3.7420436539298856 5.288598460670728 7.981270461755453 -1.207034203862334 -0.70521580192425 -1.3905019548041084
Ni 7.0069689676226465 -0.03886437906281893 11.617044401707467 0.8200294420327361 0.6868763801851139 0.15470559120741742
Ni 6.005148556029377 6.294753948821272 5.759224397173041 -2.2539323895302985 1.885443427116701 0.17378831887048135
Ni 1.1127593836189107 4.951502164951616 7.470763677490061 -0.9596807100101923 0.252414710425133 0.8472574245107538
Ni 8.981768071615509 0.21754193921208956 1.7222730041353833 0.15541393012835172 -1.0058027011792356 -1.0377792540858322
Ni 6.489173313736761 6.161211312091219 13.069683070235792 0.5038120353293452 -1.3869949700921145 -1.2460941459782733
Ni 5.333239538109546 2.399645889424832 0.7758812341505394 -1.2261696391402044 1.6613774430375903 -0.41726587470698456
Ni 1.642056450469383 0.31311506064831973 3.016603402642113 -0.03257356306064713 0.08931549583738166 0.7140233729135509
Ni 8.937832488434406 2.5242120400073835 1.612739450933664 0.676849334966415 0.5804658765386583 0.5050685334442657
Ni 9.099808400314197 1.3963402267626888 6.5766054027517304 -1.807573711222416 1.6766554522425832 -0.9408319527348055
Ni 8.687586248967648 8.145655265212575 7.214063093847132 -1.4723108578517998 -0.24206319198747986 0.029169422475104605
Ni 6.9153568251307185 8.629633608824056 2.6153981010989296 -0.18203513226030585 0.6956608112459631 -1.051209668559125
Ni 9.235467519817396 4.883162050145093 11.333959261107927 0.0926990675976339 -0.6987535912386741 -0.5689984993290073
Ni 5.29796482522381 9.113649083712259 9.784939865874671 -0.8333012194409778 -0.49789926938933604 0.03566351483988051
Ni 2.4676425399216786 4.3297110877870715 4.256683149294417 -1.8307105543501956 -0.33454243026482383 -1.5707316584245594
Ni 1.7404821822397676 1.8527950115041156 8.927369822936113 -1.542154875228131 0.7986612607696052 0.12033456992671533
Ni 2.9491609364503395 1.4987297223231286 1.1919167676164208 -0.9550097868970842 0.6742808029082904 0.29735322280903626
Ni 4.250844256029909 2.793376664963912 3.612772042304761 -0.40365291190924035 -1.8294617695447588 -1.6921108675657055
Ni 8.063873628232749 3.9341144655927196 3.38922226251908 -0.07122469977394184 -0.695588306136815 -0.2871217748890152
P 6.893588614152547 0.18985036131486854 6.82855132641043 1.088537715585622 -0.5583276498787223 -1.185107836102888
P 1.7534224321773246 0.9551185482963915 6.862122641976551 1.6629836111824456 -0.2553614517582828 0.6666744513159422
P 4.78053120128596 4.492958745894586 0.7528765516575311 -0.05337918695208871 0.8500383296900005 -1.40327365264748
P 7.388195785725652 2.334935356917867 12.234217276329735 0.4054416283785469 0.4669447299893506 -1.415594378996362
P 7.1441690351098 6.131682664278186 10.805599758994681 -1.810197264888192 0.7786051134496785 1.0026772681763765
P 1.918034664704367 4.981801286756627 12.272367806597579 0.9099288353980458 -0.4968147780759056 -0.630829673703191
P 6.675563040061155 8.221588726108711 -0.06888501629241656 0.10051522120794303 0.6543951197279568 0.9600872014199916
P 1.0905734457776188 1.2804813605714063 -0.13655769639986545 0.26153878421358834 0.38389192723222915 0.8935233974568288
