# total energy = -340864.3632813796 ev
CRYSTAL
PRIMVEC
9.34348253315217 0.00000000000000 0.00000000000000

0.00000000000000 9.34348253315217 0.00000000000000

0.00000000000000 0.00000000000000 13.67513114095894

PRIMCOORD
 96 1
Ni 5.105745994688288 4.085176091663652 4.704505089668072 1.3937829395482253 -0.40330915541657636 -0.20471431902537646
Ni 4.520199291895498 0.7782149173743064 3.3972584575574705 0.27374175403768336 -1.4302995464170205 0.6015034139352479
Ni 3.347246533298767 0.8628463128737802 7.5707986659666 -1.801871518631316 0.2688923963651821 0.535227059305517
Ni 0.32993331552023963 5.545571744908733 6.8488744930695535 0.1648874168364257 1.0400971035857312 -0.6776836579422523
Ni 4.528972821933035 7.743747460799209 10.00867768718296 -0.13023151732545313 -0.08496416084722141 -1.1383986049718073
Ni 6.727634398911852 2.432454195295388 5.509067693254148 1.3694037393729126 0.5063011202997861 1.0039988152012775
Ni 8.00240308596337 2.3439714163225673 8.85966573371422 0.2856403052474823 -1.8540178616175682 0.02174227677309804
Ni 0.4083316738652502 1.0720805218712213 12.732750379441688 1.2360097651590778 -1.1613248747506775 0.7934560624195819
Ni 3.085956046078604 3.0549076538371382 8.611202913574498 1.4266148984765818 0.8132736113661414 -0.3365969988010074
Ni 0.7992087881318598 6.165053976025629 2.514938458523695 1.012635664940669 1.4727219772472895 -1.1616105243118962
Ni 3.5678181239229896 3.400280139787651 0.5635764381173214 0.02787461492308103 0.022532890995193452 1.1878224068205736
Ni 3.706204442757884 9.111894911636828 1.3064328147876312 0.9250345806912327 0.6129890459773444 1.0143007113479177
Ni 1.2448134822588184 8.266758235433068 1.1688790002406433 -0.6349866332943581 0.9904228762890556 0.9930407735278769
Ni -0.013043501525454939 6.4402195347109075 13.51232851090809 0.7103888614847572 -0.32687102976249516 0.8828227232098731
Ni 2.4264650230333418 -0.026386928838135593 10.726348706860533 -0.7672768329210528 0.4893596073494411 -0.3910719899204362
Ni 6.099229142037929 2.7742855013904952 1.0605880384354696 -1.8051579026920717 0.6013231796036418 0.9687163378498994
Ni 1.5929890129497588 6.303580447097545 4.839601568325952 0.08036779972579063 -0.2121610051114088 -0.5960441905928896
Ni 8.20130714074409 9.042360715109295 8.590033385346544 0.898492054316014 0.9878060074914989 -2.2050428629184475
Ni 6.060294850593394 5.063027592844176 11.736626763946566 1.1271808818791167 -0.881578823500443 0.625657128363316
Ni 2.1583444501290048 1.098335707606557 2.960036735900883 1.2228927681611457 -0.7812944873563834 -0.28838727186500007
Ni 0.5940950549028469 5.591336122037442 9.492824954467908 1.3323924522558859 -0.9309756287660161 -0.24308006328776846
Ni 0.07092076932579738 4.45690654165665 3.831060464630737 0.7402427116213961 -1.1470722214864053 -0.2633652958993658
Ni 5.030904700118881 9.245319841281166 11.910218390372979 0.7774056938249385 -2.248346667912405 2.9333168322137415
Ni 4.6114010242665335 6.713320183770737 12.190011775924702 -1.298497599280654 1.329459337769491 -0.9196257509708357
P 2.591087840638636 7.887347442851299 3.2565549550704893 -1.067083402366588 -1.3436849944505698 -3.6163877226098364
P 2.5356436156729845 6.985140775732439 8.768343470419346 0.447020737371914 -0.19245401360078468 0.3962818162561498
P 1.63301649184306 4.706134593010508 1.1303763776861342 0.8210519697599794 -0.18925144750308698 -0.31497402121459306
P 7.567940494679609 3.6780992474938667 13.40629119707422 -0.5607948804722922 0.4849463087730938 -1.1547791032123595
P 0.8919353768416878 5.073548354103248 11.667334563614956 -0.563107587765869 2.7431529001987145 -1.240095248082361
P 1.3508526647891823 0.8186516407997102 8.679947585833478 0.06942724155388688 -0.38314605020514014 0.5068076276225594
P 7.683257755300788 6.822723019989613 1.4329351582713612 0.7672146122245497 -0.4868005883730132 0.30505521943898434
P 8.777024499980449 0.4081980620659565 2.38442308931992 -0.18567272901289314 -0.6528629993541466 -0.33294603231198144
Ni 6.575606595673545 7.680865823788957 7.445083043706682 -0.7365380090762992 0.7434558192420551 0.07636073544892656
Ni 5.306210411041179 2.6597904672265087 12.360964802902128 2.300580428406141 -0.2785692573333138 0.6648895915013774
Ni 6.207800408317145 5.578068376932753 2.639163795329951 -0.7033746349504532 -2.0509715628609193 -0.9309100656354031
Ni 5.824577474888397 7.458537658460734 0.46240520995283285 -0.3820523029203291 0.026813520648418337 -0.6041187400709079
Ni 2.642570429037817 5.2488694591345055 7.138062750242942 -1.326858152701218 -0.9409628218857149 0.8215849594453141
Ni 2.2675510732160515 7.036137503043278 11.162421180173544 0.24245425677831148 -1.9339917683390497 -0.744841129625356
Ni 3.141035875228 1.84733729269613 12.263460891606368 -1.6601916502596055 -1.0785448660389683 0.7921797668103197
Ni 4.617642470555218 5.947472299791196 8.087664232181194 1.262879078746096 0.030972280011798272 0.25203187316441755
Ni 8.092259356859001 8.62372598312648 0.04594003459910948 0.1984138307286454 -0.5509637533144833 0.32326248647563033
Ni 1.847636284135109 7.690190619292111 6.762421118488802 -0.4034986457195631 -1.3402908811673562 2.045458089241858
Ni 6.607682770986501 0.5404625311877581 2.1026881281113274 -0.3682632195560367 0.4842737081861015 0.5966975079061724
Ni 0.2062601785278477 3.414360767867064 5.878569722678506 -0.6991071179233508 -1.3321289141818542 0.23343919776389474
Ni 4.47237000514134 1.0369677147561356 10.301585584726896 -1.5466010839249427 2.8883387248411543 -3.6947973701679913
Ni 7.946220725882739 1.645228423428855 0.46689381893050375 -0.06832938050401781 -0.14088231217107994 -1.137658384371673
Ni 7.836369402505394 4.477125837717598 7.911664790322752 -1.2098901852538906 -0.06934650891462252 -0.1154895831295882
Ni 3.2959601580314155 5.145072712396483 9.941369108179329 -0.04905613409670261 -0.10630611685810724 0.20686916058485016
Ni 5.643360632419772 7.834659545213734 2.6781784407237117 -0.8063336897131984 -0.03924711842608079 1.7898816932592914
Ni 2.8530136846666294 8.311550890385094 13.09538775229674 0.06930125749898387 0.40356883683586625 -1.5110177875036945
Ni 5.027662511702453 0.9887646887032545 5.690318172259657 -0.8177738132293401 -1.1000277185030924 0.7375589941416459
Ni 7.317722034184135 6.025686591531586 5.9579678336476025 -0.7453072706284971 -0.5553264011585534 -0.19683980137330614
Ni 1.7512582624767508 2.3423923677854597 10.163781364849763 -1.2879820444613108 -0.23128152799094362 1.109081858285561
Ni 8.499139987896957 9.30515550300682 11.12857534928113 0.5704987380236175 -2.0124317549145085 0.2768687297024393
Ni 0.5996320026134375 3.5827396654245307 8.153769370642937 1.6124408652378872 -1.2601400825483782 1.0185152636498975
Ni 4.1702578430180886 8.149413439116312 6.896559890193703 1.0628989319715951 -0.482603262462214 2.3462067108856886
P 4.847492139270255 2.7456103536959238 2.9695549414911273 0.07798644397780763 1.083936983588817 -1.0836711315219403
P 5.331876957381025 0.23913522159182563 8.09457000007336 0.5538076505211816 -0.6167356575039701 0.7232379495332835
P 8.411535496276136 6.545567299538632 8.268298975692055 0.1003306160009627 2.2649248839860605 -0.6185595980865863
P 3.0463396804138987 4.547379482395175 5.046028060841732 -2.063425986574188 -0.3703748665824009 -0.2634812526519398
P 2.2617113966734945 1.3195613420035457 5.226894522717802 0.8349312988452331 1.1298255185908155 -0.949186752457404
P 5.49864877595398 7.6693733403532045 5.278750850415707 2.472011045677723 1.7924561388546871 -1.2681128163412096
P 6.594349621504535 7.463704604265588 11.15191910587941 -1.0649115915262497 1.080047418726424 0.8068522812208299
P 0.8073899413809202 8.204427863888432 12.172726333358735 -0.9868935229795586 0.5407328196150946 1.028145330540494
Ni 8.855406974405264 4.29764688298804 1.3380745181658211 -1.147945368119978 1.462485644231262 -0.35534985392847834
Ni 0.3547234432045785 2.2759041465425245 1.8176577206362392 1.9865392034184628 -0.10145984450939945 -0.17104906556244734
Ni 0.5564651136108574 7.9965727529032815 9.514759713909998 1.749543141541245 -0.07731667160429265 -0.18166103675033873
Ni 6.612298451325738 0.28219279184952906 9.962182649725246 -1.7364922218945578 0.35985905465274154 0.07743211413623438
Ni 2.4523931868822944 3.817989867006124 3.043933733678365 0.14718922822571426 -0.41469708553854384 -0.1665516919127261
Ni 0.8550211463067542 0.3880451047305312 6.459516629052255 0.58551578025774 1.3194903994822371 0.5228453978117125
Ni 7.982697681438166 4.156476206377654 10.37786577559639 0.9732270812360594 -0.45309342592855517 1.2668763728309473
Ni 3.457518313387176 2.8118369574297524 6.310019975214554 0.2714868965652356 0.7120845040196253 -1.0607314920066313
Ni 3.91540501521844 5.886478046239499 3.4024001759596607 -0.23418018969497734 -0.02331502057685662 0.3678654698969858
Ni 6.662071182433259 6.240465223025591 9.420004655156347 0.09321997309811043 0.4173772034738683 0.5348987294318207
Ni -0.03897633711564131 8.371470643452962 3.9967624544610953 1.503866521170894 0.2020506561502843 -0.4806052581955787
Ni 0.9349088557571784 3.2147839823486417 12.288350060204866 -0.3687075061823069 -1.3698829930021763 1.1621229451719406
Ni 4.211584065974455 6.195504385389137 5.690850750760338 -0.024681304796763944 -0.5878451997218651 0.765969684073855
Ni 8.063743048366387 6.444274606102058 3.6243471272031864 0.14825649314796402 0.7898716875024332 0.3042370944130632
Ni 2.970498633220404 8.579933080798538 5.07400711909243 0.5120002275670924 1.8759128619184466 -0.5023354507838188
Ni 5.721285276203651 2.343074442005631 8.134692782487836 -0.7088240881007987 -1.1525638407285956 -1.4806394323221532
Ni 5.806049349154171 4.1470112586374785 9.417515551426847 -1.4128515261439023 -0.06915161929499704 0.7084062838370896
Ni 3.329596694916543 6.686345549885359 1.4373658376577299 -0.540007768523612 -0.060648466919992323 -1.607749887520121
Ni 6.946552193139223 9.048583474433043 4.391782468854056 0.12402461718379285 0.33823967661075294 0.8058562358561476
Ni 0.24271751277009168 1.6384357116745532 4.058792900218504 -0.32023886915795813 -0.003573319173555136 2.4480637908335066
Ni 8.584044213084498 6.584071790789635 11.290926766298432 -0.4743423080050025 0.3854556721749232 -0.4127294202892118
Ni 7.5722478400974005 2.569831418023729 3.30615483175235 -0.40711515942622784 0.3806402530641509 -1.1855480089641002
Ni 2.9438043038090687 4.64538327000298 12.364917095986131 0.28318695861098325 0.5900344940636999 -0.12482191627410762
Ni 8.82924522349461 7.947594217805549 6.308884742094681 -1.2347393830870863 -0.7651291904504307 0.23167336411272357
P 7.832977718369477 1.924607892707242 11.154297956515785 -0.04582502875391463 1.4177389361431905 -0.3661916817389887
P 5.7215655806776935 0.41813859306375845 0.1812402011747938 -0.0009664776783273677 0.470208488342287 -0.09847839328357233
P 3.9843879462803558 3.1840065510987503 10.83445093031985 -0.16607423805567528 1.2325981683743674 -2.062119094837307
P 7.423490255722925 4.40947902464862 4.478974912898034 -0.5453158110000867 0.2055427284639428 -0.3642031905540502
P 4.760868713308584 5.433029498580578 0.15891862155852457 -0.045697759147430975 -1.2529767320307195 0.6983663831025844
P 2.1958959061682624 1.327484615136487 0.6170557287199334 0.03200534926200294 0.17559091929685888 0.0706837396688073
P 5.837406076317085 4.287826882914077 7.041147478342669 -0.7160059505612185 0.07794170678280125 0.016708828114248644
P 8.20135385815643 1.0743603315934356 6.542305489809022 -1.00721963613142 0.2874477907698662 0.22337487154935723
