# total energy = -381164.0751359536 ev
CRYSTAL
PRIMVEC
9.33836292451048 0.00000000000000 0.00000000000000
0.00000000000000 9.33836292451048 0.00000000000000
0.00000000000000 0.00000000000000 13.66763807621419
PRIMCOORD
 96 1
Ni 4.6538570861444715 0.9533160924075705 5.206399601310828 -0.7045647986038124 0.8223434348778935 -3.7807457493053533
Ni 5.169614856883555 0.9037191143852575 12.539510448355903 0.20679742680665034 0.7543850645600492 -0.9640101906234817
Ni 6.322379699380667 2.9424153580374295 4.821504975968307 0.7151520872013555 0.9593048147280124 2.5260859731452556
Ni 7.749720419716657 0.9610575950681302 5.477100992474357 -1.8933752803692683 -0.43596293689585564 0.29008085751733914
Ni 5.4629141518930275 8.06497420538352 12.711230798143877 -0.06870630422746232 -1.4986204422806062 0.09469064410636595
Ni 1.6592496190963457 8.507416490732913 0.9081212185519496 -0.019979014225088174 -0.07761877622574376 -0.20741243468282985
Ni 6.499453732492282 9.123701735707128 9.286968065762164 0.9346867590690161 -2.6384118138348818 -0.8598771701572933
Ni 6.7990284072217735 9.397848048862791 1.013204879937969 -0.4451327763205818 -0.10651823286891332 -0.6091226210434026
Ni 0.47581665972644344 0.2190275612814941 5.317954748033118 -1.5920095939667291 2.081717328684208 -0.12019804434885106
Ni 6.2217775182441075 6.679366627858192 4.008130785153434 -0.3269304222455208 1.191664149164167 0.4704578853489317
Ni 0.7842048811519977 7.570788052432 9.832320975502268 0.32821314561268633 -0.11656713246448311 -0.4403433253517384
Ni 0.5061000360568757 0.7759787174684188 2.70310300534548 0.39917096487848674 0.1880116615587149 1.3041373140649346
Ni 8.687908364584896 7.943314016406716 0.863011323796704 -0.07636304944177172 -0.8497714491818591 0.6572030214903972
Ni 8.865962925777763 0.32975346139792344 8.35979658734587 -0.9147424547366053 0.4698649889599392 0.07246679971115907
Ni 4.078931449473776 9.008923920024452 0.7420711225824218 0.710568324485415 0.5141121317037727 0.29805821929586085
Ni 2.8981235038528292 9.140118577296105 2.883475348155177 -0.04442583441354284 0.23434474029729965 -1.4367962098849578
Ni 4.480929286062154 5.241604294772883 4.64360729926844 0.324371403269093 -0.5951111372556589 -0.2174428223356384
Ni 4.7119697170934 0.9821156029083733 8.92081273280679 -2.521475213846122 1.1273132936919228 0.07949182487874051
Ni 9.056829720565672 3.719189704006065 12.765792049766135 0.25699873025138964 -0.24662278633370427 1.6786678546869218
Ni 5.734716536016362 6.5950131977823965 8.629787329109556 0.4989282248744827 -0.09170096535042271 0.019661482984669364
Ni 3.2644301182835966 4.7376969062729435 11.527558776689402 0.46756128052742696 -0.788515687695171 1.6688079311737067
Ni 0.8379480922036091 8.228974530745093 7.173719003665388 1.9464132819318545 -1.1680735063284207 -0.5791183613718285
Ni 7.347806628392387 1.5145797044794729 2.9576901178708157 1.0107435901242787 -2.8758308221821314 -0.27825532563732075
Ni 6.758350499393791 3.9009049033689447 12.747792355703131 -0.11439429318288041 0.3431918784097057 -1.0602450392885159
P 4.52811603267712 8.906584803429675 10.845735034764237 0.034207756229960445 0.6655223399893699 -0.6570520977348298
Ni 6.896875771368146 1.6732478247515674 7.801351293130369 0.04605077161147553 0.9489119015294625 -0.16351933284430548
P 0.7094130006228215 2.8021811656928914 3.9132773000818215 -0.6481223993453676 -1.518900275575565 -0.22910894581965702
Ni 0.428357232921262 4.8153453919455025 4.733581489840484 0.20598444398705168 1.1588149638446301 -0.5678723561443639
P 1.7391019583610554 1.4891326661802875 1.063234224152301 -0.2253829031183215 -1.5288350181907735 -0.04008761204950515
P 4.541059003349661 4.993932239811051 6.995151766361466 -1.3860796573666967 -0.3778079258216783 -0.030781504157230858
P 8.594132526566394 7.440947457748745 8.267922973805 -2.2222597410173663 -0.583306431311247 1.428449123471843
Ni 2.7728120150686943 7.566072179279308 11.66249998506771 -0.6799315734361645 0.052302408948142184 -0.24167341274822896
Ni 5.917823151418353 4.179748412951944 9.42774481697833 -0.2339513615136229 -0.6577198132258157 0.6279649505608863
Ni 7.694362605757916 7.552951779715874 10.519283618409466 -0.16438990837471687 -1.1430556441278443 -0.2651781807383885
Ni 1.4352596518874436 5.421433144874686 13.009458880975115 0.8039739312317703 -1.283287724309435 1.6892425448789745
Ni 0.8189025015206043 3.502240862256827 1.687911855665773 -0.08824077471596416 0.36356272875657386 0.4541532346516372
Ni 7.979752307578614 4.740731874143488 0.8629515582755609 0.4589288016634096 0.7129288542977915 1.714220812090867
Ni 8.232196265869211 8.471715930212625 3.3888087046361397 -1.378830174893135 -0.23793477164140317 -0.4292616136162801
Ni 2.326111436337858 4.125156344732847 3.8411935447294394 2.5212954937351477 -0.2779210822263536 -1.230133251773643
Ni 0.960170450613663 1.8220639723977388 6.9661766946423045 -1.5282529204350583 -0.902663412084884 0.3336728831756769
Ni 2.7221047057238956 0.5265230352349741 12.69174070139737 -0.7275116372079728 0.7115448294660713 -0.5360071320046511
Ni 3.6373763085788493 8.122190353515302 8.934999573388119 -0.38333425495654627 -0.5023588478225864 -0.015402964818631537
Ni 4.032557140411849 7.922489467633438 4.391507926560683 -0.23753676487203612 -1.4294652234411833 1.262013645422007
Ni 6.610253405673872 6.657570889366339 1.7914444150108768 0.725994429232498 0.03667087305847233 -1.2082102264483063
Ni 8.74591827354436 1.624707015548204 0.8694697354252239 1.2315995519065241 0.31905230504902476 1.2893290454075086
Ni 3.003973844814761 0.20185898149688777 6.92659511059279 -0.5036971070180357 0.1437110398691267 -0.39531508146750627
Ni 1.8175535432239747 6.233459809955036 2.976675009196409 -0.6616844543005185 1.1990707260408833 0.1364021649125393
Ni 7.847969333458209 8.780890441775718 12.48056203394724 0.3790651952675472 -0.12239222378669246 0.29360481151019757
Ni 0.26045533963256773 7.077535735748343 12.110469647286568 -1.096749304862137 0.4553446838565771 0.843211022355522
Ni 2.418635933757428 5.701415934704474 9.80136336938644 -0.11092793190083478 1.1076230143518473 -0.9693238895269111
Ni 4.682049603071165 2.6680169090894434 6.683721106375223 -0.05785419200430682 1.1469156413038828 0.8319717019962769
Ni 5.585330748246796 8.753332933511167 2.9017757374964295 -0.03237044591090554 1.0528924555781867 -1.2048055716421318
Ni 7.512311225338607 5.174349406761605 4.927498193879222 0.040918592591232754 -0.41151457404550423 0.4690162678063987
Ni 8.530024666777804 0.9311412163909668 10.63990071227507 1.113468931609663 -0.898162438890737 -0.21201985154785422
Ni 5.325948386485999 4.007483636619807 1.1969390333119616 1.4622689002347655 -1.6808540637049632 1.013479758108519
Ni 5.367961680177022 0.17822732090242235 6.878238267134195 2.3133487838154028 -2.8814497110308053 3.5728951986438404
P 8.644811820823156 6.161899936748924 2.868495680582434 0.16864791232012247 0.13964921109492723 -0.06123133600665583
Ni 4.195016635931455 7.00423892708401 1.9234468406542287 -0.27975967809698915 0.22659903491360975 0.21001747640584473
P 2.8374334848046066 6.7991217908485595 0.030793250932683855 1.5309029564633958 0.15002464079198033 1.6479460001230326
Ni 4.987302002309246 7.021029303180134 6.37446348338429 -0.5925631740228247 0.12926786786060318 -0.11418192006175819
P 1.9187440412092855 6.311183002529026 7.833278221292235 -0.027940435164009948 1.2884427861478134 -0.02290158718852185
P 6.274427207026055 8.754434860307244 4.874781268885989 0.6148489820042184 -0.37029979037009125 1.0139322722649056
P 2.0064592818493763 8.51703500429187 4.802343589588087 2.691539289787481 -1.8609480130784983 -0.6913873806815899
Ni 0.21749606980220368 7.162673588289141 4.824839705280835 0.2968793684964113 -0.05513190797713731 -0.004601246217437236
Ni 2.6635811868171086 1.4904400369552915 4.409220932889451 -1.7656845271877981 1.298311194301461 0.47061857929651213
Ni 1.0587555454116444 2.1944591992949536 11.798274175396948 0.09671564495619472 -0.8040402656933313 -1.4050382007470705
Ni 9.119826315195507 5.7831639615929396 6.811007658865881 -0.07427711344702047 -0.10391524802842748 1.0161233663789533
Ni 3.4238453075699793 2.2569328456147884 10.813903357901692 -0.18682921121483956 -0.0948402823103528 -0.21626525708776947
Ni 7.878150921635444 3.5494276088717935 3.108253473174153 1.4738110965464102 2.535209275602763 -0.2767663997966201
Ni 5.0506908081715824 5.6148586510365295 13.387095730843827 -1.8264630919277511 1.4683354181438195 -1.139635562702702
Ni 2.7016256763697255 5.816604638345006 5.858332178138063 -1.2477432515459221 1.1196943436940845 0.4438577662629
Ni 7.147676177827309 6.476266577961318 13.005386421010975 1.8369148833886944 -0.005992984358641292 -0.41061983014537673
Ni 3.2591259282821516 2.5396237606213705 2.2011183857210637 -0.1883561893823272 -0.08765199209202969 -0.04604048719883038
Ni 6.524714003537895 4.635245729326021 7.11719015902675 1.763529428518008 -0.18465688615386908 -0.5001674965982225
Ni 2.7479439552555824 2.368078038215487 8.124002929711217 1.0791835280642317 -0.11235566548629682 1.8349693296265495
Ni 2.2199716061328894 3.517574453775089 6.107329346763988 0.6615309594417897 -0.24614533247665352 -0.47474931363543404
Ni 3.3118970157789214 4.945895702192332 1.6425218100301695 -1.612195581996301 -0.6885792218088335 -0.5816884360918498
Ni 5.2321725484674975 1.9239268324959087 3.2717047028102266 -2.313556528950835 -0.3265550411839731 -2.5508942904381873
Ni 8.329800832585939 3.3738383754260757 10.477884788982696 -1.6340203911808764 -1.6808926302523826 -0.22788612915614948
Ni 8.509620344325063 3.482770376071946 7.909475525404541 -0.5913429284624783 -0.80395336240648 1.6368167229790909
Ni 8.68928110389865 3.0946213313359325 5.75883192379758 -0.3848229236869308 -0.3030872970793361 -1.0877725552848232
Ni 0.4269676845546863 4.931262487874966 11.048877107293166 1.399444508709377 1.1518120501642357 -1.6808139544956473
Ni 4.603682063472353 3.148167502935025 12.726552249790657 -0.3758078646725141 0.15085664977497243 -0.06492344014626238
Ni 1.7467033855814356 0.474418706833457 9.638445360259315 -0.001390966810255669 0.9626541908162196 0.2177724377609153
Ni 4.709429682444821 6.641770379714147 10.797597642828588 -1.1751630661853505 0.5520474732969654 -1.0912713124667013
Ni 7.992377773920081 5.392811063264776 9.278959485928997 0.08101726038433145 1.2929584146299797 -0.2954189819008009
Ni 7.675517789872502 1.7153825171574109 12.7523840286322 -1.6872211435735716 0.6586171282291045 -2.133662868513564
Ni 1.2740608353294485 4.28516918923066 8.118864028729185 0.42201238825303455 0.9796679517653967 -0.5125278179357883
P 0.853412420799371 9.056428170970491 11.754113992126117 0.05445056563939655 1.2144379525255729 -0.9041302264383978
Ni 2.441711027936249 3.0073076402910215 13.548756796354414 0.19625153297000397 1.4683079073399938 -1.0342301032819932
P 0.9442111887959356 2.911738836638228 9.603701981913584 0.31998664393783605 -1.650414259157867 1.2285530517707164
Ni 6.415791341254703 1.676338822798184 10.289995064216727 -0.6179476755342003 2.536741138866257 1.8286511007180057
P 5.712612631556115 4.295133222208727 3.2424280019765472 0.6396367304718598 0.06303162244018821 0.03495209059515271
P 6.264173684804952 5.476660221755926 11.21601885785982 2.145241317379783 -1.2803214425922596 -0.0219883313456331
P 5.9309809044325 1.9999691197877492 0.5691069028856585 0.39745655329054125 0.14440343795046098 0.17774267553253906
Ni 7.243048875863851 7.443524845848039 6.532734723242545 0.6655809611414473 0.2945448068259637 -0.38127454421404017
