# total energy = -340860.8118006759 ev
CRYSTAL
PRIMVEC
9.35518686028625 0.00000000000000 0.00000000000000
0.00000000000000 9.35518686028625 0.00000000000000
0.00000000000000 0.00000000000000 13.69226160680891
PRIMCOORD
 96 1
Ni 8.282072041031382 2.352829482610701 8.227721212223736 -0.11293030704284422 -0.8957296610795283 -2.116169082604175
Ni 0.3994898647363159 0.8970220872370858 0.29230748945889723 -0.7899431641703168 -1.0994613044766612 -0.5775846983361214
Ni 3.383668161972095 4.200001762976507 8.633491213865325 -1.7436915678564742 -1.1569925659239106 -0.059175739029207766
Ni 1.331495673047846 2.9175272688108884 7.783010245487246 0.6062627829971043 1.6247795893088985 0.6429812214640603
Ni 7.342895482030306 9.11501109862281 3.3632850809513704 0.3235766752819395 -1.7118373994603548 -0.30260675789849173
Ni 5.501701166035825 0.6737820709559948 7.659231768809622 -0.3166046148394806 0.38101563412569867 -0.32238548318731575
Ni 3.617781711881967 8.845011052111369 5.938498580250086 -1.0987737914913336 0.8956522708743735 0.5263068739977517
Ni 7.640053635849973 9.325156659926524 7.667734698100855 1.173414973145992 -0.8054440880193935 -1.9590294280339682
Ni 7.647500364550403 1.799180172032634 4.477397084660926 -0.6610601904529582 -0.6743247687723484 0.6440644272259101
Ni 7.022396137120723 5.124818110224871 0.24114958590936106 1.2890827337246573 -0.26837174797502167 2.589391160961805
Ni 4.182638536257918 7.471716404398296 3.847511421252867 3.385283086516389 2.1494288730985693 2.061595361123353
Ni 0.24845224473292332 0.3065975373105388 5.728034007076165 -0.2225742300249328 -0.3038941092513476 -1.2871808887162544
Ni 5.217322197398051 0.10756687345529266 1.698593203455973 -0.8617617887745158 -3.6050589278605787 0.2923074328550127
Ni 6.383137512048141 3.6614891446563496 4.721598332507574 0.3254785202903427 1.8494775505450536 -0.00045251415638631747
Ni 0.11560952755549314 6.139547157900159 10.575847842425258 -0.20599395706874846 -0.3847876995736212 0.2893673763900823
Ni 4.339786964285331 2.478778362628148 5.2367145641356405 0.7500640685871921 -0.2253934446412828 0.9105196749045092
Ni 1.4821048254953597 3.7022964695197604 2.124135392419622 -0.5588045895151408 -0.40456205398707096 -1.2750450246846685
Ni 6.241069645157779 1.7604309882673317 11.556885120324505 0.7467272909044753 0.05668176896276045 -0.3883697604979247
Ni 7.578374889214378 2.542627512603567 0.35689008608018835 -0.584082133135007 -0.4489745186641752 -1.3960431963373119
Ni 4.965274754374203 4.638975193642678 10.944717245215122 -1.2896388633384435 -0.9670515485529666 -1.6932694066501806
Ni 3.4170006925746477 3.851708158055647 0.20603863429430647 0.2668779370383145 0.8723063970595816 -0.27964552111662805
Ni 4.005460653271181 8.177780418478127 8.457627734625337 0.10972851227609488 -0.26328816280452716 1.5746667318129073
Ni 0.13051795325524826 2.8696754882798596 10.855238625456161 -0.1729146580162764 1.1283579329063533 -0.5709270838102877
Ni 8.49396702226849 0.586208167231467 9.675910678978306 0.1745784188719445 -0.07292805561829376 1.319093678264451
P 7.542357419997474 8.834374204708869 5.438867053829245 -0.9160200358974483 0.0763692200893588 1.3506686248572546
P 2.0285880629772843 1.909823966429599 10.153208567928623 1.6342487051415984 0.9825095349792496 -1.5023642255937546
P 4.495794059521976 5.84266965968478 9.092853338664307 2.6227247421169286 1.6183068371003615 0.31008506855340795
P 5.701817967079663 7.065542258686531 1.9769025268916878 0.5586624075103218 -0.3223831691944706 -0.06409914447275412
P 7.897209010871854 5.4884261559530225 5.817992547918456 -0.7676925803022328 -0.3362414152338016 -0.8623626555833084
P 3.150611748171706 6.535552215549904 12.247070575832426 -0.2083280045185638 -1.3654902632511192 -0.9647822929028158
P 5.695465795235955 3.4947797157095395 12.779754912770214 -1.5357137475884777 -0.482861144109291 1.6273594342209328
P 7.404237441940757 2.992593287771001 9.910239398184798 -1.6550764405202272 1.2082719329241773 1.6158604324423977
Ni 5.168553608559682 5.065992695566199 3.233208692513535 0.8227771799812024 3.4210437890557666 2.261046117756945
Ni 2.1054315674312183 8.300146261947502 1.1362445046636722 -1.8302811801222607 1.294262478153384 0.9177701858193354
Ni 6.543588321019339 8.386242046156115 13.292242336904787 -0.5177211892112696 -0.4450895817874722 -0.4970567188833827
Ni 1.610252174413059 4.614885587607996 6.113129045868571 0.34946434168197876 -0.31180590789925655 0.3957030609345443
Ni 4.000885966921294 7.736945305636849 0.1095623348017772 1.7966020427022606 -0.17806740586180944 -0.026162260217664626
Ni 7.560216471616973 0.2621313988858989 1.2332044673142573 0.8372144384524549 1.2258922171091016 -1.4825271362631693
Ni 7.326243249509243 6.407591970368397 3.549760148589472 -1.1736623132701078 -1.0328617621795568 -0.09691747655435566
Ni 8.986321148870154 7.6638251655331295 4.426338346091572 1.726779108371852 -0.5336172916162358 -0.4584811726030298
Ni 2.534357527463894 6.099984072882424 4.628257891633617 0.15202830148557042 -1.4282935717305854 0.018117278426001054
Ni 3.7916197931776807 2.394029725320115 11.655291394855851 -0.7242039129909785 0.3452137939357409 -0.10765671734873072
Ni 9.29749337253058 4.007481373622052 3.9765615456976917 -0.68252195987116 0.9908396521115 -1.1386711419069036
Ni 3.46815485404946 6.470271721992619 2.1801364761804805 -1.1943540372915042 -2.052600099603278 -2.3309292159013277
Ni 3.1494704153809367 1.9038085813110357 1.5382845933242812 -1.786103457163782 -0.7110910297581045 1.5479126036475148
Ni 6.998016520294945 5.4298439761514 10.074465025033662 0.04650328576786184 1.3290711011921368 -2.185322501671385
Ni 4.9982798534384205 2.397940193406521 9.417646714319488 0.6448768958248764 0.5101073814197538 0.54018388909016
Ni 1.1168409117019114 1.1845163330824515 2.5178147506285042 1.3032911640145555 0.06492472569784302 0.38250970217272184
Ni 7.420580953297103 4.2907470750294845 11.864741865779614 0.5531682171649699 -1.4104447164746226 -0.9674120172161791
Ni 3.112292902999645 8.569790811360178 10.775207808856202 -0.2675734204434424 -0.49436245988067123 -0.9342838672036425
Ni 5.288730338315615 5.879089401934495 5.446384881949428 1.0158827111230568 -0.09344982972072938 0.27246597264905337
Ni 1.0999641546974195 5.904600996364234 2.7699716493380238 -0.8696275646758378 1.269539521485407 0.17103363894347964
Ni 0.25094633753635875 6.608017492576952 6.5676161828210775 0.5483746524310685 0.6531766739398235 0.40009836178876257
Ni 1.778645536985594 6.076268674320124 0.4308362891791934 0.194032156721182 -1.1980615680500788 -0.8450336773865575
Ni 5.447749803704945 7.7260932889377285 6.853031706157354 1.1107139945723452 0.9595400706672701 -1.6239221264046095
Ni 8.90925311993279 3.459679054799975 6.168582851201069 -1.1293292956806873 -1.2825485321505654 -1.030389389379664
P 2.039224910379783 8.039370429630312 7.474345211891789 -1.2920017071436651 0.9730031381507114 0.6566756882320175
P 2.711703803813202 0.38869023708333067 13.170107566549607 -1.1926429681376685 0.6218266988736323 -0.00874380763090107
P 6.258722882667467 2.1637611571889823 6.286910996043428 0.7908114257078832 -0.09034290866063151 0.8012855857663297
P 3.275391229837955 9.305997237340494 2.7337418173805426 0.022439045729806515 0.4131793633424368 0.7902455259020842
P 0.33728535660202147 1.9329874089701324 4.27554583198259 1.1205960295727473 0.8522438219817515 0.9617897859333951
P 5.075114002705544 0.32897140208434295 9.9372955339568 -0.5056053797843422 -0.9543245879046017 0.5174771915212637
P 3.5712115919438516 4.092688415083755 2.4848854285774453 -2.4402877464325132 -0.6825494706749858 -0.3253278536450913
P 3.960649308453268 4.431907488799317 6.206606072469947 -0.7696329918580552 -0.722521125971917 -0.04179790987239253
Ni 1.4459470284763125 7.828289349645639 12.354185593764816 -0.7786328813638203 0.16994014876898475 0.013766714766789194
Ni 2.1280524091367954 4.4906674171503225 11.369574634504307 0.3555336878045103 0.4074982537972595 -0.08898896573589835
Ni 0.10401377350501216 4.379527797852449 12.845422711061417 0.5253828195215855 0.8359378857328765 1.5230407801064996
Ni 2.101633361586526 8.22778389197536 4.185574193878765 -2.0927573885484536 1.3982746567709918 -0.5454551647914284
Ni 6.532249834606121 8.026909320799945 9.364480252161934 -0.8961405233647018 1.4734375152570753 -0.07791393886865937
Ni 8.305937122582636 8.305506783989394 11.509810755817353 0.3756260876790112 -0.7684459135284896 -0.8300315475507706
Ni 0.9251119711515466 0.7566259922295964 11.397862848379132 -0.4662237926629261 -1.792587265115913 2.02980315631342
Ni 5.464411391412817 3.7690737929665805 1.6381147272880467 1.9155415320536622 -2.8391113552739102 -2.2682912293551323
Ni 4.924130642785647 1.8075249986667838 0.40220567546713853 2.2087858749006477 1.1403043066349523 -3.6536633191318435
Ni 5.548664203819943 3.992522429913525 7.731499651394988 1.2635300820665336 0.32033168598208056 -0.8951758454585874
Ni 4.57081330254804 0.07972957958469067 12.197313143748286 1.5740087865139345 0.7570520698692511 0.8299963234374609
Ni 6.958500211211256 6.411109520608801 7.77724557937518 0.4481368532542282 -1.6453712974173211 -1.095675612181984
Ni 0.9576436977631985 0.8319754733500392 7.711509488220266 -0.38816510068628635 -2.757933143831682 1.7061809725055261
Ni 5.634357714995744 7.401019257678259 11.25342344163254 -1.1950500349172644 -0.9562146058384627 1.2880463220403429
Ni 5.037964555884682 5.5495435913800435 12.971089999955895 -1.1264121220338923 1.6043148936966436 0.9219502853389542
Ni 5.323905840719656 0.3791002350848249 4.3789356145274025 -0.41819944226484757 -0.04085585767409738 0.6958379602537759
Ni 3.271761417355836 1.0933313272494236 8.196680702389532 -0.9495953007497323 0.7701189303555382 0.7152346196128327
Ni 0.9879451478394453 8.352563373641608 9.686809471611472 -0.43325145150196354 0.26113640656884707 -0.8207426660496768
Ni 1.6101960432922013 2.5694768987470775 13.122471890833879 0.8287799345318565 0.3421400401064237 -0.7334403439875821
Ni 8.094809266663914 7.152377102653102 1.0965663508481782 0.2724500318094533 0.09089389606809507 0.655315060439065
Ni 3.158479460278567 6.28546936175607 7.04169775854626 0.5169578286826839 0.02733134082510132 -0.4756342873435485
Ni 2.4820152572642646 6.50769246923096 9.410047496074062 -1.0045194635914378 -0.9134813286359945 0.7676979796188713
Ni 2.4063972822823865 3.0351500325678042 4.309694134874938 -1.498132189790278 0.23189319343301354 -0.7401853760208994
Ni 8.500197576683673 4.647235823595542 8.010383383300812 0.48830391239141707 1.1538329372490064 1.2377321471668232
P 7.988365951144453 6.461206545974131 12.55147712839216 0.20727642332559787 -0.10749062408451164 -0.4600870836375689
P 2.473137184981968 1.7118495031651553 6.180317062016332 -0.2780010435346696 -0.5582098933539353 0.05023215668267478
P 9.444528843616832 8.758325891133751 2.081073467535101 -1.333372042560336 -1.6186835037134897 0.378125199951781
P 8.731130363078288 3.8920383683917694 1.4268839643144204 1.0609904020949728 1.2589830861257996 0.3219674218132907
P 6.12601020258669 1.5797074894797631 2.7475987200829004 1.5338101028078617 2.5264361573958234 0.09528765426041653
P 1.030361564834105 4.562150399562364 9.153057707858713 0.9850040192663294 0.9542423126034404 1.3641268072446895
P 8.493489907741202 7.481866782086696 8.870148439068725 1.041319920249239 -0.04158142298621226 0.47636293797945706
P 7.969636867151663 0.7717916855666151 12.523120621653627 0.33190190731818325 -0.0340473193926962 0.9481266866240059
