# total energy = -340876.2616382979 ev
CRYSTAL
PRIMVEC
9.17887899840437 0.00000000000000 0.00000000000000

0.00000000000000 9.17887899840437 0.00000000000000

0.00000000000000 0.00000000000000 13.43421722947242

PRIMCOORD
 96 1
Ni 5.372985164440989 8.798450914841991 1.2719300749889269 0.35184055522363916 1.610298364973588 0.4870551275859806
Ni 2.099943874103651 6.9626292759745185 10.185917372085125 0.6345068654444621 -0.22127016650152861 -0.2777714440223668
Ni 6.135511335423097 8.879647276020071 4.574619143599517 0.056674826984224984 0.3429255121221965 0.9470681634525046
Ni 0.7805755181017751 4.1412806075649735 7.17247496554958 -0.3263565520199218 1.0098609304090091 0.9522872457595987
Ni 2.5715546628589863 3.402803098835473 2.6981277288889696 2.3299678804293227 -1.165004894705426 1.433555334350157
Ni 7.048662906239286 5.061426483967608 10.12606741126379 -1.8075318022408868 0.6557968851714899 0.5778371806665596
Ni 1.489933951972431 1.725005036052309 6.557684683379751 -0.08316181753116 0.1795992691253036 0.6426994285575834
Ni 1.7744241190935455 6.046760757056509 5.887424601314899 0.1527664652031756 -0.8147674223028485 0.21965525660592494
Ni 8.676582942045094 0.3327628082099269 3.2551103507531898 -1.5116541355361126 -0.16396156258804664 -0.33135066280040354
Ni 3.248405179846499 4.734410571725756 10.83079969025837 0.5363411183053021 -0.5855085811688884 -0.9255282324981996
Ni 7.815778516582578 7.286092962150812 4.66696600664953 1.273358638121181 -0.4663109530600937 0.27549396084209976
Ni 5.511108931455202 3.5486004084615868 0.9309833785101352 -0.021080217709066918 -0.23402849460846145 0.05475575558464118
Ni 0.04040725991161418 2.362551594350637 12.426073208112328 2.0280393795447784 -1.1641039801577113 0.3276595871020615
Ni 6.25666335567965 8.2726939205034 12.518554082791688 -0.6451728297987406 -0.3818674406030327 0.14885761706707268
Ni 5.279984765225943 4.726048613209677 2.864323260699805 -0.7278685063267594 -1.1872896742455552 0.41271296522897954
Ni 3.524037729000527 1.4168700773423715 1.394189985907269 0.24475282300450105 0.9204150796413504 0.16887648339116076
Ni 8.64886272830354 4.098975155533574 5.189436044517642 -0.4056306044609014 -0.47314828769690126 0.34835671044009686
Ni 0.9227710357172315 8.779817791035583 0.9149221765217335 -1.875781735657221 0.9873108130226351 -0.6609707160629454
Ni 7.43845317006342 3.119744836795048 11.40375631476313 0.09352876258778085 -0.734625879655251 -2.257131356083571
Ni 3.068581766796562 5.237973037313659 1.135843101163207 0.4853268320409642 0.9547585901182266 2.24199732865561
Ni 1.4613325658735283 0.5888076301704187 4.3057202198762194 1.478167059522261 0.4927179822987127 1.0113172032395616
Ni 4.015328033736622 0.5056800329091533 3.59286004377298 -0.24634793540576283 -0.9660524178644913 -0.6122652804374423
Ni 5.938248052800659 0.9225966370215065 10.880641001720836 -0.6476827407047878 1.6454800550810436 0.8811299088884826
Ni 3.877672389537249 5.672161537517894 8.581898218584493 -0.7929505835380731 -0.04467471719955532 0.7326713270320414
P 4.695721597910969 2.5356560681757996 3.5688939914288733 0.8321208259796314 2.1768980250531156 -1.4667500759345706
P 1.460203563790677 1.2673186063188082 2.2079269570572198 0.3518636951520908 0.1257860799595898 -0.6689025693155125
P 8.17100112313827 1.3233464820401506 10.30318489086637 0.08371717581399775 -0.5537500578103689 0.8302174383093314
P 7.6004603795132395 8.790134850719525 1.1603507073519332 -0.37632542773888095 0.37593744827184283 0.8298875657737385
P 4.290905509618316 7.2938582935499365 2.43250658275743 -1.5707144320333788 -0.4155193243295231 1.461935685265063
P 7.65516649669856 1.8545557303398297 4.680857321707964 -0.35228047097453524 0.27067391374563704 -1.104555174059801
P 7.388180451301004 4.2092410256253965 8.154502088634812 0.7352074631903338 0.5843775528882388 -0.4773119321562877
P 4.274787398581835 5.283344234838331 12.762156934644008 -0.23037110036153227 -0.5448578975270617 -0.5544319143687418
Ni 0.13010785222596827 8.577992605688125 10.337011812621919 0.6142848819706325 -0.1571108582148004 0.2838981257453949
Ni 0.5373425750619663 7.854715320122869 6.929651400500789 0.6888427598828654 -0.5668889091851721 0.5741036817660565
Ni 5.046620952588426 6.398504568576422 11.023822330911075 0.3445856734334388 -0.2607294009384155 -0.2682308515217833
Ni 6.687226198788549 2.1542369417464653 8.97415117556984 -1.5953389154502782 0.8841208731960064 -0.0073664676674002165
Ni 6.292213152971385 1.221552717009075 2.7772157016245207 0.3093844429419575 0.7117237782460968 -0.34288386025098366
Ni 6.666160672120711 1.5306881734997508 13.360865821292247 -1.68969711591789 -0.07251127979584931 -0.7597542992917625
Ni 2.1768078045247714 2.9475857874782894 8.88775497959554 -0.4342166436287103 -0.11445162878337709 1.3042949226887215
Ni 9.029988130613757 2.355382890068466 8.254318723189089 -0.04889364037690934 -1.2072630320436886 0.7987239956867406
Ni 3.154955015574057 3.8181932554162965 6.869479261036298 1.4804987929792308 0.8383827477289433 -0.01391840985330506
Ni 4.97891754313223 2.062916277337613 7.061776770269935 -1.3073748471656257 0.026380289765741666 -0.36520257835284203
Ni 1.0947189708233758 3.6977204721851993 1.1237067877164904 -1.610518194293878 0.4630407669492542 -2.29747505000794
Ni 0.23937689608854149 2.801063346433108 3.146804171268593 1.391796762356132 -1.6874666839254744 1.3209438440993122
Ni 8.413415310196044 9.126779406741141 12.474409183464324 0.9248764578468136 1.3290934697896402 -0.6071385007338383
Ni 3.7854338372561602 0.6273332199439472 8.839002283149547 -0.5282817383359354 0.23454631478514443 -0.12236059921780862
Ni 6.367663536069261 6.783530994343648 2.53513103631288 2.1114112562042155 1.2045515466497965 -0.174533424566622
Ni 3.545415337544925 2.025347126726955 11.19836054559267 2.8194606709225183 2.144875706510248 -1.11718160457456
Ni 7.2364627648989615 2.5331777709207595 6.720830073791143 0.678164968454045 0.09598236633459599 -1.059965303264568
Ni 3.9483589345782155 8.585647790542582 11.15187778585472 -0.3637414204262832 0.5119256655754151 1.0689811336099333
Ni 3.142058690969128 5.579298821483683 3.6710879555722444 -0.1657615919112629 -0.40077893279555493 -0.36049488846452754
Ni 0.7511526223572202 5.023214811846384 3.269310994024567 0.2318705677251942 0.8734016870062893 1.158970258475572
Ni 8.601518071853558 0.43600408241552013 5.877994221315538 0.4557128658292732 0.6383102983509522 -0.39345128878589014
Ni 3.1844100373941404 3.4117616844685057 13.148390382963226 -0.39232565982187917 -0.6630957328257482 -0.39830810265755917
Ni 5.491181585748938 4.001835082014739 5.596587239557267 -0.1575731425631996 0.2363013498030382 -0.571187536560526
Ni 3.1154215849168123 7.7230626626079255 7.227514276032524 0.6744304411122772 0.6208360528255888 0.29644485206215393
P 1.4504923101024103 5.842227802485953 8.437655811013949 -0.2479371342697536 -0.03598130319061545 -0.9796162725918548
P 7.144444505707209 5.281939866393808 4.214743763419456 0.11288711250973461 0.06635117373172443 -0.7602273822734391
P 4.526435537634312 5.974679022449743 6.530937430782767 -0.9419940913637067 -0.8043701382289242 -0.5746212448324233
P 0.9777525192642237 6.016580603817357 1.380687855306664 0.5344721834173634 -0.33732564943691584 -1.679833592860249
P 1.5899470145313672 3.4879922722577827 11.314432056476393 -0.16985375970276553 -0.9025055463507813 0.004585562488153393
P 4.898170947011547 7.89590094895014 9.346843024109948 -1.2161886166680924 -0.7395019768006297 -1.475948454604387
P 1.3969610893935525 0.24595998790822474 8.19190326576485 0.3515366508299752 0.7422409729983476 0.6687974111962159
P 7.594696043675591 3.662950879584864 0.05539545097737102 0.2774073758147287 -1.630061149422812 0.7781844809724922
Ni 1.9459131102635714 0.8504809405634675 10.374291828552822 -1.9032030650929674 -0.9231283648074553 -1.1276318533736063
Ni -0.05974715737964631 4.2269011882872345 9.80593015073648 1.7903079821634327 0.0659289985926413 -0.7374754332889041
Ni 7.939372118579281 5.043059547644146 1.6418095150884984 0.29858863787803414 0.19147108086222508 -0.19004643260055654
Ni 8.426605358920089 6.782778326288414 9.066107936274154 1.2958892151235295 -0.6331863468608256 -0.6072441730737671
Ni 3.1182119640484127 2.342358061161424 4.958501881077936 0.6815441693389229 -0.47845247351863407 0.5705447607702046
Ni 9.132892539970241 4.791668417195896 12.196441527563326 0.5125345028040077 0.9832199307827131 0.19000992293566632
Ni 5.356509077134336 6.344156427661274 4.5689640364186666 -1.017390663127151 0.7344186487404513 1.3471251304803704
Ni 5.479129717986468 3.7580624209060547 11.955015905743952 -2.101229687685523 -0.6677892816466757 -0.7019808399267201
Ni 8.194306296214366 9.289575999761084 8.28506980268477 0.18594372328609265 -0.059977408994896717 0.44411230547586733
Ni 5.804218065696622 9.119427124884524 7.666531784332598 -0.48660775563591674 -0.5772304003204962 0.11949561896518775
Ni 6.8755492535354 5.537351345722456 12.689571279595384 -0.37277164894935155 0.9512860581885939 -0.5098775247971348
Ni 2.2724608996905817 0.9885927750353417 12.743308107187623 -1.1943962033833495 -0.2027196571928509 0.7086392257835021
Ni 8.535916625624784 1.5969229623603678 1.1652916977681844 1.0477816167141827 0.7167705966413849 0.9341041470926688
Ni 5.19563086976737 6.664591083859187 0.527973693550044 -0.48144112383331283 -0.8924592178583727 -0.2909295786708796
Ni 3.040898268569896 8.294558009620085 0.6367250486526755 2.5253735204592638 -1.431521848859896 -1.5317725035525425
Ni 3.273683811847904 7.640223282138543 4.664830081570836 0.7722377764707539 0.9193565564698489 2.1037259717448156
Ni 6.163617062070991 6.262657163485356 7.96291686039003 -0.31025938934774305 0.806770777250617 0.906118203402704
Ni 2.1078193520474438 7.955471871858317 2.7199587740422526 -0.2971616756235205 -0.7049592058287536 0.42596417381193097
Ni 8.204292916264304 6.017452597295984 6.9027159808899965 0.4327022638667129 -1.6629190764930974 -1.220664135940943
Ni 6.785394306724289 8.138195810584524 10.194743781864556 1.171671508092324 -0.7490749652010454 -0.23152552568094964
Ni 2.187583808144833 6.0314044929539845 12.568502787135206 -1.1098146226865275 0.6888250192710524 -0.07730690141227976
Ni 8.85767304035872 7.188539839089471 2.559366029803552 -0.04152048784128978 0.8281762395095866 0.7286352092894548
Ni 7.350556227418012 3.380654464478396 3.211207773824097 -2.525777954986534 0.014194546332827167 -0.44238606681338005
Ni 8.50618623744303 7.1058106051647565 0.20276693830437148 0.006527259595556501 -1.8931109709642882 -1.1459399076541747
P 0.9771926076621591 7.704062383652621 4.7092173032964695 -0.5885345124794058 -0.02746632374106883 -0.6882287804479502
P 1.8403192894414349 8.137617541225014 11.987875373682161 -0.8434897299382054 0.8474104051488502 0.4200148982070315
P 4.36084856548277 0.27632922604905585 5.7594370700737985 -0.5305234831822605 -0.28708500811380877 0.7939605128598262
P 8.246479042872313 6.733148129036563 11.221036965476285 -0.2724688008625307 -0.3831776747740239 1.2100915026314192
P 4.5410115970454346 0.8465991927517775 12.922319189470631 0.4340024707353751 0.14650454345386382 -0.4585444217407974
P 1.677880672691665 3.9001055691347197 5.191303946337644 -0.25972101427855915 0.35721416083072677 -1.4037606195862276
P 7.3526581906454345 8.03625518349389 6.659072741971298 -0.5664541356405987 -1.0695472905260481 0.3292171613971685
P 4.303489752346684 2.9498621494014374 8.95802939298187 0.5684634527611436 0.1341398512409238 0.5562692246877968
