# total energy = -381174.57231191266 ev
CRYSTAL
PRIMVEC
9.14284462777190 0.00000000000000 0.00000000000000

0.00000000000000 9.14284462777190 0.00000000000000

0.00000000000000 0.00000000000000 13.38147728563731

PRIMCOORD
 96 1
Ni 8.202530282321986 4.316528841145421 11.986845922362113 -1.326953797738818 -1.213836057275516 0.7041770762470905
Ni 3.541051064795137 7.121782074287865 5.757407290118897 0.47952153821309673 0.4387376714275154 -0.5028111048686565
Ni 1.7059724795087812 7.405045679500019 10.55651374440446 1.4151552345764142 -0.15243942088106005 0.22993838369948785
Ni 3.777201592812203 0.26619117186334984 4.24190128801187 0.4121846035293353 -0.03863031077768831 -0.4719964334806452
Ni -0.02494350809307982 8.171554325493544 3.143228533530831 1.3388086401948749 -0.9734309697167494 0.5939040043214352
Ni 4.906681161500276 9.073733639544106 9.357372101376674 0.0462906555364235 -1.5771786996014838 -0.4526216284984592
Ni 3.81679925191019 8.085968159061713 11.6801830354761 0.8522404795476418 -1.911114349520244 0.21753769604228987
Ni 6.270336403814936 4.003240134922463 8.672615112873467 -0.8366423679990688 -0.049764730127953 -0.736413567683293
Ni 4.109553129609925 3.24897375758103 12.203505734686477 0.20242243766740622 0.2570951466199379 1.524799414668819
Ni 1.8116729036214179 2.7888235417549856 4.517291989910868 1.655328151519717 -0.4742731453299639 0.5157995467085245
Ni 1.3456804102235396 6.004444202963478 6.452508492776678 0.5559866604503716 -0.028067704770493595 -0.215156597404623
Ni 0.602144989354816 4.56274564084729 4.168905732603784 -0.3206978110722477 2.227728477441421 -0.7827183642871035
Ni 7.503550685069568 5.7111234689109205 7.400746714062967 0.9886835250004458 -0.8186145639630805 -0.8156428829292663
Ni 7.5490271931169906 3.799272419194688 2.686345056009038 0.25525192276361197 0.6639223424921017 1.0133509458401386
Ni 8.519832697236703 2.3293316107257676 10.5949182623082 -1.0151586884728387 -0.4420430816516645 -0.10052884805469782
Ni 8.5646600633317 3.7579741910382323 8.802335617794746 0.45251338505536903 0.5854952114324496 -0.696497962435278
Ni 8.417487697019002 6.903039522009098 5.266213460415848 -0.8607096933609176 -0.4658872352591138 0.034937692417449505
Ni 6.870216710611781 0.29390953323194086 10.787330336998354 0.6162355779391 1.8779975123616175 -0.3563132462830122
Ni 2.617440923470116 8.43515167240051 2.2808324783195837 -0.8666821088942687 0.42920787756020923 -1.1361504323675788
Ni 2.0021092096366515 8.34464665568128 12.96397461766912 -1.0267070554320705 0.20225942972698066 0.7963770927211188
Ni 0.6667995278164476 2.7846635475528188 2.5584046628925097 -0.9291547735071934 0.5348480786995434 -1.5249817058829542
Ni 4.034737233881726 6.792822532762679 3.042091303058417 -0.3891174372972266 -1.02325894898247 0.4989097129317215
Ni 0.11093287396296657 4.044958933921335 6.386456927690671 -1.8684327514913177 -0.7233335945708833 0.561982215912174
Ni 6.130103456402115 4.440231525882379 11.020690468904426 -0.563899487539545 -0.3942861259823596 -0.07790673977980776
P 1.9082761975556901 4.013105264030459 0.8038370511113405 -0.7581944110038102 -0.34167852708897284 -1.6988062773080097
Ni 3.084420844063234 5.901550632081754 0.24062686463548516 1.0161642469192178 1.283717355647686 0.29648598971273454
P 8.198571430696626 8.1779543165738 12.35274895525586 1.4733151307465981 2.456158909136815 -0.41288317225825666
Ni 1.7129027555642589 3.366962164567759 9.59471942772575 -0.475159404589659 -0.6371026511960962 -1.2905089246482224
P 4.073475465606079 2.7804578391286503 3.516330642105426 1.1752435417142986 -0.8801598316657294 0.5953973010375101
P 7.662764177457549 4.834077834116966 4.793244976740489 -0.739936493234887 0.2900194081517844 -0.3811953542366725
P 4.666315782214642 7.674229304335609 1.1657016896334453 -0.49721381328653724 0.7584597488500551 -0.40879023313580565
Ni 5.5760196572067064 0.2588677534986563 2.5777408645148445 -1.4352080394622315 -0.2362288446938899 0.09096588695661106
Ni 4.378965325555524 4.133708524515693 1.058392124906344 1.2852427911532769 -0.5186473005699649 -0.25983182882481054
Ni 0.48503978113716206 0.6430381895043352 1.4676002403024264 0.5409719322090941 -0.36155392585666124 -1.0392938909581455
Ni 0.38634826154184615 5.4140815971874146 10.479342651958728 0.47022777161599666 0.5503376896947102 -0.7256000220075568
Ni 4.0431029365080615 3.2115612382947303 9.937981120746429 1.4769920653775532 -0.5736673655595862 -1.0538800163024364
Ni 2.330995608406634 1.7496569900537322 13.163881081914253 -0.4258716140981246 0.4629597771996737 -0.7022448922213842
Ni 5.357697675770355 6.216942192516796 8.353534414722878 -0.7519849397589888 0.5296400521360427 0.09637111713258241
Ni 8.22235196898198 2.596384952816072 0.5624476732528648 1.6486003458775802 0.047808120622214435 -0.5355924130647356
Ni 0.24158137759088338 7.2605613094410275 0.8557574358921417 -1.616258439211765 2.4303578889133113 -1.5938301921152356
Ni 2.7514110224686856 1.2632302394210346 8.853466060819358 0.9433207805949302 -0.29640962794884435 -2.418020450393881
Ni 1.1044647464086708 0.7775842877001282 3.8036042988715812 0.6273144614610809 0.8872990138136719 -0.06083281501665653
Ni 6.318784336292478 1.9608384100133969 12.639808669463047 -0.0756480256526181 0.13327416080651888 -2.1354310161575807
Ni 3.1933304065603996 5.149140252153595 11.058157845257128 -0.7802225944484433 0.3797660779893137 0.8306360139039888
Ni 5.247773257544749 6.020517323419323 12.322172540727715 -2.3210700637190604 -0.37826352530185825 2.1561222259583452
Ni 2.83308405149716 7.215861943167637 8.130651982499623 -0.2190957845580291 0.05281405847723807 -0.24094424789168828
Ni 5.0582603788139515 1.8717871055538275 8.037370283936005 -0.33518212073135173 1.0265371055131094 -0.054915163980640905
Ni 4.376021329658606 0.9914866181533422 11.332733005435614 3.505084409647454 0.23219606938541298 1.4023043467556753
Ni 0.07179692850719786 0.9272947076183691 12.438149521946363 0.00033681451412845216 -0.3450849816673605 -0.20780169970144854
Ni 6.5077486443592525 1.0106774485497114 6.196266564189807 -1.7406612656705829 -0.44224491324982546 -0.27576084135024115
Ni 8.646872520179796 7.828889660212209 10.130353881205659 -1.0344424764031153 1.5346264280615698 2.09921959923403
Ni 8.332459244095594 9.036074263458996 6.672058358215999 2.0630866009568987 -0.39420642178435983 0.11584105293173598
Ni 6.226853035846793 2.2137386289719343 3.9958691737668883 -0.8346806162870076 0.09684240034204612 -0.38096189806962777
Ni 4.467623487705877 2.203736357197933 5.679540427214295 -0.5311893989010336 0.991467772613802 -0.07688421205256436
Ni 1.4818447918781974 6.079689812378494 2.122997726867177 1.6763101530880227 -0.5858852477820168 1.674466929231697
Ni 6.124636035450696 2.3876812436889066 1.4425369609477017 -1.7771205369388816 -0.46273634833495786 1.4406155836310481
P 2.0435537233035124 6.50869035733249 4.248833392636228 -0.7997439523108226 1.043155173685765 -1.0090942274463137
Ni 0.9991026075388474 0.526103038192528 10.141380151552502 -0.4522632167177759 0.35859844277276304 0.2002863651610099
P 3.8515512034759833 6.792987103961885 9.947803278485742 1.4171578668287401 0.8056993985633091 0.1314093396836382
Ni 3.0308437758770865 4.876802345999879 5.083596114931808 1.965284150694428 -0.888370906721612 -0.4407282194949829
P 5.635201289010277 8.115947545850515 6.018426354904959 0.6432357606770278 0.4697194645210104 -0.21757780525160592
P 1.207458888578799 5.184038489229794 8.58213021041192 -0.15078722998961774 0.3698758154587952 -2.2199709449831895
P 2.70237794794952 1.8167106108860198 10.870161764412352 -4.074483229738673 1.0475319625972217 1.5199587987470662
Ni 6.937608616686883 7.8565741930565185 8.195284578134695 -0.21699185084114886 1.4930704589966546 0.04230698829832714
Ni 8.773665486324077 4.982886769577331 0.9610345463090416 0.36795828672110825 -1.306773209025885 -1.3739083121114857
Ni 8.33838380726703 2.0225160383382694 5.083703086211292 1.4260261158526473 0.10957733141021128 -0.14792122129573235
Ni 5.779877658801677 6.023708176115051 5.791703928033551 -0.3614832205197258 -1.5263796146717454 0.7983686692298508
Ni 0.6465152132297945 1.972312679735857 7.601307805967166 -0.4560213982086275 -1.175975791894633 0.16049802951947842
Ni 7.20275110429751 9.049825101437147 4.124827165465177 1.0347890611092565 0.7907425201431607 1.5543416471023102
Ni 2.7708852810414664 4.2095392759723325 2.7065379421516873 -0.0446268946807554 0.6457369298323266 1.0500305606493594
Ni 1.1740875065174614 8.269849045641884 5.315256592063854 0.7287640215578353 -0.9234487242613516 0.7968648309908147
Ni 6.693119814576683 3.4985551240222343 6.223216012344327 -0.05649356421135432 0.20157474495513025 0.3286011250797244
Ni 5.372893083163763 4.875220633918616 3.716183163568597 -0.1638224659070211 -2.054032204064114 -0.5043558236479573
Ni 7.3438891933059685 1.6183200302424676 8.289356218454506 0.6271337129088426 -0.03217349940875104 0.9567727923347781
Ni 1.0563368134851416 3.586993857906979 11.721183206905106 2.6053273725760873 -1.6788974541992248 2.4068772892928676
Ni 7.506192967101274 6.3469442970456065 12.551718277949956 0.22264442114123592 -1.1127315392230062 0.827009215784679
Ni 6.210075916372121 7.294472119321988 10.78928416284671 -1.5359220069445418 0.8412844947567705 -1.1014014589221675
Ni 2.283187675037118 3.425906082416922 6.649550503871177 1.2666190054045023 -0.23040529603357737 2.026429097634865
Ni 7.54352320078797 5.960531121308518 9.701209793594577 -0.9432526463611561 -2.073998619883712 -0.9158752827894678
Ni 8.410155135809907 6.103982349950268 2.840298670013489 -1.8666106106809144 -0.2521593998812174 0.9870318483296358
Ni 7.336300632453664 8.264829624066081 1.7277361063194137 0.39066575562095296 -0.36406949318966336 -0.48423591296963064
Ni 3.988035584684654 -0.023750366898831997 7.00615343544087 1.1153628061982663 -0.12852944703268185 0.6693165169244795
Ni 6.155136564370319 6.068160685589633 1.3122020568827175 0.20639196383811553 -0.43612054551964247 0.5918718043827549
Ni 2.7552144457392385 1.7178581772292576 2.0727504826116427 0.5244014294449226 0.15849205483304316 1.2304368990569905
Ni 6.24972843253651 7.000255386518194 3.772934627330552 0.5038205199697775 0.7787560372052459 -0.6827520736040952
Ni 4.469817770361965 0.7369077729628978 0.6606765649215222 -1.0730324208611715 0.03809192177571504 -1.1552228756179976
Ni 2.409669784471788 1.0704899366169087 5.897430866394949 -1.926175871839057 0.1893568627326997 1.130352337628563
Ni 1.1305858528605177 5.816330179425938 12.560483522876588 -0.39828856227353343 0.3257004064931617 0.48585159419618257
P 1.6289623011244942 8.887265327998632 7.584353315311127 -1.195836535374302 1.2561980671814947 -0.35102397285961484
Ni 3.414431812694462 4.890745183710438 8.53047771097205 -0.7282706268611846 -0.05462848597815753 -0.3070149142685164
P 7.859518188953436 1.396459768023175 2.4855553929948293 -0.29155075719464624 0.25965725092015923 0.8076950888370993
Ni 0.15223567354162212 7.1471900388764835 8.12004079728856 0.8106778256145071 0.36156703848278376 -0.47969508767648356
P 4.639728390698376 4.0748926064881354 6.915239733576946 0.10647221012232631 0.2822472204055333 -0.049775528761230405
P 6.117376616996806 2.459598857742189 10.23569224868004 0.922971784624933 -1.9850081114859166 -0.1421753199508906
P 6.531721182377014 4.149461645417524 0.10793950670628658 -0.4333573809522085 0.3558021109745485 -0.12581487631499622
Ni 6.170267971852925 8.57416862150808 13.04735461574714 -0.5362285039868379 -0.5802794715594651 -0.6601585045742954
