# total energy = -340865.33387429855 ev
CRYSTAL
PRIMVEC
9.30824358098309 0.00000000000000 0.00000000000000

0.00000000000000 9.30824358098309 0.00000000000000

0.00000000000000 0.00000000000000 13.62355537245165

PRIMCOORD
 96 1
Ni 3.966782433231049 9.281435758153886 4.131751501947138 -0.5726543509140396 -0.9138564525872263 0.21035069137554743
Ni 2.862303492562416 3.4823535167900963 9.04725338324907 -0.1925972240468683 -0.6293273781260516 -2.0142965760373888
Ni 8.658472253710883 5.1155779212004795 4.30417181958452 1.760472643969555 2.557251085894151 3.418190378767371
Ni 8.989026596862722 8.134688083754332 2.606621867646961 -0.052830770647786435 0.39497775273274555 0.24545319150563535
Ni 6.458580601542065 8.705627815279007 12.545251264888662 0.5325281723171151 -0.6871921116533197 -0.706551490016538
Ni 6.462499372055325 0.28312139592743124 10.201277311592131 0.05899139093254356 -0.9116453038685203 -0.6584093830936726
Ni 8.56373295137366 5.643225012209297 9.112277979863054 0.06481056871748193 -0.9940792420947202 0.9186173643109792
Ni 0.6206513367577439 7.21068667629619 5.298950318139295 -1.2067716942295668 2.545236320821462 -0.6457179036689331
Ni 4.1554977619385385 -0.039829043109720665 6.572656848925005 0.039281056987809766 1.7369334231970344 -0.19697992649559626
Ni 7.075195883918454 5.1170579319168885 6.287338707531709 0.1896088308425057 0.19720206980873137 0.04894197711634152
Ni 1.5118356009342868 9.028549398761312 1.1322780098796876 0.9300865412928435 1.108694135928839 0.7077020586812135
Ni 1.0861882421922489 6.30781498158176 2.9042827399205056 1.53002801005761 -0.19533956267869584 0.5362706700786828
Ni 3.7504309295737457 2.476597806676442 13.465644797166425 -0.7239205774226048 -0.09439856678724388 0.12481137475114634
Ni 7.653433278346685 2.3946294144204416 10.206072918643038 0.10696329082613192 0.09353750433852923 -0.5118798999391443
Ni 0.755284839909182 3.316676090743702 12.891153039922365 1.0976964992667546 -0.43386851626067213 1.479339225453491
Ni 5.226876588723191 3.453963374116828 2.2349446355389815 -0.406209616892823 -1.4182073911391768 0.852154604702055
Ni 1.4010302703170454 7.094920051893751 8.952841731083028 0.358156470139338 0.2436541906236836 -1.2455549856453516
Ni 4.28368158316922 0.2851021901441104 12.27723435568776 -1.6049234738149198 -1.9662169469213429 1.2551333733624062
Ni 0.7792144722975225 3.7874777387014857 2.7025731032878086 -3.0699956478264356 -0.4593841440332734 -1.0137425248516025
Ni 2.5881757215041366 2.2036614907860894 2.299710462983681 2.502076497604536 -1.0798250183029725 -0.3625083193501305
Ni 4.2044125815280555 0.6573816656065035 9.088069100169731 0.10155600376763156 0.25541235960087627 -0.510655797724056
Ni 8.830795765615873 5.498584216471618 1.301564241930812 -1.5838085462131755 -0.3361113174138405 0.5579684667670907
Ni 2.335447602251051 7.6931980945762595 12.818866151730123 0.419156149751162 -0.8066543062774109 1.3002217810606123
Ni 5.238995921759451 1.990502714649091 11.289867080607234 -0.6163304516457515 0.9793743317843779 -0.052268213276097084
P 6.367452897682622 3.8160075050272457 4.531290168497618 0.29144379930313674 0.715263158857923 0.978664707311863
P 9.112435289178194 5.068655065719841 6.980682771898269 0.4289484532512355 -0.2766021063046139 0.12342040794089064
P 7.309363365633671 6.883473992560648 2.4753728418319163 -0.16651441091688743 -1.7165052372496696 -0.5778700907870241
P 6.227186976389677 8.898513237074242 5.780828775861403 -0.3117503720709728 0.7960562190465902 -1.5454191478016999
P 3.075164404907433 1.3596272032315706 10.809841894165864 -0.037421120960935556 -1.1080220495624789 0.2754919039595707
P 4.9962927807552555 7.563245707080686 0.17198748431465977 -0.5344564996880795 0.4032847299365442 1.177347732541495
P 1.3946541235199341 5.883563859364637 0.49407598000376424 1.2688262974684665 1.1584925475082046 -0.5723501894100594
P 8.48343073470406 8.040656207923066 11.904957672698416 -1.3725011473513138 0.5411205419718165 0.6280323134637119
Ni 2.784346953254671 4.65405659201163 1.8616998952256971 1.1921963675185532 -0.011568164453573625 -2.004357719657122
Ni 6.373633571366245 1.8789061833343976 5.717465700712068 1.1402310301948557 0.23798053727767401 -1.2896473479788757
Ni 6.8001093637797325 6.805582610957399 10.978541706876522 0.7095002882322168 -0.040764583511871726 -0.793010490241731
Ni 3.231933841924871 7.05411271239224 1.6728905532588634 -1.692512730989814 0.44345667416973955 0.04746924922555696
Ni 1.4485209286511487 5.227146527784674 5.3956089802861 0.8620980890680121 -1.9531680841571846 -2.1607880068651304
Ni 0.611746140201837 3.0126874745392436 6.306412229286395 0.6063278319070848 0.054001136806803775 -1.0677716866828644
Ni 8.877774470557506 5.45690190208116 12.566067289826442 1.6774679208415497 1.7410657001978531 -0.7342096180534387
Ni 7.5105517406304 3.0311457213986177 7.598864631655614 0.24197654581094455 -0.1909208647857099 0.3989233676440549
Ni 5.099902839147435 5.72085576299456 4.975513057967122 -0.9997279557400653 -1.3477977310673628 0.6895228166690254
Ni 3.8014680286811324 7.599156910501495 8.128535334801207 -0.5587680798502507 -0.06177898098000974 2.0906837938488767
Ni 1.0543540494241905 1.64425467295721 10.295756913935717 -0.44520656698131067 -0.061361690936933035 -1.1257917148410739
Ni 8.755873713688942 0.940169826416655 0.1443727183248941 -0.317773181226285 1.1236278744205357 0.12741050293689024
Ni 7.67220800548504 7.400640001389103 5.206936469498707 -0.2816890339092181 -1.3909714382413592 0.3149426537560253
Ni 9.188213699507072 7.8009875542996845 0.34078875687946386 -0.522730469500403 -1.5191702414074997 -1.8284688095038704
Ni 7.76222802836805 3.608173044171922 12.620289669859336 -2.6156318398258893 -2.1081701235590984 -1.0172371682684223
Ni 4.519729330071323 6.638118002159113 11.96589595041615 0.14656779259163147 0.6349442100921968 -0.3544988187820927
Ni 7.048937329006556 6.554120412820237 13.416599662167915 -1.371727759520399 -0.12477357953467545 1.343263847752751
Ni 3.1102750993872914 3.439973084137182 11.213112235535265 -0.3923577986113952 -1.7904859025021937 0.2925640289505091
Ni 5.8399081973523 1.209997188978197 0.3460832857819409 -0.2723155631141181 1.1715421816033114 0.8290596705558045
Ni 1.7926373825816595 0.9649111376381461 4.927313111478362 0.13719097936242178 -0.3714434170562313 1.204126800407552
Ni 4.522577652582149 2.906461799723723 4.7437489647234585 -2.373537023269525 -0.6862114929076052 -0.5964609664153341
Ni 5.8173915563271725 7.412936191051854 3.818695725749882 -1.101656255245451 1.9723086616413774 -0.7791936389632967
Ni 7.310163874574623 2.003040918642826 2.3896262335394964 -0.29340580812551403 -2.070613248351247 -0.1635774397757505
Ni 5.256346487642394 3.7702667964710357 7.219339619453262 -1.5270285611096541 -0.049130438978063774 -1.6921998277350858
P 5.282726049719785 7.783813845043232 9.758348267969048 -0.9197995575445386 -0.10695891995075774 -0.07157334136261223
P 1.4733553223076339 8.297805742838381 7.127762327432798 -1.835535743652981 -0.10990283307043008 0.6702670537632069
P 8.69411351807021 1.9770802275229096 4.959124033637672 0.29670633325365675 -0.3201763913511389 -1.5247047980724837
P 6.9570649656671595 4.6440036890322425 10.694068753992974 0.6771699515306273 -0.6569808781772621 -0.8823429553599772
P 4.807251663525285 4.265707364971817 0.34873055023317945 0.006870244757272039 0.8749304649459899 0.2272343545047635
P 1.6224454584380403 1.7978406906978424 0.447042356425483 0.042479252210133295 -1.087493590591824 -0.0948096861827335
P 1.6178471861493207 8.52898527839028 3.398110189822835 1.446779803460231 0.2456902472171059 0.7488173406642845
P 2.447360613844725 3.692300948919791 3.8070483206590424 1.5526691444958938 -0.17244825990281915 3.435571036137664
Ni 8.504793153535257 0.3656883082404451 6.4542680923287765 0.8336845709223255 -0.487723871518231 0.36264561625894315
Ni 7.110381044346308 8.7090439406433 1.235233698753858 -0.6152120217705921 -0.0802011922409393 0.7856813035701695
Ni 5.154989024177076 4.194908864915135 11.903540958037802 0.7405818401283697 1.3749920320939675 0.07159056775379283
Ni 8.37423573021222 7.368396245907071 7.589682980267773 0.8523109277742611 -0.2537470560833114 -1.1705700474980294
Ni 7.626513838146327 4.16367039973104 2.9088195778021286 -2.4046738538836454 -0.6698723894279495 -3.6777401575753883
Ni 5.3883187639773436 3.025430459889966 9.30877127683867 0.17124112696859542 0.43887805366012156 0.03496237500779785
Ni 2.88551825185 8.378610604656954 10.640773475012624 0.22237471241961704 -0.061038246159243276 -0.8722598600923622
Ni 3.8499360525826765 9.179156778582124 1.1744685543652142 1.059663198643117 1.5697458974725222 -0.010615313622001073
Ni 1.7091331301482529 1.0052344484776865 7.655307027763121 -2.3975303008603293 -0.19928903424474712 0.5567343372496734
Ni 0.1516945826615475 3.7585477179052504 10.801053981478049 -0.2839634317656916 1.4960477964574235 -0.6617682722635765
Ni 0.434352428062707 3.2585926513072447 8.520103352443124 0.2288783178660897 0.22820880260289086 0.6609923133295003
Ni 3.7594506175246956 5.601393765922848 9.982851000458805 0.16583795367515308 0.5294634173488623 -0.7574325931371214
Ni 2.097985002337035 5.249719018270797 7.468596694705409 0.8685908958812074 -0.1307601361354135 2.2655321785527565
Ni 7.965464216934653 0.09116121353603969 4.152132831913494 -1.0955246884264167 1.565566312173536 -0.3801861962458678
Ni 2.4819221219581173 5.186841833432133 12.312846764492239 -0.6843986080685827 1.6244155211012603 1.661874437278667
Ni 0.8638143049908122 0.0967517445817987 11.965976932134595 0.315911702537514 -0.3644106785791659 0.5625267755617344
Ni 6.34208793414667 0.7112717413464665 7.620321994570505 0.2853960504471601 -0.25650045045873243 2.3749195054393484
Ni 5.107675222469462 5.839452093420827 1.8744372956303201 1.6790437499691018 -0.08960191672954891 0.12275192111895632
Ni 0.6419504595331447 6.9222055937617855 11.033472444239722 1.1894491437907193 -0.36511670350725506 0.3967955226677747
Ni 0.6454605981567806 1.2078376764863288 2.950412533054992 -2.376972274203319 -0.09457134491968229 -0.42100682980665555
Ni 8.641866347307896 8.465158652714674 9.635450598221695 0.27675791515618786 0.6911611236033967 0.5095471380409096
Ni 2.7785386093110254 7.295233452001533 6.006121778224261 2.723447194239671 -1.6722056440013457 -2.0164753288562625
Ni 5.970810025684815 5.581148336311583 8.763257012432693 0.18356442442063872 -0.26423587142977717 0.9000262315723533
Ni 6.046895608049175 7.258270417065288 7.1042068864331345 -0.2771384384240582 0.6916236650621121 0.08284042963599927
P 4.770391019267534 1.258595528288733 2.74156347365823 1.0125243361737852 0.9628138563225355 -1.3513088295444147
P 4.381362290452262 5.856867817008265 7.11115549020546 -0.49712279623462774 -1.88649346564777 -0.4773199025760877
P 8.414056395902792 3.1802172410420253 0.9356367118324316 0.3638085262187928 0.27474859803564294 1.3971927365607228
P 1.6798400878555395 5.1581445187233825 10.268413948656137 -0.12126093839572663 -0.49507696944919255 -1.1628551953522748
P 3.3722276879483135 2.044341595049807 7.38561556555667 3.4326523198289722 1.6584972932763178 -0.6879295040399765
P 8.652245038809763 1.1319010260179607 8.444328665411645 -0.28379013941262093 0.7086672508079601 1.6878348658981708
P 3.2990276610687785 5.84629365239291 3.639096890725736 0.4514965137550805 1.069446760392442 0.5359613663683801
P 7.041658282589999 1.4001459871845992 12.13589053979758 1.5375999088675971 0.5200565222126656 0.21393840872680572
