# total energy = -340874.1453616268 ev
CRYSTAL
PRIMVEC
9.20724064517648 0.00000000000000 0.00000000000000
0.00000000000000 9.20724064517648 0.00000000000000
0.00000000000000 0.00000000000000 13.47572736636120
PRIMCOORD
 96 1
Ni 1.7848327789463758 6.793755757947813 10.846208496013588 0.4963548077203516 -1.4587770850314232 1.0663488381934088
Ni 4.6466548941299415 5.6464967621838795 11.668187654182859 -0.3584346635013891 -0.6864724598784758 -0.6694988081386147
Ni 3.6033916798590075 0.6009667156624768 7.214325010414864 -0.5252326670969664 -0.25830022267163255 -0.579619212267647
Ni 2.886580384898898 8.664289531505684 1.2535271242133263 0.21492494100979115 -0.667571766319231 -0.02686391427037954
Ni 5.137124595779525 5.43601003702129 7.674749644851703 0.25134307462750904 0.9614151762027958 -1.5099770049440058
Ni 0.7559788960642457 5.745290452792102 6.203483252130764 0.1952511167299476 1.4130739265673535 0.3710508096035029
Ni 5.498407505917089 7.96929939654012 7.174490805098237 -0.872213323125143 -2.1020064179505473 1.0179701897797049
Ni 2.134477737086848 7.561124010515541 5.020139239383444 -0.9058585219834141 -1.2119720074835836 0.7632839097115759
Ni 4.962481657899118 8.131521766980594 11.234471383000104 -1.4701917546262682 0.4328254197081384 -1.549222837818506
Ni 6.374375160229831 7.046420851859355 12.647792007608942 0.6168942945690215 -0.18300315260053002 2.2604555353607974
Ni 0.30950507243911046 1.0749545360857995 7.92783735110238 -0.04696685566784169 0.15727206638301303 -0.1515019966684552
Ni 1.5259712121756224 7.335031012698624 2.7398178919887384 -0.2296095396051594 -1.0427905912574944 -0.671286753276973
Ni 7.329267280143102 2.3188619354205176 8.823461543167172 0.8029966549201655 -0.17917220889021399 -1.9424908069489968
Ni 6.777044616433002 5.830208831960754 1.1696731020469395 -2.2266406436938815 0.5665896327771984 0.2260274786808559
Ni 5.395221961588446 -0.04125856542260089 5.179611407085363 -1.6160473516422234 1.465612619896018 0.30751293695085746
Ni 3.3572729339458287 7.060802561526647 12.946400310911534 -1.8018913161256582 1.7648733441404123 -0.6151374597789149
Ni 5.806325250093305 2.341852414959076 4.01630603257101 -0.805317075523226 -1.4694489629229726 -0.6428732351312865
Ni 6.977090330864022 2.2779633731016236 6.308405282018469 -0.00010875766372239335 -0.9975011232920756 1.0749291236632519
Ni 4.901612590926987 8.992205402056648 0.0516360461946911 -0.38575314881068407 1.0038406923568581 -0.4394241559715787
Ni 8.07238366122322 3.9841386964220864 0.629892182429932 -0.30865784918857814 -0.6157000171506042 -0.20755204558448773
Ni 3.810729528769219 5.166173439569735 0.5922207579077003 0.5846115232759158 -0.6973731659513795 0.5701506106555794
Ni 1.186297695501013 5.415984288925028 0.7196185825897878 0.18031326447319268 1.0067375542886792 -1.6163563982422096
Ni 5.025790643604816 1.9703494678620408 12.414796341586154 0.22372042781423407 -0.2548310331761095 0.017531324015543998
Ni 6.74735126580751 2.709782952740548 10.89137921792635 -0.5741530469467531 0.98228970565896 1.1569925659239106
P 4.579101370551887 6.580074120330326 9.636398270437436 0.8635011400631257 0.9967382769841222 -0.6542043438733893
P 2.50832853051241 4.863549858683335 12.32694821848912 -0.9612128303840025 1.447818014916758 -0.44563285588545193
P 0.08401606959925757 2.094370997451301 0.5354811383016265 1.411905360180549 -0.06217133132242196 -0.4606586398703227
P 7.194813947062777 4.166340778756301 7.6092852441440115 -1.7217369179622541 0.19416688252683334 0.035884629711751104
P 3.8695545883494553 1.9202989084821434 0.7376721397700864 1.2196248960431513 -0.6908682749533263 0.5233508766932212
P 1.9005033413984824 8.524965568198727 12.021049622155438 1.0608381927878245 0.8411423127519513 1.735342681671147
P 2.4155287534723096 5.311178270267676 2.467028532507541 1.5724419562474468 -0.16630666578145553 1.0273331190518433
P 6.790744990302995 8.939420292247055 11.865687566614517 -0.25969427480568175 2.1072494115170417 0.7135646881095775
Ni 9.092297313575939 3.596762466696107 12.026277493313625 -0.018606045136961503 -2.686492985612825 0.09661794303606587
Ni 0.30370635236967347 9.020711018657119 0.7278728737016491 1.1944478825568912 0.6421803228293198 0.15815935408397278
Ni 4.013712352921025 3.6503762281510634 2.3019509967867684 1.1120008317045686 -0.6855679457863354 -1.5161443100969825
Ni 2.199397989880751 2.7620156281199 8.85072326157555 0.07564751143198585 -0.9838102560685443 0.4365080107660482
Ni 8.495594470990877 5.1749019035675525 2.575467728267784 0.2325061444266641 2.4657367826332375 2.2309701243071705
Ni 5.907015632245358 1.8771077432777468 1.3706837352827832 -0.5360840079891734 0.6378780959095401 -0.12851659151687544
Ni 0.5486198705008748 1.9363747504021764 3.757867998863442 0.9612156585974801 -1.5033481867735785 0.5619678177344708
Ni 0.9512276381926683 3.772556309639518 2.267654946633314 0.6822885037041153 -2.7958564012400173 -0.6267449621108561
Ni 1.4654243986211326 8.987279528386994 9.9445342262136 -2.206599151661974 0.6295731755882706 -1.3113040070167028
Ni 3.564767305944609 8.586589628892188 9.265398038671922 0.7627118392581896 -1.622756645341599 -0.8158138612894917
Ni 7.4949423657725855 5.5969526010317034 5.794993899204997 -0.37399600827475593 -0.18776483565523147 -0.04626957249050096
Ni 5.6805175158462635 4.301567520038963 9.536394748426986 0.06591922840062842 -0.5937530805658678 0.3902492369088247
Ni 1.3630122624948267 4.3629061562768 10.428299215328149 0.5836026223954272 0.19420004975761393 0.5472551941146446
Ni 3.100860493149147 5.102238361509762 5.475835035097414 0.42537539118799644 -0.31232912739257823 -0.4156854175937421
Ni 6.9564200759324795 5.694650630019947 10.944419368297906 -0.836644681991914 -0.1756333424990201 -0.24650605825018193
Ni 7.687806432610465 0.32410039008609604 4.61817229563073 1.0816605288498147 0.9160984545438674 0.034597535469211384
Ni 0.8338979310017358 1.2664098951265625 11.974881756096089 -0.41913480959492333 0.012046389641572801 0.18468593961959162
Ni 3.9294568950686632 7.374078919676207 3.654630893987975 1.1341058911337243 0.0320112627992739 -1.3155452987915603
Ni 6.52061376115531 7.345950799936402 4.140605620823492 0.12319337953174914 -1.1122885381483165 -0.12906783603465513
Ni 7.07242209904273 9.02647475121264 0.7383985910458541 1.0948837124083082 -0.44646100821370205 0.5155316377591186
Ni 4.273448607539661 0.8640092903461096 2.7948661415142224 -2.1883078095519535 -0.10577672671719847 0.4558658464673697
Ni 0.7535546296395351 4.206880258695537 4.522359909497712 1.1066735059543844 0.5006814601201635 0.538046273921867
Ni 2.8691418713842682 2.837091467189746 3.8574130002967935 -0.9375136869948498 -1.104691442527349 3.0325233619125904
Ni 2.4320649574175444 2.729099743317999 12.998188276574542 -1.657235652955075 0.7324077889580095 0.42269475903203974
P 6.76028743871567 3.883558801156082 2.6812248548692033 -0.2582205184736327 -0.5986664587070851 -1.6488217178597668
P 4.809991340671403 2.033511137719674 9.963292137292456 0.9765399476593762 0.3819090924742455 -0.5418471357251958
P 8.74377563877696 6.7613094424116165 4.501849860550939 0.6815269429477424 -0.21930815767915132 -1.4197744785159807
P 4.796281759560904 7.167523686208838 1.167566485419618 -0.21262020413601446 -0.8041801337053053 0.34517317050579266
P 8.649134413636052 6.852249356869904 0.6466539637675153 0.04668969074705507 0.27128017987106834 -0.38267605254725706
P 1.4875770192738245 8.401128183419548 7.492342241054249 1.0668278347123563 0.32359184479059105 0.5644378765415182
P 2.2994346579570175 0.0005855804960561953 3.546744132657974 -0.18320369864711028 0.9237048061362155 -0.6480516940084323
P 4.831683599298892 6.599317252983744 5.552767974576922 0.5269421935889054 -0.9280468851549952 -0.5363465176219409
Ni 8.355009115734871 4.366892891415044 9.80028991358129 0.05373091386455263 -0.641376853091418 -0.9167841677569823
Ni 8.060626015099576 6.124407787785969 8.093521643972368 -0.4923418299062166 -0.8243093003550126 -0.8849760221074501
Ni 8.523418751794052 7.907758201011196 2.5434495494150258 -1.5714286844915841 -0.020370593236552013 1.3311981748374686
Ni 1.9779362340373599 2.675513603584555 6.388909710089489 1.6816295084184072 0.07728581836635721 -0.7285405926931194
Ni 2.111137382409136 1.562634443862663 1.7679881324442563 -2.1454524049493244 0.448340484624602 0.7472854774007903
Ni 3.1804294655849583 7.002815360832277 7.062116434746573 -0.15618140442199555 0.18938463064684158 1.1227837812526857
Ni 5.295829800347461 5.161321223824111 3.3729473401798864 -0.4023863864919908 1.660818999430959 0.6017772364219249
Ni 8.151013495127621 0.6233881877378864 10.46880739064967 -0.36221084271436976 0.9591559478549739 -0.6484885244355347
Ni 5.677589613365982 4.094505888343873 5.509254555954884 -1.1735201312652888 0.594285298920254 1.2132891836331103
Ni 3.1781552771804633 1.0535108729519178 10.887592279907043 -0.2984346287986731 -0.13267740776278442 0.8612030880575684
Ni 1.3645590788995035 0.4147392277799011 5.534373749497975 0.013708607835344132 1.8862237569261517 0.49889968562939235
Ni 4.448312519192166 2.847633757566858 7.955921276087768 0.3201080000070487 0.05890371631474372 -1.124255994922838
Ni 7.898265536051543 3.323160107878404 4.374247635129662 -0.15991490332249877 0.5466216742957037 0.18777846250198627
Ni 8.982132680945242 8.079427200208801 6.189576636073481 -1.3633613898335746 -0.6439816377041166 0.9620589804343819
Ni 0.25727055561165757 3.8664057120970776 7.584273775314819 -1.4563692469208789 -1.011551944958187 0.4146258659809762
Ni 7.89403020541969 8.360579496239808 8.604737099925629 0.45039376760920496 0.4892711614006929 0.6512072089182784
Ni 7.978994620790862 1.9699351420393596 2.2915606258779726 0.4224155372287241 -0.5758731149616533 -0.09647190437650482
Ni 3.2808804594839067 4.9883724181964455 9.263389939517992 0.17783780634950663 -0.12244184607770527 0.06785346930886378
Ni 7.362321273552563 1.9485927585510219 12.895866371405175 0.9645223543732099 -1.4952386702925666 0.6232647168717396
Ni 5.6670473229888705 0.4911924700291499 8.751554836278812 0.4415831112961104 0.33529242105697094 0.23592288341769693
Ni 8.879904689629015 8.30906498561977 12.02800293018408 -0.050980861923241236 -1.9810558117063883 -0.24660633127347206
Ni 3.6829330305733072 3.4018451852258296 11.202223943858796 -0.15332259481696175 1.0042528401936124 -1.3184966681104002
Ni 1.1859846493238762 6.4957634190349385 8.67893456825139 -0.04536634394994122 -0.12849627980190126 -1.073215740516571
Ni 9.000096007168601 5.779430900581039 12.188970353743853 0.2086758747762858 1.547289111130903 -0.110828430208493
P 7.080174595547122 0.025717664175851647 6.912104706662541 0.5436924164640508 1.9892000380800772 -1.4846228424499335
P 2.262301857004272 4.594413011510086 7.464192023937233 0.6404499704017744 0.7154014842080002 -0.6931447296923288
P 6.107438843537044 0.017934783777796583 3.0965607118337655 2.37346297549848 0.03554087321908718 -1.103847606469815
P 9.123767661618707 2.263572456193828 5.906572763977114 0.6762057878451451 -0.6050595067176224 -0.5538945538080332
P 8.572815597098163 6.778766370407254 10.06430661431025 1.6323854266806144 0.5061599667362315 0.8660149076239151
P 0.32801991236866085 2.2599816323972566 9.929023708860512 -0.15894045522437145 0.49040347523292316 0.3705479018251554
P 4.204431132721466 1.9477088634626354 5.571485373797561 -0.16242224312538478 1.1178320936743653 0.26626241494150277
P 6.201555255969221 4.468945945161693 12.639234798284498 0.8202377013888003 -0.863175638402907 0.49060196439697445
