# total energy = -340871.78604471206 ev
CRYSTAL
PRIMVEC
9.24488898702317 0.00000000000000 0.00000000000000

0.00000000000000 9.24488898702317 0.00000000000000

0.00000000000000 0.00000000000000 13.53082952021050

PRIMCOORD
 96 1
Ni 5.822856241527677 7.915409090479745 3.872496253995803 1.8861453382797324 0.9518596713038767 1.443452795969527
Ni 1.4630776143242745 4.671303645653559 10.89537511897371 0.37824758446225826 1.3634349233839873 1.5843068260058326
Ni 5.461344109246613 8.136426647416206 0.24630602580516026 -0.08685752121519234 -0.739282661700972 1.6396259102931117
Ni 6.0627703512050966 2.8722945064035237 2.4926633165309697 0.43186125602265624 0.6373417637900959 -0.7478922577468539
Ni 1.3661172204166492 7.285379162522959 2.91820739773299 0.18042279346786347 -0.8905555730777566 -0.4814562933419643
Ni 2.2157872168762345 2.4388756289075952 9.981111084353124 0.15020898888864453 0.017340548160976587 -0.4004955972271812
Ni 2.7137169285338154 3.5924805900989787 1.0369557275712225 -1.8448274533675517 -0.536560947625592 -1.745505738247078
Ni 1.6885881872255626 1.7345167948660167 5.992425067711341 -0.013893727262956719 0.5225309518950872 -0.06917938720913892
Ni 5.416866949150352 5.674050511137026 3.2324605828729016 1.4677636048007496 0.8565542764316475 0.10185296618276007
Ni 8.562357164970756 0.6579541146270738 6.3956039138884435 0.24122758346006196 -0.3343511401896242 -0.9673608522632694
Ni 8.29570683683597 8.63933935414589 11.49795789652314 -1.692898396464007 -0.587677306685433 -0.36408491980863106
Ni 8.369998763365496 5.519975194120961 9.933983414633166 -1.3528887724370249 2.5531704880668737 -0.7549003136335708
Ni 1.482168309730381 7.348641936694382 9.997591023157447 -0.8205140949786385 -1.8124642065454977 0.9476140086536454
Ni 3.272875538823185 3.6180889321207292 11.884641087584933 0.44349009851083626 -0.3495162779658368 0.7351043619535662
Ni 7.656089959176456 0.3133074330139822 8.692218269198602 -1.3031366407145621 0.89810844572435 0.38075261027229906
Ni 8.040178109947453 9.448923512697059 2.998052728974598 0.3080346137822824 1.2589126378991804 1.1225238427230795
Ni 4.38467511278628 1.9310446413275253 8.536112774598429 -0.1859198120266927 -1.480866974951927 -1.128572620020321
Ni 4.052543237164108 3.9997549220217983 2.7368402444416864 -0.5766935539804197 -0.8963246143510498 2.0514801270662217
Ni 1.0285955746144466 9.144443099525088 4.658677900996842 -0.12879375643766205 -0.5420955042905761 -0.1410430061186603
Ni 7.74161442561805 4.621242572712123 7.85821835928301 -0.34268742796946144 -0.06338000691854247 -0.2813807586401799
Ni 8.422648405175558 3.897071941936749 11.532975686382342 0.14566584960265236 -0.3716835580914954 1.403711768626163
Ni 6.538863635478066 5.602310173920858 13.383194113764826 0.4501772807230247 -0.9060950634742524 1.1877298471067674
Ni 8.128318879924121 7.366540041443158 7.326334944469009 -0.6557084392227418 -0.0981631760359987 -0.20624438251665772
Ni 9.29000387394114 2.0934680929449043 8.015622760761904 0.31692008919737036 -0.20681696719067608 0.5187131208108937
P 8.71704264464871 7.830744398698086 9.386985531093044 -0.6668274319540387 -2.0616568104889073 0.3334653951505612
P 4.808433081468949 3.152599535320305 4.6720192000479575 1.1795550246054587 -0.1196316303224198 -0.1638180950316469
P 0.8551355747279101 9.264857776360214 2.4436275017592846 1.0680876752613864 1.1567297991808274 -0.971275099716011
P 4.371787737776057 7.745441809588089 2.2534518184036045 0.4224978125298853 -0.34659833298809334 0.13835697464606492
P 7.401920230943967 5.011136513659891 2.2463609886813365 -0.9922696996898072 0.0972414355526777 0.08703132778889527
P 2.1590605790980892 5.098574672086505 2.7574480261025838 0.2568935721320931 0.24391901424929602 0.19005748834415007
P 7.951011157312151 8.364211462966356 5.084967120237473 -0.20746359963573946 -1.101578093709348 -0.8148013608645774
P 3.5832819257265447 1.7840786438113618 2.1442983406358755 0.4213328456875066 -0.5506451936328001 -0.0949061025512817
Ni 4.591945520052581 1.6934509987430502 11.068922020815123 -0.5069701213423526 0.6638765768558309 -0.19883009233045754
Ni 5.758077305590345 0.5800502100369339 2.2432898366164897 -0.42086901867721066 -1.9284397281725694 1.7600895495985234
Ni 7.509197920770825 3.322502101990246 0.5085733521520363 0.10091811307331651 1.099324778898797 -0.6167094322517249
Ni 0.4814830544529979 3.945949669109672 9.115665609617034 0.36744020943410916 0.44170858113038125 -1.5452065175702614
Ni 5.918771962999036 3.86723868572585 11.80146759636938 0.2677418277005066 -0.08269876185181242 -1.4823502443656726
Ni 7.153352905334287 4.165543513168389 4.317444432334809 -0.592715897550605 1.526493000321158 -1.0595845228863816
Ni 7.349030222024676 7.587511373935537 2.0084354545883483 -1.0153286383917997 -1.1424352369350261 -2.4985260612491165
Ni 1.2399892022929138 8.159261522793003 12.276738085537678 2.1129639454033162 0.8507651805536961 -1.1743773370592614
Ni -0.051483861330298954 1.3051101991164562 12.663868729218189 -0.06737395856928396 0.35434043882735744 -0.7366861046183893
Ni 6.723613493587332 1.860062384994311 4.584826955663864 -0.3938665219464378 -0.7320907719382231 -0.07778358393838217
Ni 1.9948066394950397 0.7271807665740313 0.353594809498598 0.47035915498753833 0.16075719671813604 1.2415324947495199
Ni 1.7078083110751003 2.255956258783999 3.4000399089832523 -0.6542884189467635 -0.9072605445372633 -0.824012080829568
Ni 2.79698564210418 3.7170832015679887 4.967898168665044 -1.7982010117582645 0.3665992015900525 -1.5270542721412668
Ni 3.6382058101854695 7.723540667981761 4.409860038900235 -1.7791074854619233 0.16682577150971917 0.33575933339106045
Ni 6.33375653219483 2.650999602802567 9.614898850597744 1.4683652429404903 0.6151323175725921 -0.4928614498551125
Ni -0.19634294868517826 6.272305756231444 12.02138408704779 -0.39654458299923323 -0.11593129865269712 0.7921219169891907
Ni 1.9417409776882348 5.834467821881222 13.191949721261956 -0.9270014746096165 -1.9792249291452362 -0.5247181893543931
Ni 0.3758860854129827 2.2578791956578343 1.273109940966966 -0.6308906088481134 0.47007967607390655 0.9344736146169454
Ni 6.716661337197312 1.33198509090607 12.099091999995021 0.5857345811367655 -0.10899909030923809 0.15511131128626837
Ni 4.11150713803585 4.059957637994954 9.282433234489295 -0.24916689291179667 -0.39904343816168697 2.145472202443666
Ni 1.7603285244417308 6.121161068970215 4.892436763700227 0.1709246241694411 -0.885772035646184 0.5617806414243293
Ni 0.8795661179144367 8.851084287599384 7.929850531300025 0.9072350906159665 0.25249981393977156 -1.363820074637548
Ni 6.606046242507691 6.124498473832978 5.823263016635602 -0.1562654794953696 -0.31673548399039 -0.45610984415737577
Ni 4.324241274592712 5.540702234847592 0.9875584376468114 -0.7565368207957294 1.8243069648166967 -0.38202479211650336
P 5.591373470450918 -0.21474397538557277 10.810199184840497 -0.5045735960857182 0.33185537035096396 -0.7058115265267199
P 8.591034810079591 2.5089056616927077 3.410715906588565 -0.5617875834028647 -1.0697149264521641 0.2506020826964264
P 2.2969480957964334 1.5261185111641007 8.023389391856659 0.35491765148706617 -0.7589749979235767 0.37789534332916214
P 5.945850242342612 5.103511442714524 9.693824315402109 2.261234579618667 -0.2755932054241254 1.941523557939721
P 6.875645690174947 1.9627823446346264 7.300125684674185 0.13485770324355484 0.3214130919717174 0.5522796439124296
P 0.9729783234942833 3.896554228163024 6.511617099158028 1.4778071050796808 1.0802104266668495 0.869262210916619
P 2.310020368582988 1.2798254282032837 11.776043227635075 -0.6612926181787385 0.4297750629175888 0.5959256627371543
P 2.490998312055116 5.4381486832059736 9.118169125508548 -0.6952358078934027 0.0435251769761444 -0.4947429831485414
Ni 1.034632487011632 6.17324677256247 7.580606366478481 0.13439876132926531 -1.0540072859089202 0.2708160957504562
Ni 5.704993154005907 7.02611550055257 11.705655417652762 1.0518946104412916 0.15333339345023914 0.613714097068827
Ni 4.096160622600433 5.504813576461874 5.723851802702719 0.7020672289929394 1.0928543406831048 -0.9538939281250861
Ni 5.000819217740658 8.739091704476103 8.50547891101602 0.06787943745079278 0.9545778415659883 -0.044163067670459424
Ni 0.34933014228753895 4.328114883006832 3.660847467386 0.5444634903021204 0.9491648980805332 -0.02339343922327584
Ni 8.978580549267964 5.75533157361184 0.9717450553261598 0.055427327730369055 -0.5824273711404034 0.33422207081092764
Ni 2.612522375548225 7.582472909530535 0.8723772923707135 1.4267329121116847 1.3870368790736436 0.3513445894238271
Ni 5.171368926627755 5.583478335401613 7.861749906810919 -0.11003601621418468 1.7838131184677084 -1.3226541419221995
Ni 5.919613247881339 3.7840069517107517 6.497680429267129 -0.35027603894999676 -0.9820135691794377 -0.43257370870864853
Ni 6.254758957257696 0.20280605045680497 6.125392454581535 -1.0267456219794897 -0.9675174324457919 0.5548905991727153
Ni 3.0016212560577733 7.533789325022759 8.316859142448159 0.581222809309341 -0.18603165501420865 -2.0353040315269912
Ni 3.6384369324058823 1.1297161684895045 4.399508536892382 0.5638079562670032 0.42919553626503504 -0.6430210735630603
Ni 2.980062175337657 9.210738197228327 10.179067266136785 0.9384847926588676 -0.1389472999318962 -0.9320655193960851
Ni 4.113864584684062 6.493711598498199 10.193395919313502 -0.9133350328661173 -0.14740622933252678 -0.06519931951546837
Ni 3.8256274411627094 9.173240928188536 12.520387130296971 -0.2886402684160706 -1.6037767618049863 -0.6957759966675888
Ni 0.18370795913964513 8.068864999945104 0.6906126088603001 -0.6161759283457582 0.5588336429808634 0.7510799114462161
Ni 6.3923136579586455 7.338620477217279 9.522821606963003 2.394247002123367 -0.7920100740016747 -0.5363424038568827
Ni 3.8449122792339625 0.10951125496492832 6.518219798750784 -1.5191098204832096 -0.18933192303203522 0.43482008154066404
Ni 5.062528850590906 1.3602929404622435 0.3707450027421178 -0.9183186021236377 2.6283222908093635 -1.4395845712633724
Ni 0.5677665262664284 0.3264009690448146 10.058994650187868 0.2955637350087813 2.9196203085632555 1.3515494848003111
Ni 8.467421401713947 3.0595035049379837 5.826496878743621 -0.39369502936558004 -0.9353282493077568 0.38893077520771724
Ni 3.4574404991561214 3.7474156817749793 7.093415517670166 -0.7548234376490485 -0.4963573788235129 1.153408191006762
Ni 8.316285959341535 6.490143071415024 3.7598389633666143 -0.08701461561834692 0.1571406830114713 0.3739157898561238
Ni 8.833389570404572 5.502261987148516 5.744824757471869 0.4207530619246367 -0.35471761966111814 1.0754076059615674
P 7.474806934373383 1.1938479622096798 0.8729671162772072 -0.31182544828328235 -0.03835468851879846 -0.347801095046943
P 7.4669487788793445 7.507737228337816 13.085028884143416 0.8490083457635895 -0.3057285913569251 1.4328737349021001
P 5.082359137102334 7.540612052969348 6.185754182642334 -1.0238613584531593 0.19903706613494107 0.517303899168193
P 0.5664694683654712 3.9709386035807164 13.338136374650887 0.04900908290885108 0.32304008605217915 -0.19218661887201094
P 3.7500412301988697 6.655145847012211 12.486614626961353 -0.10313517532929334 0.7863531328262134 0.286321647585223
P 4.824399004455073 3.7258566010548626 0.03649327411431739 0.23003788539182962 -0.8943962869800856 0.36514755674519045
P 1.8225373812880707 7.811792376624227 6.275423132740374 1.035467318123204 -0.04961817724775971 -0.5908559615237309
P 8.291158351538243 2.021718510839919 10.6029740775294 0.28689191826639626 -1.4621262040093141 -0.8864145543261895
