# total energy = -381160.7477871193 ev
CRYSTAL
PRIMVEC
9.34788411619744 0.00000000000000 0.00000000000000
0.00000000000000 9.34788411619744 0.00000000000000
0.00000000000000 0.00000000000000 13.68157330266753
PRIMCOORD
 96 1
Ni 0.6835406597901345 7.401149895397446 8.4680454151809 1.3048456529858687 0.4697415760081975 1.2386212346399958
Ni 2.5672187758736973 6.889035409350844 6.916363948704619 0.20556766816460728 0.9620013877235691 -0.3044738930142175
Ni 2.423878320101234 9.251423347420562 11.337536438596842 -0.1375589042248018 0.6400043982239236 1.968724543834545
Ni 5.562047164950443 3.568031298135807 5.016540167092805 0.7556886138628212 -0.7999763800366029 1.5868182795737766
Ni 0.5133026021238614 6.132389621455287 6.263041259263387 -1.2587331748985224 1.37712836171068 2.533009696848283
Ni 4.743284686784375 5.465277868083576 5.571095916821301 -1.599668653173884 0.3025003142276145 -0.07050607644036244
Ni 8.976689031837369 2.2157289834189964 0.23196400637872433 -1.1348324848871034 0.23514692448362082 -1.3500487318850685
Ni 8.111346046881541 9.122759069785753 8.548739155650747 -2.025947787123072 -3.008214867074213 1.0601802474888515
Ni 2.4949689791692906 6.078527112901685 10.373765842123435 0.7265045360996971 0.39341040824562573 -0.40777721849025905
Ni 8.330740888213203 6.693318758606872 4.4566355580456065 0.45604428102676303 2.675652186243579 -0.16368285500536328
Ni 3.6330271367288645 1.0039721071095795 9.92205457918006 1.7993811481092947 1.828049976798897 -1.1337464509117763
Ni 5.060916442796669 7.339799731628392 6.98977942656429 0.5785833148039647 -0.26837406196786684 0.2855428604376695
Ni 6.46489386117268 2.5678450841126925 7.209094810880557 0.11885927093276949 0.1843414117959793 -0.13544391476432802
Ni 6.387343814147224 6.473718263823599 1.4424205920009137 0.7331148423273633 -1.4004999465570849 -0.9517750820098705
Ni 0.24899585132573276 5.175521502648657 2.156913965835249 -0.9941730873601072 3.275837909808668 -0.8159521866395689
Ni 0.10802041024678966 5.27812387923393 10.20323893483649 0.1464721475540316 0.7532404094326447 -0.5537726835181882
Ni 5.93693471146791 6.645008893246751 3.642117019290045 0.20453948401040903 -0.25536299442017957 1.3185573461450064
Ni 5.8261248925865505 7.825263399923117 13.071771800125612 2.9326707139893107 -0.694662708998752 0.16428732135858157
Ni 3.457277566559432 9.135322626102315 6.625534446167661 0.19191305349565013 -0.039790135413744376 0.4949712971092637
Ni 1.9486505849662092 3.1700544777329873 13.672543489161466 -0.5388749404707494 0.29627567347414135 0.9485604317273147
Ni 6.408900035029661 2.3588076984348643 0.40421933744761235 0.5535135163195306 1.165149133592774 -0.1912265689515868
Ni 3.6473574431524454 2.5285746227392663 3.262685466280403 0.11614058645002578 -0.5018772802004776 0.6754023181072433
Ni 6.102018345806093 5.468287886784419 12.258306767915343 -0.5738661118339536 -0.6101158381946074 0.08653407643750258
Ni 2.849543573398148 0.11745709931045872 4.420872422810555 -0.029789829667922894 1.300883068793695 -1.2949204234523568
P 1.0378955787411348 2.8339699983807405 9.357389092728079 0.7973857364912912 1.2326925278603866 -0.5980936169227505
Ni 9.335862785074967 9.237747392888469 12.259620145640401 -0.38722767647368145 1.2578733980013885 0.30395812972006364
P 5.476280327744733 3.2912217522681817 12.01565065162971 0.5923667417413024 -0.4198297787794189 0.26898701296151734
Ni 5.913004128007788 3.215728239758829 2.957285416696847 0.10748136811313103 0.2765334578502076 -2.9524414688583347
P 0.32597754699401155 1.4030613257279283 5.426973977932718 -2.2385121983204868 -2.1144305026465133 2.7013542189953736
P 6.908703357632131 0.38759973419224114 13.347551209158352 -0.05991878784281938 -1.2382543382188804 1.7592696248003896
P 5.13847583770629 3.379073167642488 8.812533642396682 0.12536544748240344 0.45994978672875625 0.4367178127840092
Ni 3.657845769184576 1.9383959560381805 12.284233124644503 0.17831474598592517 0.1027191708377973 -0.006850190152614009
Ni 5.224195935491179 9.310810455515153 11.419270598574153 0.06483293731498513 0.9945142727496098 -0.054249762482500116
Ni 7.246806979963826 1.4146620499755889 2.7476161140495248 0.2616508843114203 -1.5571840016471117 -0.6885005460520981
Ni 7.449095193275166 4.844942927069071 3.7063659619383897 -0.6312346224510935 -0.9831032026991908 -1.5267619377118287
Ni 3.2496330156220563 4.591549831032541 12.307204615189388 1.0143025111201305 1.1816854406849004 2.483027708503201
Ni 7.175090012656774 0.6805914023363577 5.447961847457979 2.722701831433214 1.5241568959888139 1.289659946384366
Ni 1.3734098371593713 4.869518514536516 7.969160989591762 0.061109208606494755 0.4626412175179903 2.096994823668569
Ni 8.812699099946387 3.190975042492266 2.6761571483454025 -2.1222214594458415 0.23799416412442884 0.8493934970171501
Ni 0.5497976766889632 0.7729531718198467 9.731580221875323 0.6354725717918411 -0.9468375354989369 0.7705254217653376
Ni 2.104891120885144 4.0436609922898885 2.4085590075330905 0.20502645094915659 -0.2573309167798278 0.38768353306417747
Ni 4.941796354893414 1.3217627771526634 5.3044419123095645 -0.814982366527132 0.45602422642210494 0.26623387569641244
Ni 3.9956689549913484 3.6782428524306643 1.1145856204234934 0.4745266561016666 1.7333644748988533 -1.3250673793493826
Ni 0.8969883772165896 1.8468801700715436 1.9825151649275308 2.559152159571606 -1.893015325926688 -1.7563447378441106
Ni 9.082507080575095 -0.06545201534026548 1.0937828390046829 -0.4718223697966262 0.5838430205410073 0.47434796443195726
Ni 5.954686343495556 5.171726261678029 7.608966447403441 0.044338159795742994 -0.7392278972036366 1.0022072705184935
Ni 5.764241899420142 8.50811699022719 5.031918371331184 -0.3558005683126517 -1.2684326615744737 -0.43841474087045784
Ni 2.4202419931613957 0.014885570742928783 1.6854599715372753 0.2703260434879151 -0.0468221025598613 0.1293365163150095
Ni 3.66510907518009 5.107730646690532 7.807499615646059 0.35393291897629364 0.3582734553331765 1.038908482594269
Ni 2.516515852167564 6.858495871786696 2.6684133611038536 0.09451683753266303 1.5882200450173098 2.0473761322001773
Ni 5.099121245375386 8.211387103205846 2.06703966832783 -1.5408641814411654 1.7866202488992002 0.29257045670841225
Ni 7.604195287326081 1.45230597950446 11.811603166518685 1.2099817165264324 -0.2721196450532281 -0.945901653948229
Ni 3.9083877605510526 8.784907840326488 13.359536131445156 -2.2951464018747636 0.473191739340327 0.6135500606871369
Ni 4.408097604311882 6.418350745919577 0.4836436352479731 -2.05330792430358 -1.0144444360146336 -0.08352794262132711
Ni 8.0838258759024 3.039978669589397 5.175151326435759 0.5585425941030058 -1.3215740214841432 -0.11317507606379863
Ni 7.4038140423842185 5.108637391454451 5.873061553762963 0.03190893289345473 0.6589089484379104 1.8121196787218854
P 1.6752810604709762 1.0540767662292092 13.300308872169772 0.13246272064881703 -0.7793314500927416 0.07146329814730919
Ni 5.605178302483647 0.3161538555259484 7.800083939138672 0.25724375638266017 0.06393510809106408 0.12522275125695206
P 0.3563048875876337 7.463350716625435 2.6984985914976254 0.05804033987318392 0.27807560552634686 -0.2179408450179795
Ni 4.769598980706345 5.288733727760194 10.119603415220197 -0.9875517253888475 0.03596973322638967 -0.13790728870315602
P 2.4439949668223986 4.204911994120787 5.453967863033419 1.490860852939845 0.7958782987078293 -0.5160299175517759
P 7.422042416504233 7.61317860400779 6.283330841841588 -0.8183579678675841 0.8454679367104987 -0.8053263314946066
P 5.18032631510901 0.9313680255953535 3.110519673068604 -0.46523211817361815 -0.40758052909842063 0.04853908525096802
Ni 8.292330432182874 7.590622159519793 10.574214391831278 -1.6776658957849686 0.972094767403829 -1.7982290367827225
Ni 8.418872740112432 3.20626818098475 10.023134185434998 1.0005602218333736 -4.40499159914344 -3.2814341729495227
Ni 0.6798080496434054 2.672298341762458 11.673624657102755 1.2043702838769257 -0.7222550167947239 -0.1401163805393329
Ni 6.188776058733198 1.9500060281700053 10.175259782744892 -1.3831342015851276 0.5254884918615145 -1.1818332791166741
Ni 0.0578222722855189 8.651915492323695 6.483465302641518 -0.5313673192397945 0.7275933982885018 -0.1042597758520398
Ni 3.8740155904796203 7.371891017963782 4.638737015504552 -1.3567724237621472 -0.35133379079054977 -0.05050083696302915
Ni 0.4752268003466084 4.844447489208374 4.647123937176591 0.568656028387924 -2.322285938404033 -2.425742758738803
Ni 2.223179247097792 1.6396001866165681 7.9033528198648435 -0.38859447491422106 -0.04562731092081174 0.5144157789871204
Ni 4.582931081833231 7.882435059470814 9.359345604883629 -2.642164081788463 -1.1970356978887255 -0.33867650703785546
Ni 1.3563592964440347 7.986056355429974 13.700316987801454 1.037493604524613 -0.8860553712145578 -0.7564301200145359
Ni 1.1309818092473423 3.103114279233796 6.593355289721129 -1.2580415481481364 -0.3704023773862266 -0.915949587670829
Ni 8.95199192187579 0.17921296125223513 3.7394341021689286 1.6568507588118304 0.09194419170948036 0.4285273065534168
Ni 6.944365535718211 4.80866378862816 9.734220999151683 -0.258624953000903 1.248844969250533 1.1013472086454645
Ni 2.1867785861627476 5.910611069661777 0.8598810162387386 -0.49714850726624055 -1.9477559120026775 -2.877850423715321
Ni 4.326051225003488 1.5562824950618555 1.0309014918095476 -0.19831304348472298 -2.4281865922936055 0.6254786938039228
Ni 0.7225026409861449 5.52426301715911 12.509883570058786 0.8929176455520299 -0.20162925234214948 0.8478768032623075
Ni 8.418470781093376 7.078947024028903 0.5381960176528864 0.5608049077746212 -0.8893821215949457 -1.0798260467442373
Ni 7.572197479832331 8.126713968447337 2.526192781854251 -0.7695535447703714 0.21708261078274224 0.37226822695037176
Ni 4.341372407148464 5.123164003445477 2.8689572592301715 -0.3573501721879588 0.4428455229483018 0.4637845870938142
Ni 1.2615250115991385 7.763146709652607 4.742854684112826 0.8168029646756384 -0.4078168134789428 -1.0969552502253561
Ni 1.0525156695738027 7.619217337177805 11.036952418934634 0.14044162508923555 -1.4137400993964426 0.10797733391294306
Ni 7.928249039759118 6.476232844663746 7.935613302903604 0.2540270492175754 0.41972924864581257 1.2328565642420768
Ni 3.9705324944740563 2.937853035096495 7.079406939929776 0.022045152725497518 -0.5920723504293351 -1.3206898191069771
Ni 2.830642151618317 3.7854443880246778 10.41345602349583 -1.092674363461815 -2.459929689033157 -2.827975393261749
Ni 1.3151070836278171 2.3441502160655396 4.00558145135897 1.739977866450313 1.6586104218154143 1.11674991635378
P 4.112900770293452 6.606888221625511 11.939813136983119 0.13592471105548848 0.6860220026046184 -0.3835772242052878
Ni 8.834264668712988 1.4973160417546496 7.687211042222292 0.7410127570182012 3.3074699348916523 -2.033998939562323
P 2.554636523788805 9.076169215111827 8.665347467079105 -0.9293843730194962 -2.306705824577589 -0.09897924417939083
Ni 8.353783422677733 4.20282741595219 8.11363814807858 0.7088431142641921 -0.2942918102748932 -3.132997959690585
P 6.400683244849408 8.53900239950541 9.839623067044107 2.069673510145797 1.3638879517610059 -0.6562350011501731
P 7.384370443322869 4.616583464824028 1.5709315643354325 0.3899841561728961 -1.4637226019621568 -0.41985497559039947
P 8.11366432215424 6.174445752309619 12.048773009588402 0.027769971024416692 -0.981726119846006 0.9359805381797751
Ni 7.941373469125528 3.653452263627445 11.884690533644196 -2.2174252957432 3.615828764782573 5.0840518257182445
