# total energy = -381173.91664695163 ev
CRYSTAL
PRIMVEC
9.20958040480271 0.00000000000000 0.00000000000000

0.00000000000000 9.20958040480271 0.00000000000000

0.00000000000000 0.00000000000000 13.47915184108153

PRIMCOORD
 96 1
Ni 7.510044535441303 1.6458533453182875 5.262813870420963 1.8085347895841046 -0.1421246692186133 0.46689510769833786
Ni 6.627315451638893 3.959161829652067 11.500884559227426 1.22058597440484 -0.24293068219409775 1.4753295900734658
Ni 7.2960691415085 0.48900017621204395 10.743005153820903 -0.7095707364588361 0.31859953378232225 0.7025652516752803
Ni 8.222166140006166 6.133138570213385 8.392942154567333 2.718918196021066 -0.1508011139466887 1.635925578623389
Ni 6.8317036722445 6.000529820224643 6.857531940828668 -1.0380983279881475 1.1341508854390467 -1.8009081262767823
Ni 3.2338060578718535 7.808517830696885 8.680924816646154 0.5791834102818089 -1.4960115439028494 -0.8043994488049631
Ni 4.8358310094686034 5.56109468544356 1.708940813835051 -0.4302129217859558 -0.6319851274638729 -0.5252005283074503
Ni 7.7694323709460535 8.773000360825433 3.7557093024278645 -0.6165101717567253 -0.810987643545442 -0.161854800657689
Ni 3.056355860303754 4.380997456048645 5.937418406798512 0.6724018407180226 -0.7590711571818088 1.0132213622408097
Ni 3.1985425740391644 2.008452949773926 4.94535226203761 1.468490198554129 -0.1748149603627828 -0.055226010352840374
Ni 6.970556517829628 6.440766188511456 2.385647897446604 1.0154433095927933 0.028333556837370554 -0.33786095311509556
Ni 6.567443968641684 4.830176327025858 9.259435668861085 -0.9597511582368116 -0.29503537330913704 0.11350392015812712
Ni 6.406184213637665 4.182899378942051 2.928143764057954 0.30510689861252616 -0.9258226238101669 -0.0808694219525575
Ni 1.9323818146321101 2.808139245976608 3.228674479602965 -1.4313868659439284 1.5315709290646977 0.47240755287613484
Ni 3.3584853590280166 9.066988590365026 3.6220230315176223 -0.604752517000165 0.56508528031753 1.9007178367772686
Ni 2.2078864160567373 1.149954272334484 1.8599742506233952 1.2492134083335453 -2.0920652475774357 -2.0412761899500262
Ni 9.137386623903046 0.024308687797436192 9.474024420856896 0.03669247032502713 1.3553580599131239 -1.3633192237417293
Ni 3.413245524833493 0.2184171746203205 12.863465021947706 0.5696505310907093 0.301373656822339 0.46265612991632576
Ni 3.506032048629352 3.4658230200543922 1.524748282364127 -0.5117382321549574 -1.0636419807852069 -0.5054236027908392
Ni 7.3875110665476145 6.2678655237230245 11.572566408290719 0.8605400005522729 -2.2370065603092377 -1.721070488022849
Ni 5.462404820530764 1.3851485397983694 12.442065929668043 0.5224754160668034 0.6739948962367555 0.5137704320936377
Ni 7.757763832420064 7.235764808226586 0.041863990195417956 -0.3171951972356279 -0.6406664572879547 1.250286586793066
Ni 6.466801672657451 0.9308215133073209 8.418916855481857 1.5252683838854377 0.6810106654329562 0.25201387544228854
Ni 1.2676619210327342 5.989874335556473 11.411962375420128 0.8515473101353592 0.5398781849242831 0.9478796036102062
P 5.538650937702567 5.31740918473503 12.80740538433006 -0.370067362644311 0.7524683071533106 0.39340758003214826
Ni 3.555865088853609 6.538166712150662 10.744487896285532 -0.5173409230537156 0.7143961828719373 0.17611413879018056
P 9.036468040503046 5.479442544503204 2.2319455242219286 -0.6110843727554637 -1.0249887871893832 0.25897308036894107
Ni 2.3695606021844102 6.937402027937312 5.9469613741391845 -0.4771751494681073 0.4560406814823372 0.11261971778096087
P 1.4646732676373018 0.8938496522871249 5.747456073128273 -0.16396979011816276 -1.94488141866836 -0.6415385754802628
P 0.06764344800279944 1.8374126202516736 2.4866475251552322 0.2336554275397589 0.3625803102386465 -0.2714424164805454
P 1.9846369745346117 7.929568557125944 12.959921563583034 -1.638472770525275 -1.4652768338231539 0.4767516887774435
Ni 3.979699194224252 3.175039724537722 8.83255135042035 -0.6463110571682418 1.0140585134301245 0.006881300500865568
Ni 1.3092063387839126 1.9956516328432814 12.107108881160125 0.0732954662600415 -0.64581971935412 -0.9106821686243025
Ni 5.5107459087098665 0.522452135555339 4.871028184321507 -0.6976948109568565 -0.24385293689805104 -0.2431476833009103
Ni 7.9190788449072365 4.166810241763752 5.846716932033659 -0.5737920640629086 -1.3320353260267834 1.3377768564962509
Ni 0.16435877885089792 8.891361889741004 0.7986179848617075 1.480224713382238 -0.15753071936103838 0.5528974800020865
Ni 0.3131358684104595 5.780209025309672 6.503016506158439 0.16267832500024887 0.6769205545239826 -0.846632132221929
Ni 5.839555562216919 2.419872540596001 10.08054529128252 -0.8612606807683812 -0.2776567728213734 -0.11447811114593832
Ni 0.8782983546115232 7.125701111364621 3.0306123198604222 0.42562478819464117 -0.926006714796515 -0.09256125646818898
Ni 8.13186620295223 2.6217833840402105 9.54642093336898 0.4902196413568911 -0.4201969323108505 -0.13430954404956869
Ni 0.3198625460263895 3.7843732008558773 7.763991350771503 -0.1554478686900807 -0.28136147536647027 0.6742571487592065
Ni 1.0834979392614401 2.8208945150046247 0.7799870034583306 -0.5616446300670972 1.1492602302766595 0.46653695302797066
Ni 1.390895318046371 8.774971211057922 7.848087714383365 0.04828274626578782 0.6625573438237752 -1.5849740272761865
Ni 2.0336872004141893 8.657005694104953 10.892179176301118 0.944498088732483 0.9380667312848425 -0.503885568879758
Ni 0.23303462083062199 7.98967948921682 5.212779140383194 0.3114958328580054 0.1755166144154977 1.8752443750965122
Ni 5.104096880600076 7.71792318706613 0.8581045073929444 1.2077924221845973 0.38969233596409014 -1.5093640539503554
Ni 7.428898921429857 0.21975348475459142 13.142442556188554 -0.8533979901908529 -0.30145850322666146 -0.6641408862608111
Ni 2.042381044430397 4.066729730191584 10.029459748106774 0.5636961132794873 -0.03625589700824079 0.3627942260216655
Ni 7.549544426315788 4.790943513986617 0.5328792226264727 -0.26474803517950535 -0.05384635639649436 0.2790611093680678
Ni 9.079338637849915 7.96765017259948 11.272938231637223 -0.8923388902304245 -0.8871478329477882 2.4771578799859855
Ni 8.57095137367334 3.7331034660696196 3.694069579969732 1.1796563260700135 -0.8983521863040399 -1.4172607109551913
Ni 5.783524474298904 7.736480491825302 11.88152204810059 -1.5189352425785583 1.4596198926476927 0.9938923228948946
Ni 1.54636224689976 1.8469445360957149 9.521794515043409 -0.30391879184169596 -0.31962103306830114 -0.5211806085147799
Ni 7.9313367965868675 2.124806790134907 0.6482015899685815 0.41240083330519944 1.8219693178224559 -0.08349760360402395
Ni -0.118488621126825 4.2053799650051475 12.244488193861148 -0.3411054281943222 -1.0102519951998408 0.01379268290871818
Ni 4.260490094870598 4.318077601897448 10.960586098529495 0.7256221334947439 0.5758006098525051 0.5318044067772132
P 8.30206846064665 2.1968809673285934 11.961830511242255 -0.41021565272842253 -0.6324106450370657 -0.8021307073754443
Ni 4.616293028898312 0.7734675414042275 1.7396731840491235 0.6154508772542755 0.12166794402615821 -0.4018888780302821
P 3.190125017438726 6.648829031746796 4.0041165550718905 0.7955764511966943 0.5349956600210012 -1.264960900975789
Ni 5.166795704818656 4.241748598500914 7.260693300793398 1.415676140076891 -1.2146338705864628 -0.533963619212061
P 7.515957086138766 7.686923739016813 9.595080673034271 2.237665019828843 0.7553181178972798 0.6418311670200172
P 7.112282752538757 2.663733023334517 7.1826761812865145 -0.16308558774099655 -0.07103238125747767 0.7702621408016218
P 4.9637060350671645 2.4206093070380525 3.0513965011906947 0.051559874355162814 0.2587666207850898 0.22974375119017854
Ni 0.8784871510122988 0.07634005489316466 3.4300401158800566 0.4291885942864996 1.8666471203458046 0.6158226587713975
Ni 0.5457146150050621 5.926871595180545 0.15649563899810343 0.7638657503569748 1.1568290437628528 0.7541737198801916
Ni 7.923619168106378 8.440074024823419 7.45260990745118 0.020093171205449265 -0.5985646430218982 -0.8736685675144308
Ni 9.174740682515058 1.4435464899114752 7.1659893423321 -0.8695578877801668 -0.04116953225977426 1.1752939353362597
Ni 2.2067720568131346 5.300205688313129 1.8050879135647173 -0.5406921961851462 0.36630429605745296 0.5124959362565883
Ni 3.1126540260570126 7.670539895261694 1.915643402026753 -1.1997654381150629 -0.7241905432545399 -0.8167697974448578
Ni 1.793040861279123 5.037069553534441 4.239273984213673 -2.4765724397961604 0.6273329734038422 -0.3385286686060815
Ni 5.82547411359321 5.511574770957175 4.732395447710943 -0.7097162608977649 1.0878797702866492 -0.12502991851985565
Ni 2.117715413130161 5.360049542568761 7.9124240020194065 1.3081942577431278 -0.05234971724630984 0.7942189087275354
Ni 8.231117852277091 5.932406553076457 4.478475340164267 0.2370166307025079 1.671712249304695 -1.0759395672056373
Ni 3.874756024134544 0.7877727828347096 8.868270708489058 0.035848377157176974 -0.09100702460719165 -0.2549518750246899
Ni 7.18178745676579 1.667486649973024 2.8281820560745663 -1.558550028756703 0.007090331187878111 0.19779702308025288
Ni 4.474410231320248 6.23138637526095 6.6282925881326635 -0.8058130413230381 1.7462989235723345 0.2749092919832233
Ni 3.903139951314577 4.211909557597829 3.6915756255633876 0.662915241383826 0.8866588091265117 0.362203386515202
Ni 9.13763528257724 4.713665923795942 10.025402006927177 -1.5413143816047068 0.6168428725057958 -0.7720184613710962
Ni 5.6533102152468295 3.0017338382061616 5.098947804128188 -0.11101714918053138 1.4392174177319408 -1.3867507152917924
Ni 1.022751546114295 3.0074345685515347 5.541508670539673 -0.7885200585705452 0.8403373003521527 -0.32454778094595715
Ni 5.535842015642245 7.3363057988250375 9.570562006800849 -0.8775113382992887 -0.6256080202929355 1.3650943133642812
Ni 5.398131158042297 8.375303044986568 7.661065078816911 -0.16260787677362962 -0.3072434853395547 -3.2191078041064753
Ni 2.26316231837165 4.184004528605128 12.687318900982037 0.16739218553615043 -1.5437754415506897 -0.2922866069194063
Ni 4.9696554240867306 1.7734705026621302 6.7971189344965515 -0.6004014391203208 -0.1640196695194917 1.7950254422437601
Ni 5.687210681161723 3.2131950166554635 0.8134104131019962 0.4250786858831841 -0.49975174921704246 -0.7687410761714051
Ni 3.338270329774229 6.024493148752367 13.09178802138141 0.9122597975240676 1.926829703372972 0.5899149377667001
Ni 1.1488307035103555 6.990255810573981 9.39469954091537 -0.7432385610249264 -0.29232825879061913 -0.8656621522701866
Ni 2.5229185370974267 2.193933901560387 7.302842787985111 -0.6040243805848888 0.12238990979384727 0.21523835848515194
P 6.93000673477522 8.562718008683413 1.6689749181859683 0.19939522080530822 0.8716466519883956 0.12109458802119144
Ni 3.356007981866618 9.15940673093986 6.468887642646509 0.19344748786230556 -0.13212616324500473 -0.3991059159685062
P 3.6209491944283325 2.4122746366623455 13.1931514275208 -0.14823541010204147 -0.45161272761797067 -0.7885393418442548
Ni 3.5761998426542307 2.0936415696361292 10.892705043349133 -0.7885905067971645 -0.7496331516973606 1.4743096334493835
P 6.428664799700761 7.7832375321539935 5.469691440642653 0.3386106867969265 -0.34283989438692564 0.40611320052427474
P 4.299372943849866 5.716506356813795 8.857326042992383 -0.26956345429027767 -1.5297451887098688 -0.31531700637630855
P 5.031396451930645 0.32121359148950146 10.61223095227287 -0.31972799095981064 -0.49175690393702404 0.1248075180964044
Ni 5.448747012611235 7.94752723915095 3.354300525637164 -0.7157868925718769 -0.7377641681739165 -0.06107244183128837
