# total energy = -340891.4118527327 ev
CRYSTAL
PRIMVEC
9.08303083645947 0.00000000000000 0.00000000000000
0.00000000000000 9.08303083645947 0.00000000000000
0.00000000000000 0.00000000000000 13.29393375598420
PRIMCOORD
 96 1
Ni 6.324541714429344 2.1582462381904137 11.519579461874809 0.2314118829212208 -0.354835376185905 -0.5961226092393088
Ni 4.611282246555313 0.18678889871299373 5.897694665265803 0.9998765655027876 0.5349221264705885 0.38746036130977785
Ni 3.030980186039596 1.460297055322517 4.66165128650372 -0.7174164577555 1.1116609318666468 0.5521058373387266
Ni 3.7263043729567786 4.505455852708358 5.2071272616683055 -0.14191281031812333 -0.8780420139917781 0.1721422986266261
Ni 5.2031143785851715 4.482457618288953 2.982866462681369 0.5528681694260478 0.8183669667286487 -0.1338853120279565
Ni 7.674934094998779 6.189422545699853 2.3375925013255 -1.4087159067089738 0.7461536777891924 -0.16100222284940657
Ni 5.008782930953587 4.569600217427883 11.569910353093139 -0.06545025918400986 -0.046517941055881175 -0.4676957492227623
Ni 5.539377268174745 7.891119315147382 12.531274700554356 -0.28768921735671105 0.365248601099429 0.25784076653671073
Ni 1.8213475364328473 6.8582606143046405 0.26069298021121273 -0.10789582994273031 -0.6020549155633438 -0.5542462807204971
Ni 2.7880454396804284 1.6771816688559125 0.31092123317956527 0.192602623363507 -0.955838710556283 1.5915411389707428
Ni 0.5990685828047173 9.13253349012281 4.7105325259790245 -0.6029630291999101 -0.056683054514341094 -0.31703733150152497
Ni 8.796960910887059 2.3019579542187825 1.5310756658635016 -0.7819128376666727 0.8213239924744435 0.0025024547068795613
Ni 6.919879896414137 0.6731752158935969 4.754468963393538 0.040036704206911695 -0.31671517227541585 0.06740712580006457
Ni 0.7425514064526083 7.57010683455867 2.3948092383231936 0.3675602799517412 0.3832149557698626 0.14696811335384366
Ni 7.725290418703827 4.168402739424279 3.870621927150935 -0.480293897602747 -0.30202208903961536 -0.13651503634131973
Ni 7.753693056551174 3.8725865867500335 12.59844825610282 -0.21356405610652254 0.4693916488679465 0.10392990331644682
Ni 8.456365415524163 8.74783079636314 6.882455992206067 -1.3485374374468644 1.6673267186424898 -0.2951839830718594
Ni 6.699262157151525 1.125705443431668 0.3578305466309943 -0.3862403728597477 -1.1832599842608718 0.6346197368732425
Ni 1.9286181322042435 6.342462534535776 9.357347589694177 0.17490906273848586 0.6843890949868858 -0.0812625436259181
Ni 0.39256678197464806 5.12956907681032 1.0604783814203598 -0.15416771642607643 -0.6807898076714017 0.20414379123388712
Ni 6.31884665401032 1.8697419254480887 7.078248899520938 1.0283029391642806 -0.009946312579434484 -0.29796643091300296
Ni 3.034613398428127 4.246907376109475 0.49782821129518634 0.8953787054980128 0.7728851802467657 0.11096804111015082
Ni 5.947650427305016 5.621960185766069 5.172908759090017 0.3638715182462443 0.07888864407710285 -0.5549111679980057
Ni 5.186556013124439 2.7574537913689925 9.36194723657806 -0.23108303882689232 -0.03206654151724155 -0.05684040602781179
P 0.049487077641092156 5.789578439310976 12.118550856248133 0.6675116025052569 -1.9098820197750397 2.731176958783761
P 3.8333842250777774 6.083868642782038 12.78280835233408 0.45492328004844235 0.7721241337110251 -0.3258269047686969
P 2.4489213953348865 8.704096002236192 1.4506872085548508 -0.20630377499968341 -0.1981808887822329 -0.34485975303043187
P 6.4410951678534385 7.974383460061556 6.2137705185215975 0.07801961120858822 0.42186326426967996 -1.7109403415673825
P 4.669604388422216 1.0764481664741505 12.54112524764276 0.8370378036652746 -0.02964970454563281 1.329617717724226
P 4.075574162897295 6.052059868320443 8.209948235090586 -0.9691855641768339 -0.46430317860144554 -0.21881887674755862
P 4.93595518862547 0.9174315432590925 3.6575203960170977 -0.08448516432827385 0.37295239750159 -0.03172587034837117
P 0.217161645978021 5.916795371095411 3.5891624132299724 1.3153853761749281 -1.416612278737915 1.452954821922691
Ni 1.5503189752793594 1.1890050862708603 2.7129996211891134 0.002180809701402696 -0.30452557218775944 -0.27926551206939004
Ni 2.084310366083795 6.417824442504894 4.793208090486257 -1.3966558902206463 0.05333444975708233 -0.5134050783344191
Ni 6.043040418565913 5.7052697458351 9.260141900542111 0.10519437185116723 -0.2742886276800889 0.12299951835338817
Ni 8.709445907478303 2.192471098890382 10.124606656994995 -0.7067641202479763 1.0335814139544004 1.5432090275242585
Ni 2.1386450573542857 5.155246805366268 7.067334729505789 1.045888513456528 -0.7282469727121007 0.25837941264900016
Ni 0.5426611438665695 0.049576999647708314 9.223677164404611 1.2364645933083092 -0.4427737891701019 0.16793288853096883
Ni 1.435491297739817 1.1977883772201354 11.461644257127285 -0.5742427784470819 -0.6399308646735108 -0.20694346546621134
Ni 3.800975970572075 6.904066339493052 1.7990014636371836 0.5529589293676412 -0.6084644186341134 -1.0364787901068537
Ni 5.521111292891402 7.749424031994649 8.033630254481341 -0.11543996083857538 0.34237195361157163 1.370969798308452
Ni 5.488394215332675 2.7808970943059927 4.863586139361405 -0.3489940869137796 0.23967977935696785 0.3829922982360952
Ni 1.1166859936771383 7.331214036981744 6.8751968338537806 -0.3880506865956091 0.21301821090538153 -0.15722990029116793
Ni 5.246513100566182 4.360445263251089 7.100635845955973 -0.32466322347789894 0.7791082783383421 1.4614942268522702
Ni 7.937470022194074 7.567100351307161 8.897736231210857 0.0015190077476877064 -0.8380629024956792 0.9344813279264294
Ni 4.568392174308697 0.2249367204894787 10.511141398101582 -0.6358626081414082 0.03247123315482795 -0.49270178434879663
Ni 7.8598282734511535 7.330814383619005 4.808588386830008 1.166890541763913 -0.18534568469077756 -1.453728209753606
Ni 7.558208063986229 6.2117940509822365 6.936282942045259 -0.5307083454995569 -0.9429060616550148 0.8097308883202055
Ni 2.6316901445399705 4.855306956631039 2.901480688572066 -0.7041904459835292 0.602995167989426 -0.5999396689925538
Ni 2.324447538903793 4.964503154968357 11.58005337377882 -0.8025983910404823 0.869076063047742 -0.3859045867868838
Ni 1.0195520604697452 3.349921735566845 3.914957109625089 0.4384268250553159 0.32962699524107747 0.8870025656191756
Ni 3.8303959078882097 2.715235863414255 2.513683406160463 -0.34471294303992245 -1.3648022360451593 -0.0709832731870971
Ni 1.0919256512492952 2.8559320131601424 8.162169675575202 -0.3209850032953633 2.9139181159721557 0.050970063289963834
Ni 3.80675277826984 2.580652593512072 7.259259173929972 -0.7088017195032954 -0.48667897519348435 -0.7877942361481142
Ni 4.037243772198287 6.981998745227056 6.039793234993663 0.7368334288295311 -1.221572249577509 0.0891745993841432
Ni 0.5122284485971315 7.517679579792159 11.195633162282357 1.6301609082254698 0.6487116961899344 -0.8181327392306557
P 9.360245076574031 5.8863672173414585 8.107770494784814 -1.0946114325835277 -1.847641011556947 0.8876368567690648
P 8.481934147708452 1.5114345196910994 8.14483471096642 -1.0951621628806751 -0.569445871279071 -1.2685830711094088
P 1.7288277829588894 3.2435503598616098 10.45081372299621 -1.5282364653748262 0.3389865820791065 -0.19739027456013747
P 4.039796103901231 6.1242972136354235 3.846786237275973 -0.1882803418390693 0.5981447818756602 0.6270324114442879
P 6.778529768438313 3.9114347102144076 10.295540216844437 1.0561636701302908 0.5347174666589499 0.5205787132647228
P 6.318338004275926 7.811551963838539 10.349885807752091 -0.4167657951421144 -0.6650392297053642 0.2988249222585563
P 2.4139971412501264 8.566488083020555 5.749998223550312 1.2338176426037655 -0.21080166287003696 -1.422590607808537
P 6.933876847140954 4.268515906790268 1.6237343897113208 0.608577804283526 -1.5288810409373603 -0.6008266995831976
Ni 5.307950722056252 3.244431413865829 0.3815581484373972 0.0032113078484460825 -0.48146812041650633 0.19231748802292042
Ni 1.683049306863391 0.9928661154759805 6.973399839806499 -0.23400792578317117 0.30595973353112466 -0.034973944972023635
Ni 6.667789454835869 0.6391946887267577 9.385265193687653 1.141451789975834 0.6593912873909676 -0.5577663780586135
Ni 2.5950128654777433 1.7462490363618988 9.296581204192888 2.3031260776461306 -3.0493280921747545 0.047153774867667184
Ni 6.445300611193163 2.2570877812204166 2.6013437380647595 0.5881992406271741 -0.25085045126180666 0.10369490448750526
Ni 3.9995219445743575 6.785432871976523 10.433026423445055 0.8972209009130742 0.20825112853404135 0.6081327463263075
Ni 8.134726205798428 7.349607174698686 0.2043899961292352 -0.04219617375207572 0.18154353733586798 0.34434861772196823
Ni 7.663226068076736 3.6823334200245745 8.146908366937174 0.41046993483107375 0.683619563810713 1.4012067428161223
Ni 2.982413219435899 8.521645159115103 12.328036432752285 1.0011315209558111 0.0693976738675321 0.9607024664064874
Ni -0.024602297688941913 4.78301511313023 10.176347234620074 -0.29162171964189776 -0.17810314419575132 -0.2892030828980761
Ni 8.893250122214118 2.493382831939542 6.195093081935253 -0.6338962284436567 -0.22374459618395012 -1.6290064829060524
Ni 3.470835043857177 2.5733589196420947 11.547563371994377 1.1313753795764387 1.097305177365607 -0.33065286540243055
Ni 1.0840324973352102 3.155635703090116 12.90924777666737 -0.6825543557709922 0.44881639581975613 -0.7760188407797409
Ni 3.164382661915506 8.290155031779811 7.845042915636024 -0.04498170691701285 0.5320445478124772 1.9200419910271773
Ni 5.695650816036462 7.341114540740493 3.5418761539932335 0.4445879595607053 1.6769696410488926 -0.2686455704616986
Ni 3.059737062094824 8.361729315833884 3.5897210196347094 0.811841506905305 0.22601153784125594 0.1869549381594264
Ni 3.254994978885485 4.163824891814729 9.134288331706472 0.3401024408511045 0.7149237732406333 0.2755271280728803
Ni 7.101104530354094 6.1815384748167395 11.590130088338414 -0.3854415311075362 -0.4959161775210363 -0.9303395378439139
Ni 0.68346084016553 0.11785051024680039 0.3039990552763155 -0.5834501559779629 -0.18503201010510067 0.012166203048888725
Ni 4.556157331590316 0.21226316737518325 1.4533058463838848 0.473043643798237 0.6445578219225608 0.18405781911728947
Ni 5.860644073630654 5.717767996451648 0.4368411081412944 -0.3551683340452915 0.7353936110592109 0.24081749250583684
Ni 7.924644782462558 8.923578362627387 11.573951393572283 -0.9606093924720489 1.2351559017992146 -0.0959671968259444
Ni 0.14739670169343672 4.990980190249781 5.672628057433434 -0.05524143697180809 0.013080487333041988 0.0779386214590077
Ni 8.018127337219477 9.119726416453238 2.2963546324125694 -0.5067834592528433 -0.13455894105621344 0.4501335719692829
P 8.55381725481555 1.9063465402625448 3.8249170236063037 -1.0860630287928845 -1.596036712848251 -0.339527542184241
P 1.7166292723643946 3.201541341619213 1.8449052855600865 0.16783132995609806 -0.3506295656346735 -1.1030155974868228
P 4.794804887331016 0.8731326929088236 8.246878930716914 -1.0404192628118405 -0.314976078097122 -5.0907842593460714e-05
P 8.489754637374768 1.7041582708407599 12.620117643091119 0.08029940838170041 0.3768046813681446 -0.7342049900677484
P 6.222884431798229 7.8167656236160825 1.4644198430804032 1.068808869698127 0.11123080785323425 -0.6558801889139155
P 2.154276953655943 3.1460531054153638 5.914604544025127 -1.4281519039463983 -0.17497359742783414 0.4670262339595634
P 7.065444550760656 3.9427257519106367 6.144017382177275 0.5841428111696133 0.22390554724184666 -1.878550299541294
P 2.4210909884387344 8.466720070831476 10.31746211209374 -0.7174874202027515 0.03760726882981265 -1.4304676965637686
