# total energy = -381168.63612634514 ev
CRYSTAL
PRIMVEC
9.22158995750604 0.00000000000000 0.00000000000000

0.00000000000000 9.22158995750604 0.00000000000000

0.00000000000000 0.00000000000000 13.49672903540432

PRIMCOORD
 96 1
Ni 0.5140713487175981 4.985790780666053 1.9948566974212716 -1.2864537807422423 0.23067371920361565 -2.194722454829046
Ni 7.349302657089108 7.037889573824809 5.450343114997481 1.3296979361428583 0.3233211076277077 -2.427306246571181
Ni 2.0764437898960293 0.6312832864179004 12.2261597211045 -0.3236617787965781 1.985036136510375 0.41829020220644086
Ni 7.189271189900223 3.1001970106467778 6.532821263105165 0.17408888083003568 -0.01182656032128286 -0.8862001243225383
Ni 3.0823071266807505 8.793339048786073 3.065120850006789 0.3465808494865966 0.26530056524886564 0.748358141639679
Ni 8.768062671491805 2.472188310721834 0.8395602664590854 -0.0005358178988119804 -1.0881993584095968 -0.48639126874973654
Ni 5.645180550248931 4.445359517867585 11.370021802889886 -1.798754056048257 1.248043042174528 -0.6040706604417918
Ni 1.8116919503781717 4.224862087191462 11.23039863580678 -0.18407016041246363 0.8086600238535299 0.9654199264868149
Ni 1.062622221223328 7.448600734690233 4.565700340944008 1.6636726668296704 -0.6634652003500251 0.9027737124105033
Ni 6.279247834589174 7.826464593139684 13.514409343339159 -0.8815484844831399 -0.12004686348296743 0.06411199998856056
Ni 3.484866402275057 1.3911044669727393 6.537586058489312 2.1314026117244778 -0.6763469414086997 -1.1673695382828604
Ni 5.225957862115133 5.662987439907899 13.356686962204444 -1.5693044390597295 -0.20801715814636432 0.581374761506173
Ni 6.134302888105659 8.172043666143226 9.610912278987325 0.7751130411360199 1.7159897310658319 -3.8014948089272464
Ni 6.261413280161185 8.100659340482908 3.2045688068861025 -0.1254847466690871 0.09486727889354629 0.552190683743049
Ni 2.669207574089964 7.7695673848559785 12.012534219052853 -0.3284957098501117 -2.3362436861357057 -0.8681412099382985
Ni 9.23505319413283 6.955854312091933 0.6389242956211222 -0.10346221965140892 -0.5456672808022345 -0.810469566258443
Ni 1.51363172896068 1.6453898022115037 7.327670652033693 -2.7671284371777056 1.8184795595016425 1.5269771390464282
Ni 6.260002376941183 2.342615754223561 11.574740171476178 -0.6590932965345745 -1.5475997003927862 1.4188959325657693
Ni 6.4159025719564715 5.192695588163865 3.406183188388393 -0.7714839290238649 1.3823039923743485 -0.14658836141692172
Ni 0.531121145864396 2.9817088049357032 2.961803081467112 1.6201639449137581 -0.7213461318272093 0.5109692151994167
Ni 1.0739278901626836 2.2878671763337133 10.050649315508146 1.3302175560917542 -0.08057734463343541 -2.8111518939465068
Ni 3.4544443779431373 7.411825035073472 0.5615404037194136 0.36456545898947534 0.22525074841583145 1.1843570739797924
Ni 3.485299816989698 1.6717451054975376 9.22045172904427 -0.46109187075299946 -1.4395863710355852 -2.3978262348341928
Ni 7.526025201586505 0.4904640791541806 12.959181117751058 -0.3200110694178682 1.4527465625666272 -0.4825641816941624
P 1.203620327326708 8.653641186826615 0.3599158784684821 0.7899159104768073 0.6903753944773078 0.9605114334416038
Ni 1.9902864775792286 3.23528407776963 5.355933402082126 0.06552199296220974 -1.0423763865382112 0.7146558642912273
P 4.901302576080104 8.919269077363428 7.867526487636553 -0.9659220629342139 0.65105037162544 0.5487032394150808
Ni 7.408449933253077 3.4973524346925835 2.4117168142807928 1.5413596330203454 0.5594797612052945 -0.1927412058239003
P 5.064773696217097 0.6627261407266443 4.186968730906307 -0.12087604425248215 -0.31651771155262903 -0.23202534813550363
P 6.004988536118236 2.0183938829031725 0.5674293108847255 1.4831498574488329 -0.2075538453567006 -0.4860092028199694
P 2.921362722114217 5.934664693270337 5.569992318848413 -1.0567753355723606 -0.5592697020770175 -0.2861049035887266
Ni 6.079978503340779 1.5280174088508873 8.426156557655101 -0.9607137792603971 0.577202118185722 0.4514327503966806
Ni 7.295024380272595 6.2050417024888525 9.978968054660347 -0.17867881419356324 -0.005218310976145852 -0.33588171790153765
Ni 4.468791577227211 0.5996606111105288 11.003410128159686 0.47706639180438487 1.73082242520329 -0.8656310419219351
Ni 7.2342541043261415 1.1845685230618563 2.5695609203991925 -0.7880760290545912 0.49145197110209554 0.35192025942163907
Ni 1.6414706266003893 2.9690844486730787 13.280659566143663 1.0005915892919413 -0.6884753492411176 0.6203290312821832
Ni 5.139653004363562 3.4899843845436886 2.197253991886818 -0.4266817687042458 -1.340720255395291 -1.448287755464325
Ni 0.3240208406655124 5.805534773076378 6.599049797979192 -0.054969928477976306 0.8244615096621608 -0.5326420721871601
Ni 0.0655793349610325 7.338780823271976 9.086875158309889 -0.6855730879926579 0.9978811323393137 -1.0517999938449563
Ni 1.3087095632426085 4.165456606516644 8.12291195852333 -0.5223586879832811 -0.14587822272377457 0.49274523599222236
Ni 7.4171643354942605 0.5464354398346957 6.723814217621853 0.7794576912579608 -0.10204142804448232 -0.26582841272787766
Ni 2.4478802003432523 6.663308601299021 7.60783637869032 -0.2748121042837267 -0.7853817700518796 -0.48508077746842915
Ni 4.979390997432846 0.6715558128387428 1.8168080883288686 -0.08048478491962913 -0.4554233596133125 1.4046926444821937
Ni 8.500756451634468 8.704120168697767 4.120821346021406 -1.745640464052729 1.755963957465924 -0.30431499883885005
Ni 8.472252517954576 6.616370709862382 3.2324936247345164 0.09958268209134463 -0.5288972604327472 -0.6891196676933358
Ni 7.206746102330956 6.9687737592241 7.648569062435857 0.25364344062591154 0.6067597772381809 0.9455908075760294
Ni 8.216943586262087 2.1563488644143933 4.394467408779074 0.34332788976693773 -0.9590533608388386 1.5349359888821887
Ni 7.670250864075507 1.0884795586670089 10.332150328349453 -0.05084767877948662 -0.9109523915665538 -0.18429718882160517
Ni 6.9650482369961235 3.918576207785467 13.470085772574874 -0.6458459446063651 -1.4067173882217063 0.04156188260218649
Ni 2.471137049499088 8.866484698073974 7.797910862875557 -0.16782001710218838 0.7095349981248941 -0.3581094189514865
Ni 5.046976028147801 3.1357831251956947 6.504141197062515 -1.289803928161398 -1.0656690385175647 0.8180059838448042
Ni 3.5136100972864526 4.549351384612374 7.389660944293912 -0.3756307156647014 -0.3913707521077776 -0.1286160932092172
Ni 3.9228734685731825 5.32485941136031 2.642322029397721 -2.0687427708014114 0.41426951108282206 -0.6360868083370722
Ni 9.290843811655748 1.9971657834754433 11.858441455613516 -1.8904267392639058 0.11246313759843857 2.3986446169704303
Ni 5.560471027510824 8.402638737511515 5.970791192974104 0.8876983061346196 1.3104997659478528 -1.568561647356434
Ni 4.10069338224169 4.12858869100315 4.656384531631387 -1.135588903437154 1.2339937631703135 0.06713098932054244
P 9.234868762339365 3.184657550463707 6.170164728185805 1.255207421133451 0.008941268353687828 0.8625071515809726
Ni 7.359400297781273 5.834047928345943 12.244097557336827 0.5462858882228399 1.5235647709307696 0.4728076165280308
P 0.10841638546999464 0.5764812233079483 9.108712804815017 0.7410387251601303 -0.4360549823890297 -0.9349364131859769
Ni 8.050908864195941 4.748759039705865 8.14813669491543 -0.6344970952524491 2.014962491756162 0.13196804040058563
P 3.026285969416 2.3089569519163446 11.213109077328479 -0.034147849526302475 0.43157432090985676 1.1234119017549877
P 5.458839887722378 3.8288224754961147 8.54552081438513 0.8091356779383677 -0.2680519027417577 -0.2139260674316316
P 0.06340211763918764 5.218101067713559 10.105392360444188 0.4849324248160229 -0.09761064596663835 -1.1532690943257362
Ni 0.09576436443835061 8.565713329292558 11.747714139771414 -0.8949611583446199 0.561386234199388 0.2860002596900623
Ni 3.721501614879297 3.8118547504974085 9.812310875291262 -0.13701588723713823 1.519046571345442 0.33133600751238423
Ni 0.5559069345880496 6.29842874110945 11.935994102606243 0.9896209492130503 1.2244202605492653 -1.2856603383066696
Ni 4.333105106775601 0.2746134075143882 13.145975482489531 0.7020780276262166 -0.43393382228096883 0.5229150747073833
Ni 1.9307242298799656 6.236478101684825 9.815509844748899 2.036128841421132 -0.6128630619224412 0.8370177490606167
Ni 8.285377003226976 2.6486249859393594 8.425845790083114 1.5011051563756728 -3.0856690926976342 1.3005503680446246
Ni 4.922226363048618 7.6550536842940575 11.271334194525128 0.9571702848835126 -2.3209538498561706 4.688954773798815
Ni 5.875923167051989 2.8194918209942665 4.375058728993869 1.186671838155898 -1.5578437467182977 -0.4525648071185948
Ni 0.6148384255536651 0.6648046870389858 2.544430244221761 0.43291695098068017 -0.6157830637827136 -0.38691760143243037
Ni 8.41236751461675 4.580418920221418 4.679478158650006 -0.42094512333078477 0.08317570148823093 -0.17268634405555422
Ni 4.887571629056694 5.858983106822303 9.274735538814587 0.08112164717267964 0.141942120894162 0.9235999051272351
Ni 4.799016703424859 6.428582257757135 4.553877340823985 -0.7163101120651986 2.0814576472649184 -0.9495963291909969
Ni 1.0344963727200378 0.610609404529531 5.233343433284407 0.5148392396777843 0.022493553116825778 0.1453938268881883
Ni 1.4199588210602134 5.029058479412755 3.9657437168049685 1.7116833903809938 1.3339981061801092 1.4207779800798304
Ni 7.921520739491132 8.651667766636548 1.5149264401507987 1.1319824170328183 -1.2088152070221567 -0.0051848866350491345
Ni 7.2842535635342855 5.9157512128505845 1.1639601144601668 -0.6372566602754574 -0.27544459566140306 1.3334790004518455
Ni 4.923259181092018 6.407806016223393 7.065861421780557 -0.9903506282902234 1.5650371791429434 0.35822794680722175
Ni 1.8216881535839313 8.73104721054354 10.094877903898794 -3.3185660448048138 1.7047876917024254 -0.1379222011014915
Ni 9.209509390738038 4.638136849986039 13.14115720188528 -0.8330713628183588 -1.9748838785677216 0.9070101190893541
Ni 6.1624471797882965 5.2214485047649335 5.7339235963101 1.4876336042517992 -3.3300048827693742 1.0816774981306791
Ni 3.3622838107490773 8.085692700443289 5.660919037344199 -1.6477729648802781 0.48791259049026936 -0.48496173539206155
Ni 2.710040773162938 1.161662094313603 1.1080652929739394 -0.9714877299474495 0.054130206185500324 0.3791500416718696
Ni 4.25645525341188 2.8306683876781973 13.111815025704093 -0.5910760479543369 0.589768384886507 -0.30108080817226857
Ni 3.4955818894753268 2.1245067152727994 3.367582536175304 -0.8081833413274275 -0.4068948158853057 0.51601834758755
Ni 7.7345898952254934 3.9345018931511007 10.713203934666867 1.331798527425629 -1.5197340843307698 -0.2188085923349135
P 8.977650961584521 8.23068375487517 6.354259933626932 0.3469081509190284 -0.6029206059977487 -0.1815484224318744
Ni 3.70065160062817 8.074248707658835 9.600142384407983 1.852725882279022 -0.9795800200372807 -3.129534940842649
P 7.140765628219138 8.007604279090547 11.392926387320204 1.3522200285047745 0.36535761587346754 1.8273750622190592
Ni 2.272909757883767 5.189514139726607 0.2619198893292147 0.9455553263524038 0.5858903899883394 0.15347480412410988
P 3.853536335820317 5.8058021991769015 11.527015678440415 -1.1566094715528792 -0.9876759096715377 -0.11222042546001319
P 2.5214315995767747 3.6341362743153063 2.0351449005445583 -0.40825852900205173 -0.05628221953149661 -0.8310281071360849
P 5.042402119669889 6.88457142391802 1.8757884537197522 1.5511689058012834 0.5203920511752134 -0.42566798272775075
Ni 1.7313995690935329 7.066541052939471 2.1510280071729513 -0.13938952967563736 0.08431958528468703 0.6847179390812143
