# total energy = -381173.66173723835 ev
CRYSTAL
PRIMVEC
9.18723823845740 0.00000000000000 0.00000000000000
0.00000000000000 9.18723823845740 0.00000000000000
0.00000000000000 0.00000000000000 13.44645182226231
PRIMCOORD
 96 1
Ni 0.5271876109899387 2.099844335311948 4.597315093266436 -0.023844667828081516 0.19346985645980871 0.48692451554538724
Ni 9.068741137267926 4.275400700092203 7.6260608644570045 0.582198800069365 -1.6993657493559056 0.2221260867439207
Ni 7.534729611435845 0.8573356069805168 9.045831840255165 0.22213431427403682 0.3610404765553524 -1.2700501425732384
Ni 6.437314016242385 7.434992954245219 0.5328993169383002 0.7826620571278715 -0.11770458850303599 1.2231347089686226
Ni 5.548641658708119 8.899512210826206 6.883749478923304 -0.5384172841080405 0.6793366201646429 1.8240128306150456
Ni 0.8759011778031786 7.928136335603104 11.723718824528033 0.9342275600444103 0.30549282119703514 0.20048382588379668
Ni 6.452381086783342 3.1809709572925313 2.1163905511925964 1.4537953155461156 -2.3792880668206893 1.2818970146094955
Ni 4.401275049776134 7.330175754366088 9.004712518535555 -0.9826943972965463 0.8095331704871025 0.17811060039491905
Ni 9.102302118174094 6.750984700638325 5.509320279491475 -1.5429578307454006 0.007905370890005741 0.7847515926670485
Ni 3.703504313443416 1.3258746458897819 5.861940259959603 -0.46798396988714247 -0.1809267296874755 0.9255336318148383
Ni 0.6926764127870109 5.35455206587382 10.140291900940682 -1.079609816968373 -1.71321113987943 -0.12974686437955074
Ni 0.43494039032674514 1.4708217019414116 10.865821877297485 0.3534878610190751 -0.29086890063627324 -0.15119397850973315
Ni 5.65633446412342 8.354065882767305 2.629050382520087 1.0067501526941693 2.1003118038569437 -1.3222767039781227
Ni 4.9962497786193625 1.0016937610677106 1.1269406223870397 1.6684695739976816 0.15697278997503936 0.8597339597112097
Ni 0.15541867007759488 0.7295062130215151 2.1352831876928544 0.9393296571576663 -0.06812857734712137 0.07936635504446976
Ni 6.82663241943969 6.636300407002494 6.860648168633526 0.4053446977893664 0.5413082325025903 0.26101890715437626
Ni 8.260319304840523 1.9568174120304764 6.714351507299904 0.3039416746598314 -0.4171470897409332 0.8370773986539582
Ni 6.338955444771969 2.9642256352179888 12.87852709634915 0.008085348111295753 1.006931158356724 1.4641460626528204
Ni 7.683213754169345 0.13214004609181684 11.236459869195444 -0.47338637184963633 -1.2787510127813462 1.3874050610463395
Ni 4.9703050181268855 1.7686168388405394 3.9830407332735818 0.8657459702332445 -0.7008577820658703 -0.07327052655937703
Ni 7.533581206669003 2.893098037578912 4.667706793130922 -0.7861271328583364 0.6573729714093581 -1.5042629852783642
Ni 5.801116149888625 7.592131475301635 11.882011262694173 0.4930792222928734 -1.1405213077417649 -1.0868991515409345
Ni 5.648369128660609 6.06891495427786 10.25946783530058 -0.4974940635311174 -0.12538370231484858 1.188107285050844
Ni 6.230215294209309 2.672016339104777 8.474531705361322 -0.20546328137625905 1.103559385805435 0.12716701946751646
P 6.424047644375835 1.2444205925872684 5.552605033239441 0.15637063761466619 -0.12098557324715294 0.7998329124802032
Ni 4.996856136336255 4.296972335232549 3.8378456217923143 2.40071075547084 -2.356511435245806 -2.0996345752842616
P 6.4007855574187 5.480940900893295 12.805177105805281 0.419086215745175 -0.9206577917797758 -0.7926294527532284
Ni 3.6766867653281405 1.967851285030287 11.032598729881046 0.7318210632166041 -1.3676613027605091 -1.616228614415094
P 9.005073576994251 3.337080507677858 3.0100148300814817 -1.417809641480126 1.4077093198213306 -1.1242112577278316
P 1.7659801014958718 5.81726731452948 6.464193118853164 -0.478190478106499 0.14185624604857505 -0.7479267105292151
P 3.9388905416933246 2.5285484283928388 2.3373564904662336 -0.2834996047553956 1.2354258676311498 -1.1219054924127905
Ni 1.6829274687579157 4.102175325061876 0.5407709425721365 -0.030223831881547945 0.832305945407244 -0.8972404412970999
Ni 2.399228864408384 4.849483649417056 8.251617152879309 0.22107630532316766 0.21432098887720508 -0.30670818166137503
Ni 5.032622054394758 0.0758957742310018 10.001107999370968 1.223543771481583 -0.07943860304330191 -0.6897169349577026
Ni 8.990658800360858 8.275983545860237 9.580530018420244 1.9197630263341774 -0.17260972518134787 -1.3719894978222176
Ni 8.959688620608686 8.949040611610533 4.786775236804646 1.9331895841527287 0.30134974556293903 0.4773450993870682
Ni 8.780261859837415 5.983133711813889 13.399604275255678 -1.6154264302287729 -0.07300467449250007 0.3906683267241143
Ni 1.7688924559845811 2.6435910243159237 6.584754488723781 -0.39352353678472224 1.1399569505978624 0.9464377289573572
Ni 2.0012377084118946 3.32970315545567 11.553634566215969 0.04320970261825462 1.6053050255240546 1.1769065312390183
Ni 4.07724116076422 1.5859469830077093 8.243710615740559 -0.6822180554774961 -0.02155432913200804 0.7276401923660373
Ni 8.414030986072685 3.605063056829788 0.6931569053414571 0.611854675262585 0.2833335114911765 1.057863683540533
Ni 3.8976765914209275 6.784738613545323 6.936056100519574 -0.4968492308582669 -0.8100083103513083 -1.9969519141113548
Ni 5.111567991686489 5.065980916061961 8.118281847106163 -0.19525085961963148 -0.13055984719914934 0.35605870707004483
Ni 7.274675648794186 5.305694333473327 4.434639423786219 -0.1721916638073228 0.23514666737330467 0.1313124090944577
Ni 8.861624040758581 8.555339895822964 0.3390844225242296 0.8974929236275382 -1.0407707326139881 -1.3492213508877666
Ni 2.4685465761349192 0.29114265776576975 1.308377550862189 -0.9677241491399593 1.0633792140421234 0.047332209427060415
Ni 0.42778169437216373 4.703250380026564 4.8003429500820145 1.0625559468098797 -1.5887617764533928 0.12126093839572663
Ni 5.277039337731106 6.6184863522592545 3.8358428038789434 -0.281180983924548 -1.4961406132815458 0.618053090763813
Ni 2.0222305475497517 7.466633802381228 4.88107580519095 0.8319562753773092 0.08740619462981075 0.43955553934312036
Ni 8.492278693266178 8.653542284245088 7.029629958369423 -0.6657030885416084 -0.22992681373526208 0.7044133606276126
Ni 3.473997917599734 5.255403391923817 4.8898826916669025 -3.6522952351397233 3.0861375476936206 2.095715956956145
Ni 3.361720680355203 7.613510178441151 2.6357598225298804 -1.5647034499526085 -0.23072668392873813 0.9546768290376978
Ni 0.0608709649854649 6.484297552063393 7.888643155033341 0.6722380614466488 1.0644117690716959 0.17987077761913536
Ni 3.5379686567318567 2.2633036762050582 13.365933966215708 -0.8944682778686014 0.35005569540907455 0.46946981040404956
Ni 1.795572195527836 2.7752625212628694 9.278858785752075 0.15330459709483274 0.02025823602840382 -0.4097299713412556
Ni 2.8784995161828264 8.716796418802703 7.543957273418367 -0.3700367665166917 0.7480830336014213 -0.6540809309216478
P 5.344299108115462 5.552656481772996 5.806930752904096 1.072696120567675 -1.269529237072762 0.1203440830084121
Ni 2.7003038453216095 0.004628530572276808 9.891277323641715 -0.9840187725349246 0.8008500408908079 0.028209372554680447
P 7.192008880057889 0.2637858187719852 1.0446275623189294 -1.6706637534355229 1.3313951213396231 1.381668929893511
Ni 4.525890747835608 3.9102447331892383 11.957041599092882 -0.06945938034340296 1.3611589828656172 -0.9933711602841021
P 2.1964481442986306 0.45617485382754575 12.145211854396974 0.6674488675881215 0.3500976043906035 0.21195325997597692
P 1.3503218865662974 5.593815308616584 12.326214226508352 1.2023141726788453 -0.16753333909970503 -0.8673688505486481
P 6.917595264211648 7.956993450584289 9.591354422390584 -1.8528968606392475 -1.0643531479196187 -0.08364518492548176
Ni 8.958788271271482 3.8241235629142816 11.630065037706414 -1.4284213555577012 -0.7489993747681037 0.8476729147816175
Ni 7.272672830880816 5.338942948282915 8.944149326027603 2.3938165994541674 0.7795767333343284 -2.210356818932193
Ni 6.220192017404319 1.9425496312072412 10.848180542631177 0.1726007263202834 0.5194458852118602 -1.1412599856800023
Ni 4.1796329297757815 8.536184504312052 4.842631807216175 -0.3645891131385592 -0.4092075231788824 -0.14415044139939046
Ni 6.460438294627499 8.358494131548245 4.88804065042089 2.1224867972920864 -0.5056485743174518 0.10458784861541986
Ni 1.641630833342306 7.195977766932092 0.5546482657746458 0.4892518781269832 -0.5380061647125509 0.7588240741680093
Ni 6.987234529272899 5.406671267812141 1.8868327068153599 -0.22678981076817717 0.686878694177959 0.009281939522558206
Ni 4.01741386603086 8.128335441796997 0.44340183664883115 1.4429712283474183 -0.6569330556584623 -0.7159126195164638
Ni 8.243690403816665 6.793613485583471 11.055255377845103 -2.322317820083233 -1.8606852463354147 0.9529117667174749
Ni 3.42810766311676 7.773533492271872 11.63572529512122 -0.2829661008494288 -0.18484611934653972 -0.11775626767657785
Ni 0.9115825732708416 0.7214434928344764 8.394324360273691 -0.14859330766209247 0.8715360945524603 0.2600619425577457
Ni 1.9128013541269868 6.986582235365333 9.572461785890326 0.814812416608171 2.6356933864624543 -1.781162311108423
Ni 6.732049802842647 4.1508125637471345 10.633494080622627 0.4444200665242733 -1.2595890951409145 2.2343835208640943
Ni 4.8806008249793855 4.210869539433862 1.0077040522554508 -1.278832773861875 -0.18408738680364423 -0.06428066435594092
Ni 0.3078836430948742 5.560594255521402 2.4213967513036727 0.10094382410492939 -0.6278502793598929 -0.5886792655873861
Ni 8.161326813938812 7.3194266857484545 3.3417926421171606 -0.6022575184924531 0.20200257652116824 -0.932162964205898
Ni 3.9985249044258553 3.51986979760644 6.726977528668463 0.5023794166478768 0.372444604627236 -0.5469875422755548
Ni 3.682713593544523 5.827345714763278 13.285645773432494 -0.9862502329686047 0.06053379571899897 -1.270249145957922
Ni 5.308073828150222 0.4678812326588183 12.232182844199393 -1.0665840941326663 1.3454433719025731 2.250827782463046
Ni 6.932202972845868 4.011598344291576 6.590724356063728 -0.9390242101021055 1.066009452576119 0.4684722223774706
Ni 1.756930671933163 2.518148474824325 2.480238255385176 0.06249169077631819 0.4323083708624038 -1.4611612689928835
Ni 1.0514885917579455 1.86816975126847 13.39407815151764 0.559796521114765 -0.26805678783776415 0.07879325614981915
Ni 2.15841297842085 0.6542967254791776 3.8545599641308277 1.0721150512532245 -1.50009985503961 0.3000135432500188
Ni 2.659200141906829 4.909972425296116 2.515736824813958 1.1456344605986142 0.25348351800927954 0.2401603185378122
Ni 2.8940718848211935 3.1797949908112857 4.447145092335213 -0.26806758647104156 -1.4642849022235298 -0.15710057380215525
P 1.2572000408326773 0.6400684497799218 6.307514878427297 0.002638208953795456 -1.227910533090711 -1.0317363903258618
Ni 8.067322993344257 1.5953087786669988 12.925173460530614 -0.30253271012744676 -0.6344158483925526 0.4596947332951567
P 1.1266310124618995 7.94339633814489 2.96221271134267 -0.5045962217935375 0.1562639368334728 -1.0523988037712197
Ni 3.1052773023004936 5.40686419981297 10.526420495057607 1.2176086369440708 -0.9187952846497403 0.9390949154390407
P 4.759191473028933 6.288195954077588 1.6689738914788883 0.33774756746568285 0.22087395950437444 0.40086197942766444
P 8.474280893760243 2.938005257581471 9.460452815999327 -0.08443348515473201 0.5168328730690455 -0.22644065495887453
P 4.121578772002425 3.5325481862323667 9.36612560462243 -0.45167212010099633 -0.1114336678926597 0.19771166245529823
Ni 7.542042652991089 0.803819026121903 3.4574994753573867 -2.5273584120997765 0.6512326628395753 -1.1688846893758063
