# total energy = -381170.3135629877 ev
CRYSTAL
PRIMVEC
9.24381853218702 0.00000000000000 0.00000000000000

0.00000000000000 9.24381853218702 0.00000000000000

0.00000000000000 0.00000000000000 13.52926280134937

PRIMCOORD
 96 1
Ni 3.9947530497392036 0.06969191924151755 11.836697304692507 0.8516596673435075 0.3611572046388748 -1.6136143167206982
Ni 8.032693218534071 5.41968763930056 7.85749790360978 -0.35281757442492784 -1.3735295886158279 1.2367805818868312
Ni 6.324574255627194 7.209355567170851 8.65483176973852 0.2814416937851024 -1.3032099171546587 1.5371952172300107
Ni 2.283223117882938 1.5650708748532804 1.880959877312445 0.6430372715129765 0.6567798179100495 2.0916484717549912
Ni 1.6636099778355966 6.925311518724265 4.017460489371104 0.09684959943089771 0.2189119506819972 -0.12690785226885884
Ni 0.6372521941102736 5.972015026007537 6.202936699499267 1.4429779132156375 -0.6033795479120383 0.26370699550950066
Ni 0.3151920185600213 3.835694668405553 11.832963726484763 0.3156782463704692 -0.2679310608931773 -0.5827323039753319
Ni 7.222149011685628 2.0873835835693026 10.311327705017344 -2.1313365343732324 -0.6002564289020244 2.6463156420629907
Ni 2.6040113440363455 0.4811749441754782 -0.06542312395472265 -2.4297199982189963 0.3303425332508634 0.41945696882103245
Ni 3.812640585587739 7.191246927138735 6.930892011826556 0.20597518801567105 -0.8772614270720116 0.11095107182928635
Ni 8.093027620519585 4.460373420876375 10.175047016334608 -0.10370647445173109 0.4003063640345106 -0.028094701353687097
Ni 5.599581587062178 8.852065271850442 7.252969750631561 -0.5444334083951333 0.5618624025048582 -1.4237607168572384
Ni 1.0448380252527385 3.7432472416770213 8.630911541146839 -0.25544244150786327 0.9940612443725912 -1.4468813620351018
Ni 7.642225090102925 0.03808915326816456 8.110671296491663 0.47090911395373736 1.909937041382691 0.4611854589080703
Ni 4.302322615736446 5.064798967471564 0.36857229604519787 -0.040787723440323304 -0.10166913230672814 -0.38313010936554015
Ni 7.873339035015108 8.162504158794922 12.828757749412643 2.7204906827145083 0.20162770968025273 -1.5280696007796586
Ni 7.166713833394358 8.746898351153462 10.508543643874514 1.4682634272553035 -1.3244891382484092 0.4690746318481599
Ni 6.193912884083569 1.9809317721298698 2.071370517143762 0.4325919635410937 -0.3667606668685813 1.220028559239473
Ni 2.225412278290874 4.553320013792622 10.513724804026632 -0.09494801153281067 -0.3608764401736624 0.6607238901594621
Ni 6.39928279505525 7.648575593268858 4.732630676620078 -0.4298534815640081 -3.3652084272537013 -0.23891898993154337
Ni 8.758601025109899 7.724467341438166 5.053314447626796 0.6309682561635842 0.6590416173610327 0.5818660993202946
Ni 7.344324558038093 3.4187614882072044 3.871642028975687 -2.504353466564171 1.7611874106483927 0.2118049073235707
Ni 3.1561168791043386 7.915851355335527 9.077025606926291 0.5467602567560971 1.3191754393449797 0.3077584773027603
Ni 5.065797299846995 7.073665558476909 1.5707068308653178 1.2585107744750712 -0.626854748215843 0.910960876206986
P 5.9083066303458 6.72207692977781 6.592403722409496 0.30382263258346387 -1.2570539874238866 -0.09374627791522565
Ni 5.371749197643309 5.102356601187995 4.353243113174382 -0.1393692179606632 -0.08285611336528312 0.1753716041972012
P 1.631423002546251 1.2281799172369094 11.758159975728308 0.8839630074619034 0.5367836051593594 -0.6039135660386373
Ni 4.3884657583905 4.854844122627536 11.38645772280977 0.8094354685669738 0.29704880419474 0.4979123820154586
P 6.818979876922615 5.802483398550156 3.033328467599179 1.7214646381374739 0.21465060430248195 -1.1967515909894035
P 6.83653388785727 3.8671791135047804 12.459652085052053 0.24913835366670642 -0.2402634197745798 -0.572761051695233
P 8.18072372464653 6.735637611210742 10.150194086477361 -1.1634324080119833 1.0936634668479617 -3.112691644033065
Ni 4.829978251424681 2.6586238224997154 12.917360672113938 2.8524031872868103 -0.7140727380942476 1.7326823612301643
Ni 8.657649285553624 2.79559872193611 2.1113897796710925 0.7018885373232299 -0.14535988832645932 0.5279832332589101
Ni 2.2272148228576234 8.538551930692071 5.968433970801595 -0.7024140708093968 0.5145713307283782 -0.6941140355841336
Ni 8.851076183293303 7.563874486268205 2.5276860607891893 -0.56768466561359 -0.037568188061761106 -0.14604765842210332
Ni 7.1951478184575475 6.318260727734424 0.6556926872190374 -0.12633603892578887 -0.6980894752921138 0.9141477585753999
Ni 2.537622241070211 7.026475866101231 11.300708366814913 0.5712541281324033 -0.5767305778659422 1.0705788171143562
Ni 5.833172875276356 4.115486560438269 9.277380746475092 0.3692551511556608 -0.4282054044376238 -0.5697430908045155
Ni 8.715358443144488 4.514070761328934 0.3579150979374763 0.14745070941721702 0.6746883227593542 0.22104210965112253
Ni 7.635782148754082 1.9034315995779245 0.18266154695795148 0.5721450153777887 1.4612240039100188 0.7759375939198443
Ni 4.623092354253272 0.6098008269314195 0.9992770936599391 0.36816448919464334 -0.5556333908760108 -0.3262287681928059
Ni 8.791093046402848 1.085483094278371 11.921174711290517 -0.451667492115306 -1.5826831743594807 1.2738839144970318
Ni 1.6749706305152652 1.58646107037871 6.871390477869062 -0.647047421113634 0.5564088355894546 1.754012233056192
Ni 6.431026067066626 0.8924176298338722 12.283447345170384 -2.2441138607779805 -1.1048243685607875 -0.8926443372859852
Ni 1.143460322599674 0.005153428697245903 8.855660192783823 -0.7960009403286227 -0.2603434783539064 -1.5462347017244595
Ni 1.4332910012964417 6.3747959204023275 9.408114219801385 -1.348701988049187 -0.2963839169172315 -1.55330960629337
Ni 8.1834321634058 2.6559431151953183 8.498919984151135 -0.052003389650484635 1.229745786527237 -3.5367737703309348
Ni 5.713899887867273 9.20164799198039 3.2599295804216837 -1.9576160926262092 0.0993044887292935 -0.9997624085224266
Ni 4.5009075640825165 0.8804533558197997 5.393021072294614 0.7427101993252821 -0.6386144598549324 0.13480011053274205
Ni 0.17381798599892875 0.5548380077548196 1.2784043551575304 -0.7208005437363844 -0.5063682260922957 0.1708145809541381
Ni 9.003368089637924 7.459641191218618 7.948901703253255 0.2891727438807729 0.1678020193800594 0.13367936666473748
Ni 3.310525619837604 3.25271478024554 8.719460849702044 1.0389545053408558 0.7115258033026778 -0.3217144252622201
Ni 3.7418236936602036 3.0778032505427824 6.41518401127947 0.401148914540464 -0.309655437215157 0.34209556002173347
Ni 6.7440957049470285 5.974427662581494 11.765262925703132 -0.22767452736597563 -0.631775582556228 -0.4894984469201505
Ni 6.3984231199541854 3.982726842142581 1.0489293392283456 0.4878922787752953 1.1450814163086214 0.36814726280346277
Ni 6.95460517888852 2.1092729452824477 6.5210636303666885 -1.6125043714859713 1.2761865944882795 1.0882566940100935
P 8.792867859514724 3.6982021151448614 6.500106969919108 -1.0426990599849526 0.3064533853380916 0.47534683801011685
Ni 5.912669712579162 4.361880536985515 6.741604495917598 -0.54062354773074 0.34881179569964443 0.2671057367784045
P 5.953490414152325 1.9537826778091323 8.52700732602841 -0.41441220730827344 0.3409979560821805 -0.5316406275058392
Ni 3.3083995416306684 5.514825017151779 2.5465998373944534 0.4962658475509711 1.3387862715973717 0.6796639215970746
P 4.326643101660131 3.0438507059598514 1.4042293609712913 -0.9671577351135281 -0.035059305596978334 1.317198775234583
P 0.12068544284395168 0.16337801762104623 6.758597407081988 -0.4737902921562744 -0.9906984985479453 -0.6395310581319309
P 7.736576743399407 0.5508474513985846 3.0297021176836103 1.4793914188476651 0.10046817002009148 -0.5398887264472444
Ni 1.9019525886513606 4.0575740388450035 1.5908925568674268 -0.5973202290918357 -0.35192977250333585 -0.023617125198307713
Ni 2.871388788104216 3.360100217332366 12.502824413998452 -2.1878954046048835 -0.44486486737117575 -0.6179155367446842
Ni 0.710625001795277 8.263576067988978 10.915476861445633 -1.0864288967727354 1.347794645743569 0.19609418145653326
Ni 2.40013893162781 1.8388265535419575 4.777318067384376 0.35663103463374707 -1.7670932346098664 -1.413680706913417
Ni 0.8966836519751796 7.765047703735762 0.1446805463637919 0.41219334528008367 -0.2647120397352473 -0.38463343338394407
Ni 7.068415069687608 0.3893163486720849 5.176377400535199 0.5069760348796236 -0.4465659092226825 0.09456028917608877
Ni 6.816927749262007 8.547610872617275 1.158141354809478 0.42837946812164285 2.368958916980539 1.7907756658284708
Ni 3.974869596595211 5.601217742899689 9.141425440196198 -0.39299877462950383 0.46006934302575603 -0.5966769390808822
Ni 3.505006312862459 3.4940893634607595 3.5111146279891674 0.4802453037529986 -0.6670122942713351 -0.21723173476609683
Ni 7.6467822925204 5.626323953378111 5.573217292914348 -0.7561809801182074 -0.43341857320744703 -0.8664946754738109
Ni 0.8357761332556223 2.66335665746472 0.08765728009012277 0.37485424250999316 -2.4952635884477607 0.23110977829976972
Ni 5.220816132587468 0.28478540267352687 9.703511525873008 -1.1302700623274018 0.3026823483314336 -0.6664088563593813
Ni 4.103349427022154 7.37598463568485 3.997843258193893 0.48719448137732224 -0.5480126411059595 0.8934647763047516
Ni 3.495633081115361 7.61184990319862 13.436086779333044 0.0654353467856744 -1.0522833612392781 -2.6413714106838384
Ni 5.726092484193133 7.770972991260308 12.76550877151997 -1.459671057600602 0.3710302407782126 0.7078717514898584
Ni 1.965457620310696 5.457125103379207 13.085434549426825 -0.2762627206873242 0.4528573986583491 0.26608835125748365
Ni 2.6166383998218845 1.3711910300173422 9.743882977877227 0.6794692890877653 0.004055915236928499 2.061483518135837
Ni 0.02273239794128632 6.157529215290099 11.688065026009303 1.5721596491203376 -0.548333514780488 2.466716115827371
Ni 4.757368058748686 7.226696970284812 10.797352880650124 0.652097839053348 0.1284929373677916 -0.814114876320514
Ni 0.6964061605000237 0.27793758208353625 3.960678486754831 0.3492172586681792 -0.6277188959883512 -0.8241172389488646
Ni 9.104745044835585 5.274374815765661 3.7015659406209647 0.3220934058681937 -0.21129197224289417 -0.9013413508393509
Ni 1.561493517174654 3.6807035671199526 5.70767140310278 -1.5889749209054633 1.0765964840633457 0.012848830938210131
Ni 8.64052973407865 1.978565354647368 4.929805942676766 2.7417794168899556 0.5143353034581724 0.3965957479521428
Ni 0.22801171949371543 2.1932900097295653 10.185532279422116 2.646027935619243 -0.06315040740623963 -0.5051160988527494
Ni 3.6324878109139713 0.7074784060490124 7.751266095045674 0.24238200877947932 0.21689234914880712 -0.14989891384739346
P 2.5193564561271473 5.309667714000791 7.450362246418088 -0.16062941289102012 -0.30902525983032586 0.3459247039598365
Ni 4.744066204227903 2.5643646073861435 10.766573738886501 -0.4801905392556633 -0.8476510604047466 -1.9586666453779107
P 3.133543474837658 -0.011769229448131809 3.9009190502670186 -0.9976075669629528 -0.31615878555131355 -0.6858816203720123
Ni 3.273938587041731 5.227083441388783 5.358034144444917 -0.3304512909145857 1.583337263003712 -0.03246326273502796
P 1.1102010643885694 6.193931371720152 1.6247018222668475 0.5883427081835739 -0.314378039501807 0.6500527835988611
P 5.241956745019041 2.8536036817122854 4.858006432864895 1.3701285333540791 0.7771578394801906 -0.16838437424609068
P 1.1881264525819022 3.0205562838664712 3.4538722832220015 -0.7155544648460967 0.45029169481370196 -0.13823921812127807
Ni 2.9873617323834036 7.729385052768991 1.9290157154619916 -2.8837570190077435 2.1293832673016033 2.1816540516808622
