# total energy = -381169.68527063803 ev
CRYSTAL
PRIMVEC
9.29740539235946 0.00000000000000 0.00000000000000
0.00000000000000 9.29740539235946 0.00000000000000
0.00000000000000 0.00000000000000 13.60769258785678
PRIMCOORD
 96 1
Ni 4.809082954026714 7.172474114646601 5.071178672326576 0.6538166215166675 0.17316688323639853 1.2886032229850775
Ni 6.4408984716875946 1.1126762911669426 12.503809066502212 0.08177059361058821 -0.48413126907096615 -1.1436200012717466
Ni 9.335896679471018 3.0384199838082013 4.093806592511312 -0.6551229990329169 -0.6075025689414764 -2.0416045198237223
Ni 1.4217406421727539 2.021906756910951 1.496070609292246 0.16369802451401486 -0.08836264500580912 -0.07511349330538676
Ni 8.048373381956225 8.513429601116043 8.72397306583739 0.1380499849286074 -1.598667465602879 0.839144051375
Ni 5.975433166689251 2.2534772337324944 6.278112989392442 -0.3062440975407629 -0.9620180998941172 0.771662106472942
Ni 7.941648465128244 0.7942094740588453 10.456899726933033 -0.18608384840838277 0.40635745532459694 0.3496165509891269
Ni 8.622190649731227 2.8514956478184343 11.840557266760715 -1.4481522583277253 0.9820241107023989 0.6402720500630135
Ni 3.344323216970863 1.5719123345331976 12.85441143570755 0.02911337242618857 0.125546453144958 0.20462587307662822
Ni 3.381698786763396 5.543661658936712 2.293195749691126 1.1117030979584916 -0.5080988356301571 0.2359020574820905
Ni 7.917186991465519 8.245999031585594 6.273269041168086 -0.14436101474829977 -0.7744849206337178 -0.7473950063954613
Ni 8.893879430944507 2.848455396245758 9.34939651214235 -0.10297499560234523 -0.24973407826917635 1.40882440726238
Ni 6.728904199414778 9.352632009228868 1.0207100757043022 -1.1335842143022994 0.6218218137776259 -0.2837117207662017
Ni 0.16912538305175126 9.371133846016713 1.5519573132780453 -1.4956819284775726 -2.3003171474424255 0.5701482966627343
Ni 5.573980498014684 0.16054108862651612 4.625662810140132 0.5466707823660844 0.17467534946112498 0.6385643233432873
Ni 4.070683015488672 5.663142616002342 12.218224383146664 -0.22230606396521072 -0.2167059441696139 1.78487164163921
Ni 5.564432062647288 3.1014285003465076 3.4551566572543955 0.6696330197236339 -1.236808092690657 -1.1063238359244494
Ni 7.174882142650646 3.6713036682229956 5.057802495147343 0.8818354195959394 0.6096391556685049 -0.7756527156895738
Ni 3.2532551308718944 8.422659031990547 11.661751425184589 0.37341956694599565 1.8898027325266615 0.2864897977319711
Ni 0.957604866149617 7.338404909195686 9.115248794538099 0.3967551563481425 -0.40628700709797777 0.1977260606330014
Ni 5.9857811789228546 5.661413298594031 2.6594874905444486 0.6705997545122774 0.20834137425500246 0.7037723846095041
Ni 5.879641998636399 7.5668793500120275 7.919963196724238 -0.08566247246582666 -0.15532985505497762 0.3573943951623329
Ni 3.6480043702378993 3.029968642280487 1.908778716969509 -0.7302035822178391 0.7541837471825205 0.1860709928925763
Ni 8.639837125220339 5.561215160371613 3.463184966835453 -0.6528593998097207 -0.3182012699026391 0.2266813102147709
P 2.895016802594266 -0.1628877537547836 9.623074008375188 0.8570582126512594 -0.31923896713853406 -0.04666526526702286
Ni 0.33202150447141376 4.9050228805663005 10.93665235484187 -0.174023574809739 -1.4150559899943886 -0.30225657364792463
P 0.4631930191134446 7.112747582221917 -0.13634087205612244 0.3042121547123987 1.3079402327507925 0.29045495302730623
Ni 5.817619007072722 0.7764319051532977 8.26206029945042 0.8001561001475768 0.3499482232969328 0.3202715221681065
P 4.842553613542415 9.121052235001905 6.6116509006880255 -0.1999912025180943 -0.41254044420685726 0.15451327269095325
P 4.8321684116871255 4.584959698947413 0.8043780463678235 -0.6129633349457314 -1.0906462772881929 -0.5745276566773525
P 7.587445210803341 3.648599404184845 2.8563089146049 0.12369757286167728 0.18872257158281047 -0.610027392245859
Ni 7.199408698151318 4.32770049094757 10.338199751922769 -0.4111291656816274 -0.15457575049777247 -1.7391682260648242
Ni 5.3718363093506944 2.0725962112663954 0.667356604234882 0.31073658609447774 0.8045305750661886 0.07564185500503103
Ni 3.5162694328273543 6.708236067163832 9.769126020393573 0.33480056902221694 1.06160489575052 -0.4483409988452343
Ni 1.7757672457946567 5.721958002695764 7.403577861716008 -0.6891237814583939 0.43040575452305235 0.8007947621728402
Ni 7.851231197408747 7.366417991729244 1.6933141355588124 0.19466181988538087 -0.7001183327966846 0.026661568451586338
Ni 8.142453827411606 1.188003869888111 5.257414070574645 -1.6314559728878097 0.5912735086771237 -0.9079966513723393
Ni 2.174942050141071 4.770461531907763 0.2680562849152835 0.75577834536315 -0.9644030551865261 0.31990693973983614
Ni 7.703625588944507 8.322340027497654 12.948413782957395 0.02241333469819366 -2.0849101245898933 -1.2351451031659373
Ni 1.9762286040774406 6.653465051828556 11.76195886081243 -2.127758330103671 -1.7449879180703947 0.16314472311370612
Ni 4.605469775306201 0.9171602228276032 2.563212857409704 -0.45539404903727376 -0.8627892015977658 0.48816584415165604
Ni 7.215902295368222 5.17372719463943 12.280317105251 -1.1298813115294155 0.32306631130442426 1.401158148966374
Ni 1.062358733028339 0.567297927093779 8.881645904891517 -1.6652906620490673 -0.4995131508436752 0.7573333485550957
Ni 4.464242186960786 1.9366309543892826 10.086144301737075 0.3513103937517821 0.0018460520698032723 0.6547126509683757
Ni 1.2467355799327444 1.6981246131236523 11.37035679318144 0.048452953295064945 -1.5761273755188339 0.3048654720256814
Ni 7.123820792078361 0.6649253327172832 3.0727664589145625 1.1906202812806852 0.32216591097734193 0.4958123049533203
Ni 2.9154896893313693 1.2197452119955003 7.539205622776338 0.9091564760083954 0.2116436991553581 -0.21119838408782338
Ni 5.407510453951178 8.938748709506386 10.406006659398868 -0.046116077631772195 0.8875648658805488 -0.8377435714830476
Ni 2.3153700616202775 8.544455043006012 3.061771347263655 0.24811762571167587 1.1878861701789736 -1.1706425526071773
Ni 9.213431255265236 7.859756918179829 3.764159645384428 -0.691757619536815 -0.653407559003707 -0.029834566862929263
Ni 1.1157537323613027 8.960923021435539 6.612657809695122 -0.4490249122861364 -0.08980529098960663 0.6716575063528304
Ni 3.8854879969072167 2.6038964440510384 5.137217213291595 -0.02826979347897067 -1.8652453549022714 -0.9931906688421797
Ni 0.24797109998423678 4.6272535962076695 5.542916936762487 0.7616633433890173 1.9646470313310618 1.6648890557352747
Ni 2.814789491216216 4.350070048390563 5.926408877644712 -0.02922290142085935 0.8930469720410427 3.021717272436022
Ni 5.709192665052694 6.6975440509296496 10.950926661384775 1.618068238726994 -1.5778284173703407 -1.3028666748826272
Ni 1.2908703634663643 1.647537430227839 5.52034190665969 0.7678175359158712 1.9731147024824405 1.179185299970866
P 5.064250245806826 4.28772164763715 6.407930801805171 0.031302923878339634 -0.39470238758417187 -1.9367683026429223
Ni 3.184370654107498 9.52640051654788 5.256352306875564 -0.1686725949104708 -0.7747538580243882 -0.6844770267150019
P 0.6994865778888704 2.488357586883924 7.625192676812715 1.1483374613520738 -0.061076041375714166 -1.3189103586090511
Ni 3.108568907709857 8.010783971839007 7.560053194951909 -0.5393027720367873 1.8884624164486832 0.5490858195654801
P 6.897503349319699 7.582154987118777 3.759968375020629 -0.5271172857141889 0.20130914999856944 0.1789940314411369
P 2.023217691075316 5.2223898146130905 9.783318509768772 0.7273100627201281 -0.42054557389952085 -0.7824915929882781
P 2.533031619931963 1.4990020812214964 3.221253461412716 0.6940273894075982 -0.1578467079395604 1.8652836643393746
Ni 1.34139246452423 6.4915693312321965 2.2153727473549534 -1.5863464821436808 0.2089599816756079 -0.6833722236865972
Ni 3.9959225784981864 6.082901875950912 7.29968307509819 1.2918764944197105 -1.8405722776356237 -0.8493667575442727
Ni 4.514885154289126 4.56331533912726 10.353276424553508 -0.2520215887517724 -0.9412849811118241 -1.956301487579844
Ni 5.708876553268379 6.4486896974304155 0.3300030377545086 0.023724340200133337 2.0265039167368584 -0.43349802029513085
Ni 2.178158952416747 2.5092581542703947 9.559185957284052 0.20272608495075406 2.019511544579425 -1.4242168305580505
Ni 0.6772787953002029 8.658868914117182 11.15218480731214 -0.012485534061520432 0.27693917792905853 0.34204928016483027
Ni 0.38343708619024053 4.193966611371503 1.8341949306820227 -0.07093236534450365 -0.26357895457206865 0.5371304469758169
Ni 8.792751552179986 6.034248553382673 7.440931117735531 -0.8740807153511849 1.1116671025142337 0.49581179073268805
Ni 5.851935730481736 4.921125986755522 8.207588660569701 1.570720602680966 0.44527007322939444 1.7876057527409213
Ni 3.0271236362216523 6.864953132940679 0.38993690232008116 -0.28150648558476676 0.804391478385163 0.0033966843863747955
Ni 4.488954690569879 4.885684277290562 4.3099099056744326 -0.21382296619486402 0.5461159383038788 1.1806096911222184
Ni 2.3096800495026084 6.870568765814981 4.620478576877367 1.1937043195226473 -1.2588252203916965 -0.11252227297114814
Ni 8.054630535804575 3.8155343185194024 7.247919770416615 -0.045051898033315954 -0.8827908415306731 0.600351816829308
Ni 0.3357971808128932 0.7316881415646007 3.6937940919364625 1.2148153904696497 0.8906437619161888 -1.3569197479732888
Ni 2.5558009658080607 3.726651122694375 11.692450528144281 0.5544105742125033 0.37942412126886266 -0.7692511830386042
Ni -0.07868487181870173 5.065235770781455 13.325155807503956 0.2672962555226558 -0.15306908404525896 -0.579115533158351
Ni 4.304289624097421 -0.6120268148338024 0.6481667594458801 0.576617963547478 1.5184343916827396 -0.40854289301168994
Ni 7.081945278062051 4.63087958432187 0.8478517843760083 0.7774427177104611 -1.5048692514037953 1.1029407783848297
Ni 8.408536273156004 6.748754159988673 11.174147138397695 0.0012325868555204578 1.5488649402584551 -0.6799732253073774
Ni 5.431702302856693 3.4239554944019677 12.184682133609222 -0.08929184168829783 -0.2224924689444039 0.6327595437360521
Ni 6.917269633244804 5.8220352746477095 5.975518702819123 -0.8518352736894232 0.15725792531562596 -0.4186537561934467
Ni 8.954758841641397 0.8399592169140976 13.01558102894053 0.36053345501194684 0.8322524664614892 -0.27280870070045277
Ni 2.1660444331531474 4.189038986498359 3.958368498521571 -1.1990650696139284 -0.2928057126476699 -3.0202394023389147
Ni 4.551145035431135 7.615783702526635 2.865126573906203 0.4349972305484766 0.4546563995403008 -0.6621997033740401
Ni 1.7862826113258392 8.963498402737164 13.696959050290863 0.573501015185051 -0.36415999602094057 -0.9075389950096305
P 5.275980059459895 8.143997196711496 12.366534734941819 1.0498444127804822 0.9148740952184631 2.0942550561399025
Ni 8.407085877910324 1.0188654704687703 7.374635038640348 -0.5025354826097668 1.1676973539359243 1.588896502259044
P 1.1638120209825962 2.8727216243946407 13.194713209446931 -0.28226958900303645 0.40239075736736507 -0.45137824300966134
Ni 8.32591952858475 2.0849989500980466 1.4231194473966922 -1.2162649784319828 0.8846114396791797 0.06459048228687586
P 6.625702999241367 2.571346227672019 9.313744681314876 -0.4212431141871777 -0.8324476131914309 -0.3936392364269802
P 0.5951464455513841 7.217287608775955 5.681551478735978 -1.648102323195239 -1.9569339789575202 1.3385453592311591
P 7.398140739025791 6.307211079138633 9.287563187649262 0.10036558300395618 0.9341949070342622 -0.8976289349847703
Ni 3.958333168380971 3.370430331393109 8.110456806655138 0.17601360865657426 0.1811974668503589 -0.26072245895988005
