# total energy = -340896.80515268835 ev
CRYSTAL
PRIMVEC
8.98378344924250 0.00000000000000 0.00000000000000
0.00000000000000 8.98378344924250 0.00000000000000
0.00000000000000 0.00000000000000 13.14867517271924
PRIMCOORD
 96 1
Ni 6.21693073796917 1.9459413561062082 11.262287199807137 0.35480657983049857 -0.4564749408062784 0.5507066429983548
Ni 4.410606357455727 0.5063188373224242 5.946383206814566 0.1331018968947127 -1.0046508469629793 0.9845880147748335
Ni 2.532869883834576 1.5079639547743438 4.717665780522313 -0.34266634492353887 0.669529404266234 1.3083017298552693
Ni 3.315339437928823 4.480913445222858 4.81625471635994 0.9201533413395313 -0.6066096248135617 -0.111168330046415
Ni 4.9426619370520175 4.554077376065627 2.4484932931090877 0.17709090088115306 0.45532205814875776 0.39542923844786737
Ni 7.272803767915334 5.939511511001497 2.483389900791511 -0.147912479544984 0.3859264411637547 0.07393284273372427
Ni 4.892819907543706 4.4491198362773074 11.408513544741876 1.0579441590694814 0.20838585433969273 -0.4183354536220795
Ni 5.707936529992893 7.824309238262433 12.179643767609484 -0.26220007194667105 0.5509226156639028 0.9387992385754929
Ni 2.035401869776677 6.345857011486432 0.39960406952908883 -0.3503153768283644 1.014281170963892 -0.06065360912631489
Ni 2.735786596254227 1.4760355890799426 0.3669659849574063 0.4954217543831209 0.24508912329799726 -0.03284609999574343
Ni 0.47070622211444 -0.17836403277902116 4.378876533371299 0.17064334548359644 0.07972476682515302 0.9314839358610022
Ni 8.438296921160058 2.4632365798116993 1.4977395110498648 0.6258062523466705 0.010613513849788172 -0.4393585928409659
Ni 6.72690417832043 0.6018604738793705 4.828325327543676 -0.26109655446984714 -0.19481197230999997 0.14435381565944816
Ni 0.8171496526001835 7.19951406410697 2.426469548455226 -0.1256312995492804 -0.35299060966768236 0.0745067129593233
Ni 7.579096874270121 3.6254955710840022 3.71038513583345 0.4183033148325635 0.650092635697861 0.6512267493023043
Ni 7.658459615560031 3.7859010211328297 12.550331733970152 0.0025194239877440482 -0.5938700657597062 0.34146743951943126
Ni 8.012474578574542 8.772304998861841 7.0715283926966865 -0.7350056315921728 0.05280711649870261 -0.6654886585379571
Ni 6.8642572405325 0.8534144904726058 0.39356067853228976 -1.408584266227116 -0.6266215491591144 -0.5482720654149331
Ni 1.9007080074085971 6.349693086937053 9.307210234507167 0.1753957725669173 -0.10878800273969652 -0.6141429570761294
Ni 0.17752225228786603 4.857190223147534 1.247294991688835 -0.12721509909663253 -0.21021699401116054 0.34832071499583883
Ni 6.295799371179959 2.0012724771843784 6.939437132338079 1.0342866675515414 -0.28768407515038846 0.39834744053592686
Ni 3.426217290883325 4.236617427122731 0.2558419763416702 0.09159529301049388 0.08727661103048194 0.9076955751921529
Ni 5.943419456718173 5.406665358478615 4.623323479030139 -0.38890634972768506 0.9263257886988304 0.5838147384062332
Ni 5.263374015533849 2.8521804921283582 9.200114554303745 0.5220200736969397 0.09525165881615853 -0.011086596831464778
P 0.2671813075683087 5.67837089929501 12.365789553445481 -0.13320371257989963 -0.38885081389940124 -0.21820823974675324
P 4.100270548635413 6.205799830514088 12.480879902369061 -0.03244835033669251 0.043147739032067624 0.9686284061217835
P 2.3677569313592244 8.531791153512795 1.4223314311495652 -0.009639837082609204 -1.0208547104163515 -0.3910807316711845
P 6.339038319994578 7.6895435056283 5.94356948589856 0.08238997236214197 -0.21082505990880465 -1.1144567494442288
P 4.744039473029081 0.9507897171922497 12.640280965449787 0.06311312641040098 -0.6601366501974244 -0.5300704548052418
P 4.062062518444561 6.135861077860482 8.086185621817647 -0.3147235957666838 -0.29243290268928346 1.0809527041495126
P 4.586365093090297 1.1361880522612866 3.90707608645619 0.668443627401223 -0.17721765626700448 -0.7840509670555981
P 0.23676670935266572 5.269878274611718 3.471486574713963 0.15760091047734148 0.7884632371906808 0.7885537400219581
Ni 1.3269497059345887 1.2590951909965435 2.524242756773143 0.3145549313993034 -1.5018204372751427 -1.0846692337691515
Ni 1.7742073553706503 6.437042411542192 4.751970356888118 -0.03386425684761265 0.3773168451178728 -0.24288594499909139
Ni 6.0023171397492625 5.530255264741382 9.226871854355574 -0.30360537436633517 0.28194563000471445 -0.2239770239097304
Ni 8.612591300123782 2.490673053877738 10.276360109541185 0.3816152153829105 -0.6616111778604219 0.050477954144893714
Ni 2.347920737928375 5.143126076642583 7.043376809483412 0.13226063194033996 0.5216336368917983 0.09369331319010316
Ni 0.45653250727030475 9.33720529004472 9.19460569841072 0.49456994790578696 -1.241957240991764 0.6672341804741541
Ni 1.5197506784071673 1.013900794570744 11.402399181857348 0.22318486702573823 1.7929029965841186 -1.87343611824318
Ni 4.095581013775403 6.889025530971291 1.6450178570039655 0.3217072261733685 0.23758818693526174 -0.5120105119797376
Ni 5.428801400423185 7.920516573158704 7.933910495616155 0.2936883723629394 -0.08388969683612003 0.721057654052513
Ni 5.146656703462476 2.9384966816589735 5.020847802735297 0.08149522846201449 -0.228389036934497 -1.034062210245561
Ni 0.8323816571119609 7.319492489500535 7.00720540295686 0.08497830191460849 -0.3408416330099743 -0.18638723858141448
Ni 5.1113863703965725 4.519840178074248 6.961171599171075 0.35810119142137037 1.1176215203254558 0.36207483135713775
Ni 8.302758583165845 7.119001398560199 9.136698926672848 0.1682984994005037 0.02841583213853171 0.14578334901712314
Ni 4.483635531549646 0.229433247080201 10.27968680448115 0.4125910949391346 0.026498046290528557 -0.15851956563686895
Ni 8.129757868991089 6.875918191199729 4.678877397933077 -0.4913691815803022 0.004386301993153736 0.49589098071005566
Ni 7.245088796568337 6.094939945126098 7.215309351828943 0.07046750989294316 -0.08423936686605492 -1.497838569809259
Ni 2.3823196440183763 5.017451932664255 2.5035998196058395 -0.21100709401262369 0.7700119724640287 0.12952497817673175
Ni 2.475337735858508 5.196660441069407 11.46496045170053 -1.474658275038054 0.01146377766522542 -1.3164996922850294
Ni 1.160992277833105 3.1839336402327043 3.6675073351057517 -1.102249922965392 1.8883909397807992 1.0025389428262994
Ni 3.524005771632778 2.7678227673477087 2.80620328617709 0.3768026244856155 -0.4845169345451591 -0.13846830341294863
Ni 1.1746386446000705 3.224513389203332 8.157503385201158 -0.42835889929635257 0.5436623345570637 0.190527228891717
Ni 3.6627603040328984 2.8265946774132047 7.120677772515903 -1.346408821139636 -1.145250080676002 -0.31980460983401693
Ni 3.9249250670306517 6.873815985917656 6.057554829481563 0.7539762591574047 0.2806629066375489 -1.0883011740947837
Ni 0.6774293634999654 7.4790983828395134 11.168208123164387 -0.1009307114788068 -0.8580650566492191 0.6499463399279839
P 0.3624031214413156 5.392327240400881 8.018851267930167 -0.7134392182753068 0.6683078731543071 0.8383989456788592
P 8.451170682566945 1.7461330326933844 7.973396019786113 -0.6096723228992855 0.24107717392512676 -0.5722236911345243
P 1.8151374718882902 3.35018753318166 10.415052653836833 0.23529270603286573 -0.5749979114455516 -0.484038966467476
P 3.8575736439549835 6.229121731848546 3.7564315169157947 0.4182421225773248 0.2829632726359514 -0.28386418718366596
P 6.870626742861519 3.7992329554858104 10.397880152141603 -0.35285588386203104 1.4252943798929454 -0.43136400467126357
P 6.489579576027521 7.616388558568787 10.172169784842989 -0.9017583837721114 -0.19534599043659906 -0.7120587929880123
P 2.305238783675674 8.450155515058935 5.763537164568765 -0.5146389507415201 0.10050390835403336 -0.00934158911590004
P 6.810255719376325 3.9300907424032685 1.5384998340639524 0.2215301050311346 0.21141204276052622 0.12825511032537268
Ni 5.278116403858135 2.877487809562553 0.3211037714318244 0.3439747793223173 0.0011063456903013203 0.44286249222916635
Ni 1.4253490839454992 1.0270620370418462 7.0694773949791765 0.4141977773046221 0.18098740772208186 -0.732016724167178
Ni 6.870725564477342 0.6614597903828109 9.14244495444385 -0.9068576526718899 0.1450755243168211 -0.4780688649269702
Ni 2.7644628324096936 1.6907749602654438 9.241559441601995 -0.005998126564963863 -0.4350836196146958 -0.0875918282780556
Ni 6.233721428875989 1.9765401218786143 2.5721568663945606 -0.3487153793310962 -0.1965361540899583 0.44700068276725596
Ni 4.108248148167385 6.748555095969137 10.343733992074995 0.4229066179325297 0.6363565170586911 -0.656312648465644
Ni 8.091343211785333 7.305450836270272 0.15100751438396742 -0.6955818783789118 -0.36449423943190773 0.17670883495138598
Ni 7.615292537011466 3.8176766625118668 8.139147719251017 0.26579344572488417 -0.06632931935485352 0.4002001774739495
Ni 3.149507782792934 8.25265602394309 12.282164007000254 0.35567278448553585 0.07343456294106708 0.3658605236518151
Ni -5.390269954035091e-06 4.881293713625327 10.290073854682575 0.6091763570994735 -0.04299964348997756 -0.35164669404527826
Ni 8.767624447785089 2.1817387152454737 5.687840705225924 -0.48337510763123204 0.35466156961220213 -0.09098182779621106
Ni 3.6879777836345258 2.492963918608203 11.442082349258955 -0.6355633317334345 -0.2051246670899177 -0.3586115553988856
Ni 1.145324559833376 3.366475132226103 12.566451336267695 -0.5078378686592866 -0.1273930194353935 -0.6876435973684415
Ni 2.878332285188685 8.324014214351257 8.051077895228689 1.1863234536775438 0.011265288501174147 -0.17210656029268423
Ni 5.539912831742362 7.762051620293328 3.470790331511567 0.024368401542035453 -0.023817157024255756 1.4142077830614805
Ni 2.861532610498609 8.53180912107931 3.507514240708408 0.8962981319884887 -1.5469960053705163 0.5437134995099733
Ni 3.5049062484289806 4.311506244350792 9.25259062906293 -0.6921538265339693 0.48205356060633103 0.053684119787017225
Ni 7.041552203103971 5.799867584058961 11.456190482485317 0.649926799543958 1.1997471832826176 -0.9684085768014935
Ni 0.8088189903862222 8.913242590593347 0.016881427117712233 -0.9618286095911306 -0.5689406495078783 1.9222120020953024
Ni 4.434718831716777 0.4507586297712075 1.8294010245649925 0.6159391297446037 -0.32593000600546446 -0.9698959599802973
Ni 5.977890233074227 5.577168580908001 0.341001952967145 -0.44370529984543583 0.5585791037678961 0.6430969211063182
Ni 7.8698839707238 9.051161631150592 11.177333850196568 0.3737666658727692 -0.22169902650883108 0.798532962721857
Ni 0.09028073308180808 4.714114491000929 5.964239374415633 -0.5927858315565919 0.05640923202766414 -0.9375715368159788
Ni 8.148291413849714 8.870587587690416 2.1099681691858216 0.17412101961955173 -0.15734020061678708 0.8591809154212171
P 8.26889870407125 1.4856751885144086 3.5787403695027016 0.5888823827371278 0.6755462998842753 -0.1236392088199161
P 1.8776286682220702 3.1550148419293063 1.4297340685531068 -0.7283351615505328 0.11845200819202181 0.7436900467400482
P 4.669959196294125 1.099013157144958 8.140344359180814 -0.23040581025420964 -0.9046256780175777 0.18659704059937543
P 8.533596893947397 1.6878731982735216 12.452268349453043 0.3737826067123692 0.015483183237263656 0.07365079271693122
P 6.329668234057814 7.842312739908911 1.4794889553638277 -0.17788280065482914 -0.6879816974341506 -0.864483301470737
P 1.8501113401067213 3.3641752837123815 5.875038492081283 -0.38535205671752343 -1.7590747351807638 0.27935961444509305
P 6.931132523095562 3.9294259424422706 5.975744007254195 0.466889451271383 0.2134573553253291 -0.6956456417373116
P 2.315174847957612 8.381618232593379 10.148975453230777 0.7647316979016958 0.43049214358927157 -0.013474894557983244
