# total energy = -340871.6627510202 ev
CRYSTAL
PRIMVEC
9.23375078819587 0.00000000000000 0.00000000000000

0.00000000000000 9.23375078819587 0.00000000000000

0.00000000000000 0.00000000000000 13.51452764035742

PRIMCOORD
 96 1
Ni 7.367775886761861 5.159949160671827 10.916683939113545 -0.975199888691714 0.3015371789833968 -0.32521266822346573
Ni 8.192922316335844 2.093097373709193 6.505244770750508 0.3396591826660989 0.946481437711099 -0.919952538182635
Ni 5.116550532407042 8.288159221000312 10.668976572854056 1.396443259989208 0.5770563366364772 -0.317399342826634
Ni 0.3811775390501627 6.630682503811919 10.75036100472643 -1.1394830962852376 -1.6232819217174497 -0.7914032936556112
Ni 6.276485060916411 1.0715490668603211 11.054045214446939 0.3340996863004504 0.9357457964611496 0.7585008865006357
Ni 5.847226458624212 7.723773911042823 8.261808866643031 -0.5177715828332309 -0.47159559849780075 0.3907901970139593
Ni 3.27091767731407 7.289372109613715 2.7144059865738974 -0.6917527344408086 0.279043625866571 0.5285622456908317
Ni 1.8430474048984742 5.472862504211621 7.355579025469317 0.2996754431843097 1.224693311704994 -0.37567082487401754
Ni 5.453988717791788 6.516414838965809 3.814840072357176 -0.10305264291781606 -1.1601123424998148 2.287471916048641
Ni 5.154122663983512 3.7618300329943453 1.4402157970943228 -1.418753236340318 -0.5612455948564657 0.057694012277358694
Ni 7.905512592214632 5.830051682332192 4.5622207769560115 0.9242416524762921 0.29116843415456306 -0.14653616802274763
Ni 4.224034657765 5.857577493152899 7.283587164803525 1.0549778773523055 -0.548301890211604 -0.5158234579679245
Ni 5.0950912957927095 2.521728080954155 6.370248258970014 0.9993255780953241 1.607949148015121 0.9478454079381612
Ni 3.452767163494214 8.928833779196873 0.28730168923808536 -1.561913545912297 -0.7650713406293018 -0.4826202317430785
Ni 5.581663788646508 3.9719994325549357 9.081735456949337 0.8649329874136458 2.164234056432202 -2.031564361978901
Ni 0.3412415672958658 4.391110142833728 10.153275290058962 0.12417451249809583 0.2434994102133742 -0.8305521959409309
Ni 1.1093797434562411 7.657983437343548 12.61914933643634 0.6537888536025257 1.5898655510405328 1.8814816142554758
Ni 2.3013553868759935 5.952518917795137 0.9548002932025632 -1.2081426064351644 2.18759150021122 -0.6702205167959877
Ni 4.025148901553255 2.0848608680895784 4.237318331514303 0.4838011394250571 -0.12565212548488683 -2.1683820171623043
Ni 7.902696298252768 5.307522964273485 8.529720602797452 0.651909891412258 0.36410677418550197 1.5479342009140695
Ni 1.0909214758176655 7.51407543276766 5.636503957397014 -0.22599148323659787 -2.4531879994339496 2.1949677380706327
Ni 1.7459083475909127 2.949980204420637 11.514228571190538 0.46053188448447135 -0.8428179006821614 -0.36261476302100776
Ni 7.950721035615565 6.9897461333235 6.9669553898590015 0.7142637710591312 0.2149038579638686 -0.9220623854367862
Ni 8.865010094395556 5.949444078813824 1.0005341370180214 -0.3960036228940987 0.6514743465367361 1.107250461503777
P 3.460782059097157 9.095696887999624 9.401745861273028 0.022339544037464753 -0.06425469621401193 0.5317064477467682
P 4.416087438462717 0.5362786962180877 5.76595929538566 1.4723285984636125 -0.47421272440567364 0.08815438564974495
P 0.7822224160949023 7.199860130379922 8.257106117414253 0.5757108783521763 -0.5797107435401887 -0.2966999054957535
P 8.538901721113128 3.016029223139362 0.8469796330914479 -0.6840728492980477 0.07593701764794664 -0.4386607954429929
P 0.4885595960032828 0.3952470049835782 6.205303000186538 1.1282293777482892 0.05000744226637839 -1.6021834491759375
P 5.491089928082832 6.242985013396273 9.982032613301746 0.37303724390591236 -0.29215650909944524 -0.4445144260102925
P 8.067481813149227 6.466358676450192 12.500059806977491 0.2581696106310392 1.2313822936893957 0.11274364495333486
P 6.136473699133658 3.3434580227711233 11.208286709425192 0.6208260255232598 -1.7472944547163842 1.04422141016675
Ni 3.2810471018260845 4.774495471674979 2.626886650740007 0.16146579274938644 0.1273292560769936 2.082640611829426
Ni 9.283889960906983 0.7936076307013874 8.229387321204028 -1.6352167254818228 -1.1295041306956548 0.31990771107078453
Ni 4.49709513330675 4.747403647136919 11.355473618872747 -0.4515577060103191 0.4899599599376013 0.11668617454085066
Ni 6.456709406974298 2.3765735200344915 13.445305938336315 -1.36809890451856 0.5298244002327068 -0.6064625577127362
Ni 8.996110886757986 1.107514525815925 3.985704165335913 -0.09519766564977153 0.09903606555925526 0.6898802000084442
Ni 3.362821197977773 6.941970707229458 9.256208099699537 -0.37288734859160944 -0.6081114061700689 0.38046233272538993
Ni 8.978252812914562 4.734725707433185 6.348530477336231 -1.038924680544185 0.492016585356314 -0.2735579201616515
Ni 6.938683491982167 5.151694187550823 2.259115594323385 -0.07442083811373634 0.08736582831017857 0.7783911976666594
Ni 7.4593746936526415 8.633566133234526 0.5154833662787 -1.1206448805328117 -1.513352606284458 0.5825515554230934
Ni 6.417890719054052 1.5712334857005004 4.58687119781041 0.6030072521742841 -0.3732994964283636 -0.23037624256785486
Ni 7.716553117999619 2.806727796144068 9.514308052365838 -1.488273037608011 -0.29844157077720856 -0.8671855308932485
Ni 1.6983729990149314 2.6007874544016207 3.7584707944916373 0.4533482222518386 -0.7412050755346654 -0.736029701981313
Ni 2.561174663921636 4.182630519650257 9.526444894278866 0.9622158177272202 0.17689215460678565 -0.6820159667690189
Ni 0.8477100227713935 8.01842289570863 3.477139648452703 -0.23489084260875676 -0.01439457815877521 -2.225179999987955
Ni 2.2160909329617327 1.4662365065518044 8.694260499925432 1.3325554601963117 1.3089391063289522 0.6006462081412752
Ni 8.541394833800679 3.461437655396476 3.8007853804248724 0.45980220540729844 0.6961855734011817 0.453732859284767
Ni 2.833911958189074 4.011012029239769 13.36071831834797 0.960483922637778 0.5654987137058648 0.09179326795391288
Ni 8.187982259714214 8.531348513044916 5.197484357245519 -1.5147834251937138 -0.30751139428896074 -0.8834176764813946
Ni 6.217832276504088 4.889834251601665 5.735025307183563 -1.2770103759411555 -1.6453502143713987 0.4407937826255957
Ni 2.3579398111327174 -0.029217433947964427 4.816766658979949 -0.4864146657885043 1.7733171040323912 -0.7910214848361602
Ni 0.729820880902848 5.280809723513906 12.723359600025853 0.9869850542521003 -2.0686188436290376 -1.4787725543167436
Ni 3.7864472123462427 7.696192697717948 5.5652147851590845 1.5814354179953087 -2.5184410550054883 -0.14659298940261206
Ni 6.883881181609508 4.752094392489794 13.528852914621375 1.6784634519855994 -1.8504977642794518 -0.5042522081905574
Ni 4.856001789056522 8.788831651164816 3.6056762282472326 -0.04718822765002841 1.5999406758883479 1.1939442034475953
P 0.40096084991341846 2.1182685781027684 9.805871117549499 1.979169907537585 1.3605684004694698 1.540091307830883
P 4.459615339237226 5.789820230555667 0.8562004565351105 -0.3978687011272954 -0.8090112365453616 0.20698331756521127
P 0.9273363485115099 0.7552146186881641 11.932976395067032 -0.6244587371798407 -0.2807338690848004 0.23746914485889425
P 5.429796290971843 -0.2726311061344491 13.020841499404774 1.092524725257828 0.12377444884619973 -1.191340447276161
P 3.408999185201643 3.6360571147827208 7.629234154555801 0.5811243360582637 -0.39483377095571354 -0.7348202550542442
P 6.899301545269549 0.0723113484398265 2.9383687629221336 0.4421824354430062 0.8924659027265921 -0.37607397384970714
P 2.408152947410143 5.5111086995888 11.191880181190966 -1.3819149844660459 0.034533257890179234 0.9409499663699085
P 0.3222274278654732 5.900043512597526 3.0466880455707592 -0.5300802249972548 -0.8439113908566562 0.3569557649630175
Ni 8.225803702559439 1.2474612513438146 13.071561568595335 2.460901051807491 -0.8606698412619178 -1.658288005478989
Ni 0.8599890644451191 3.421704826157461 7.8976463599978715 0.057572141987513745 -1.5984203825890795 0.09733039572205818
Ni 8.600500071997038 3.187740051056797 11.828630395342309 -1.0531215408698573 -0.2143785815880179 1.0260082295928332
Ni 3.4713916386452928 7.3366119781674675 11.752111226710936 -1.2274029973266734 -0.9340115873788625 1.1053380749724124
Ni 5.07851671329584 0.701468649394971 1.504775411826003 1.1729845704767927 1.1829018295905047 0.4417168086604973
Ni 7.704309164578532 7.314137028976726 2.9069749339354436 0.4662132511399648 1.50928537819362 -1.0803199556615202
Ni 4.178069046807107 2.2443369763366214 12.7340504365801 1.2709250889790242 -0.017943728962614258 -0.09781299178543154
Ni 2.5832063930790357 8.640131329978413 7.365552399594593 -0.8808766552270957 -0.02558453333732368 0.9588952379944196
Ni 3.112484982895521 0.6785578671714423 11.427803434813963 -0.5307499973707699 -0.8299904099001899 -0.35821560551204756
Ni 4.756951345355172 1.0542911868120481 8.174775226095678 -0.15791149973922483 -0.4810870829280037 0.530412668636009
Ni 5.731933847450999 6.389792415690278 12.717278251818367 -0.725886442899724 2.818680341113068 -1.015351006989303
Ni 1.2775909798604093 8.507488501249979 10.102528442991387 1.3618421249755706 2.1413782348799506 -0.7518242458114084
Ni 8.19528615651367 7.798428785408948 9.175986197039617 -0.18065162164921791 -0.5181742175882882 0.5736840777301346
Ni 4.303315641229138 2.593308116338967 10.125975706130275 -1.4820306562427252 -2.2985356300619704 1.192501814574114
Ni 2.0335489154794915 1.7509961442236568 0.11773401485687557 -0.626326900736831 -0.3395617378562862 0.7350830217973275
Ni 3.6544322786650443 4.198900388374204 5.323102148445473 -0.3543288688631317 0.04761220256132445 0.5115520842860803
Ni 2.5274253051327453 0.6099354021341226 2.5493942447854208 0.0950030331404622 -0.044226573918543184 -0.7325515136247256
Ni 2.674611291205229 1.7693066718511183 6.181436524766115 -1.282691999706965 1.8623091550920832 1.9399875809111686
Ni -0.07195492566301359 0.9116417424558386 1.6822074716738333 0.6377827079822564 -0.1940925776454722 0.18745527483461263
Ni 8.163752897891493 8.548754133104303 11.510350395898792 0.018258174879239523 -0.08971761637180677 0.35052337907411246
Ni 1.1341446628192526 3.808719019021703 1.6570833594088008 -0.7325713111190673 0.729223477692757 -0.13835620331511655
Ni 6.638078738118321 0.3378583210413515 6.885435221851415 -0.03913193300445519 -0.2995250336493745 -0.20651049169385077
Ni 6.930013000079905 2.3767304937963 2.315592907072052 0.5537716550769238 -1.069566573799758 -0.42337918669357405
Ni 5.522927900477933 7.3947015037874175 1.7918638014230424 0.32974269488333535 0.5020122631164452 -2.075442294308774
P 6.27762081225185 3.8358293110611514 3.820178103633745 -0.3498371516403653 -0.41197505862169054 0.43399707141873645
P 3.045641861617057 2.7044917084530677 2.0968194986142006 1.2960409102100456 -0.6944022562485137 -1.5793034592539705
P 6.001199251457254 6.921554884443619 6.126243626739072 -1.1496458957508522 1.4786249729952858 -0.4756764534353936
P 7.143017161103748 3.8287654917797553 7.350037851677467 -0.7856599634139307 -1.7446454471293116 0.11852168508769265
P 0.9991195264116032 3.316615509501819 5.472964998844332 -1.0224439092803426 0.18526803737530675 1.951381424570407
P 1.5926834885641377 8.216440679355081 1.327007243452888 -0.2934523450927333 -0.13280879113432612 -0.018596532055264747
P 7.105232653261301 0.34323975094618486 9.139523962296641 -1.2340613831834555 0.8728764106304386 -0.1883091381944757
P 2.511487851433805 5.893330575842526 4.80860402336589 0.42248367146249816 1.2809351649168585 -0.4784835838668856
