# total energy = -340871.16356566636 ev
CRYSTAL
PRIMVEC
9.19892957136881 0.00000000000000 0.00000000000000

0.00000000000000 9.19892957136881 0.00000000000000

0.00000000000000 0.00000000000000 13.46356326974840

PRIMCOORD
 96 1
Ni 6.708310340197102 3.0800868558181573 9.520517001795161 -0.18072592653057906 0.6184865787568058 0.013511661333189633
Ni 2.6357693487089806 4.403730060212405 8.358207387490825 0.35280780423291497 -1.1896016102081834 0.5538606152463041
Ni 7.031781506839347 5.8493050787871494 8.816103434842313 -0.010142230640324467 -0.31440657874689726 0.777764362715938
Ni 5.638502404040998 1.5054876482056436 7.472977817075536 -0.16422510066207846 -0.6012735573126291 -0.7501118911059921
Ni 2.5279578917346 7.982049350556706 7.569350404873497 0.7348994450316118 0.5877940347689555 0.2681308356088092
Ni 6.866679115220219 8.547010821677743 7.720976364370828 -1.0214589196592538 0.19677526668395787 -0.2453076670667065
Ni 2.944089878010202 8.541749033845889 10.17061824756472 1.0905244069983477 1.2549395121840452 -1.5760163038622665
Ni 4.5800459472284425 0.3700692653154043 2.325601674308744 0.21292050898525267 0.7356982867838233 1.8434501134040508
Ni 3.114030906691491 1.239123437612626 8.382334340507242 0.4517831917575639 -0.2585236515363483 -1.0595539267587621
Ni 0.7998469440206815 5.86190761258023 7.675967840762956 0.12314915655737502 0.8201603111836456 -0.8092457211536709
Ni 8.425906911177083 6.561458625253499 4.824695164192303 0.7080684408816967 -2.0308917613919086 -1.0539280959315527
Ni 4.905117727651707 4.28606654944796 2.7229926809517604 0.5194574551760861 1.835184273850833 -0.08825697266588026
Ni 4.98883718754282 8.848441352576762 0.34303821016871344 -0.9540996163779891 -0.9479909323770899 -1.5049602684557049
Ni 8.47767848795625 6.833572166956499 13.032123813618165 -1.4581235106078243 1.624296221914577 -1.8425299155826267
Ni 7.987927466683551 1.4371947935488347 8.317116688074542 -0.36424869908000496 0.2331422353487662 0.12632858272662115
Ni 5.643966568327925 2.2153138654386724 3.3664964542859934 0.29720744125979137 -0.5793567026348796 0.043663759436537705
Ni 7.783508849201923 5.044039965128421 0.7433452775507121 -0.11973061779412929 -2.1370721513054294 1.1230447482235562
Ni 1.4863354764120718 3.0410098021298326 1.6053006357398174 0.02835335433171246 -1.1243467548644313 -0.3286450909437824
Ni 2.667754027540032 0.5760066261030454 0.812627017158438 1.3937065777843352 -0.43349776318481476 -1.162615311427327
Ni 9.217787582011777 5.769191599368218 9.94577708608746 0.13943503820159212 -0.6582965116648921 1.6041295171587147
Ni 8.848772514048697 8.989516139621054 11.339363433140324 -0.10414561887167868 -0.5421363848308406 -0.3228027732303924
Ni 5.14658043534117 3.786895824084668 7.180993667163462 1.2477810467623929 3.011088589077582 0.41917157637012975
Ni 6.509530666668144 8.811213283773407 12.006173614954958 1.2206757059051687 0.036063578491776604 0.5249305624755153
Ni 5.2973968890182155 5.573843126645698 11.79112011475933 1.227602514931989 -2.114934181755809 -0.6241844004725314
P 0.33837159309336334 3.081926641773352 13.39662312695422 -1.25777235364715 0.8933894429821259 -1.5692861842272845
P 3.477848579331145 0.24789091981691225 12.224404425495207 -0.16860497489732898 0.06362811837360655 0.9376242444307852
P 1.3458494208734422 2.2281187756868244 8.900586405904832 -1.3785776925626967 1.939621970041634 2.6177961944670596
P 0.38503684395388676 8.330596799768248 3.150352880911912 0.908003850461191 -0.5401854317520567 -0.29386115049537775
P 5.608247124007828 0.2549143027008661 4.299091314117757 -0.4015749463342891 -0.8635286508669515 0.9707480235679475
P 0.7700424115465354 8.275669990075926 13.243716676432072 1.3750180002358965 -1.1155450974124013 -0.4379167181881167
P 1.3856071953651892 0.6123975922967869 6.422348729609355 1.2813470556432967 -1.281917840545102 -0.00721631524278112
P 3.0107821188859916 5.290976036034588 11.933631774634627 -0.663431261788296 -0.028509420293602514 0.8866696077597892
Ni 3.5532890024238837 0.9126184639302656 4.632825726711054 -0.8086749362518653 1.361953196632138 0.24607231314687297
Ni 7.0883549249615685 1.5538372231081474 5.262637812966731 1.3079201781461345 -0.24361073898025787 -0.019633457960211348
Ni 4.5520995985690424 6.500304140102844 7.894158176012191 2.8056682451241164 1.1685373333387166 -0.07712049643308654
Ni 3.114242482076338 2.725238139710075 12.996148639050297 -1.444942493141176 -0.9491911233327781 -0.9046382764230678
Ni 7.8470826528836595 4.247569028335521 11.48339659600057 -1.5261978376782426 0.6978408496164176 0.3344858659952756
Ni 1.5362856650955945 0.9263782230891631 2.7453010055514677 1.3160080973605917 0.2208467058108648 4.0629783144228675
Ni 8.362866645422354 7.8080515938442145 9.295607768237558 0.6361050631695173 0.26574022388944557 -0.06311158374850422
Ni 0.9998500752098437 1.243069778486518 12.494738894179534 1.241674676754339 0.9241632338298729 -1.261773504386743
Ni 8.968708160467807 4.371570601715611 2.864049990029478 -0.5527015619411965 0.5095803052716902 -0.1883099095254241
Ni 9.120748071805057 8.948258939575824 5.185559060480893 -1.0812501807852732 0.2571671375084538 0.191832835077018
Ni 4.49566416439346 7.670242426870392 11.674310264678095 -0.8640320728659314 -0.10315625837521589 0.8380449047735503
Ni 5.9859551806092 6.527965321939189 0.33310060633173194 -0.8227774370915185 0.850051185205807 0.6207128969841633
Ni 8.972360135588868 3.916481147838772 8.501001454510247 -0.5680993845535055 -1.243590405719813 -0.4797447099674964
Ni 8.893092957709326 3.925247727915272 5.2586252397984525 -0.6109864137250187 -0.30996885469051777 1.4473284768748493
Ni 5.75334184336422 7.258259157923753 3.6252264730579324 -1.3446365597305614 -0.5917964710601292 -2.2954971003459628
Ni 0.3800997783431232 0.5692040175337149 1.0604673428615825 -3.9863309009714576 0.21147169235386806 0.4707167954372732
Ni 7.913673705531914 7.289783890266007 1.8005359616260936 -0.035552443183312965 -0.21769401911449607 0.8440718276939205
Ni 4.940791177322923 2.5036451203367087 1.0370459477589826 0.4861398148605628 -0.2977363171800679 -0.5205566017775357
Ni 1.6752171015020851 2.843987124188085 4.22555322970269 2.0187582113531684 -0.2129585613120397 1.9686741502125835
Ni 2.954512265446377 8.081370195347866 2.9343160151232324 -1.0276707048969205 -0.42981491501658875 0.005261248398939326
Ni 3.477232251036155 6.130635948125672 4.275556772178914 0.8722428908114979 0.30340457120943876 -1.3428725258516034
Ni 3.398866568274658 4.49892978446393 0.7879775649307461 0.41480532898163397 2.2214796683182323 -0.7273303744351022
Ni 1.663157304565787 7.258498330097928 11.577130010845803 -0.583418274298763 -1.437708694396898 -0.06052659663014737
Ni 3.9052032599334314 3.9233067537325423 5.035358935098837 -0.06869833380766233 -0.9691675664547049 -0.07604191865692711
P 7.397034212524053 6.522114802601671 11.183603474601673 -0.3104288250460718 0.35446076645530566 -0.6609524612305004
P 9.01226509295703 2.311424283738018 3.8279874433939307 -3.530768187566803 -2.079663017258341 -1.4344534206843942
P 5.295915861324285 4.6466645966660245 9.218932848768883 -1.8320192458592899 0.6069675223736127 0.7726743497875402
P 7.191585314907515 1.2020241538261351 10.579022212935529 0.12148848102550046 -0.48215563340183415 0.43761152824287214
P 1.5782787795229023 4.889847504223595 5.0690316175437795 0.832443756536689 1.3894061506367685 -0.04238155029000443
P 6.787089974798517 0.5061361549896575 0.8743996703900387 1.2426177573938986 0.4892490499135058 0.5667259012447465
P 5.234172644667967 5.897065922183991 5.832698250862589 -0.22889451581600578 -0.15838998203754012 -0.7999383277098159
P 6.938421568543017 5.542934722598434 3.0636612468101836 0.9383225560493904 -0.9632787117740959 -0.6464306134652414
Ni 7.206082828234446 5.161859857699058 6.6239929498705505 0.5706244649682043 1.2201121200922147 -0.4934350629703954
Ni 4.025313686018285 3.619604087178859 10.882719360131349 1.1331777228925 1.1245035921572697 -0.8972579247985967
Ni 1.0212375869389765 6.356000528707186 3.3370387214644013 1.0292002541675696 -7.173377819987646e-05 0.40257022036802276
Ni 8.006730079145637 2.3833323177967833 1.678610586696441 -0.35251341292094773 0.04895431841151569 0.7217839906955762
Ni 0.5901600994563545 5.092380341101149 12.421456540012237 1.5913501060058592 -1.0778354986767695 0.12048472235133445
Ni 3.546426600811009 6.124941810594346 9.82025584950838 -0.5304736037809316 -0.5769817746447998 2.3616168747931714
Ni 2.8646847161840197 1.6197015603041 10.81930653772069 -1.2950080980701568 0.949556477091997 -1.0706605781948852
Ni 2.9508602903253163 7.189101603868003 0.0899416159915792 0.19558793124407606 -0.15602405290852484 0.666614030391652
Ni 4.15585569846909 7.95859207962798 5.50029676319383 0.5846616597875608 0.3527674379132828 0.8832011895952144
Ni 7.627053451572208 -0.034915457857675664 3.1930589123968574 -1.1315985513308382 1.7764993584151145 -0.39293552549173616
Ni 6.849799079081311 7.935705142345364 5.398444372928324 -1.2593247857359344 1.655166429130872 1.6664381453899493
Ni 1.5098939355683338 2.734050714435455 6.861974782532787 0.6809996096893627 0.5693713092873937 -0.9453396107971719
Ni 1.6362688328306239 7.2671085283682375 5.506557554799357 -0.899594029130941 0.5386329996632724 -0.20723862810912694
Ni 5.989294392117878 7.800582062866125 9.920424835624882 -0.3846174925443441 -0.2392365211719622 -0.5645294078140599
Ni 5.1495240928694805 1.7559837049351108 12.005877409416172 0.6974628974517085 0.46883654769542477 0.9851109771578387
Ni 2.4813929092086346 4.521016414856036 2.910445712247565 0.6064936680609878 1.6229016555598954 0.11620177870526438
Ni 5.1566072687969795 1.1491487054738536 9.767438354413684 -0.006424158358788937 0.12630544279816958 0.9196938852046097
Ni 3.035012099915899 5.690494755134786 6.553308373471989 -0.7711941656975879 -0.6440873100440456 -1.0208282280537904
Ni 0.6717030925624722 0.24763794924807306 8.475205815632469 1.3701722421078208 -1.0158420876931085 0.33357003904922555
Ni 7.6559840857176376 1.9943003786411924 12.778349258316542 -0.33051711115551463 -0.4365344931286094 -0.3656000709015768
Ni 6.430594650260535 3.9211450052351893 4.708248671837218 0.109476801276605 1.1173019322025082 -0.05463079997100269
Ni 9.008530327467986 2.447568444422389 10.629699117071354 0.3367075562369427 -1.2635313676181144 -0.6416072239346692
Ni 1.619673963514772 3.943056855961552 10.52635282061023 0.40579824038701734 0.1112539477816858 0.008352999950385614
Ni 0.8500096279820292 6.085919950484677 1.1257438684448506 0.8109714455955259 -0.25865889156263194 -0.40926228767621775
P 7.274467672189014 3.0324823942275074 6.87098145467644 0.5837257782368527 -0.30466826841321076 0.5212315163573734
P 3.351151719526696 2.378696057189694 2.800811947284565 1.082598981503684 -0.14227816407734203 -0.22284779540129365
P 3.9769733100455573 6.435460884112024 1.9061985486048074 0.26561603960675545 -0.5959017514777544 0.4582909109690945
P 8.413966700327874 7.209771599074609 6.905071768533212 0.10814805516285245 -0.022850936456244517 0.5669609000736882
P 4.670995765923468 8.837310647547838 8.382239591530551 -0.05602150967094223 -1.9492633497861398 -1.097726838284058
P 6.252300993342665 3.806241173403535 13.165036390272238 -0.46693316002512486 0.22931283430034705 -0.22335044606932505
P 3.783299042542263 2.422869317973907 6.637590807865391 -1.5869679177777636 -1.475680031434349 -1.2299836135696558
P 1.5763378053401726 7.140172496389614 9.374666130411185 -1.1635805035540734 0.017277556133525083 -1.1351515587894192
