# total energy = -340865.1001535456 ev
CRYSTAL
PRIMVEC
9.28652517632398 0.00000000000000 0.00000000000000
0.00000000000000 9.28652517632398 0.00000000000000
0.00000000000000 0.00000000000000 13.59176829190067
PRIMCOORD
 96 1
Ni 1.6209629402244248 4.137007593388014 5.669833053409769 -0.8198486934804977 0.04055195328043339 0.9335978968802114
Ni 8.364976699233766 5.586615574156574 7.00294064929486 -0.6587996765535558 0.9796759221851965 0.051901316854981575
Ni 0.43347455703928756 0.9835080040695969 6.396626217450859 -0.07090125499625208 -0.41422888765287375 0.6372815999761218
Ni 0.079572518187379 5.952801828289656 12.941415226801483 -0.3187095769976253 0.16188693944720506 -0.6473184153868335
Ni 7.264161311257466 9.225326808641338 4.6338004638923955 -0.8094418963248771 0.13772036950333058 0.34111108462127704
Ni 6.475038848664681 7.131456868886758 12.164510116509813 -0.5085240960930338 0.24998681770993073 -1.7183489753266277
Ni 1.2779837120874513 8.026111401675534 1.9589813067018853 -0.6055475020976346 1.5735621858948188 0.4910243966463737
Ni 0.7557671220674442 7.138951094568575 8.21558530007538 0.8985491328061944 2.3879876514772165 -0.616867297985828
Ni 4.0947631911245885 7.394237667050783 8.061820876290515 -1.9568452758984558 0.9807174760758335 0.2769715738288907
Ni 5.774834863027778 3.9871323662766875 3.8339659947023677 -1.03244447213648 1.6341965117474244 0.31197405804600464
Ni 1.3924587058665776 5.934405222247923 10.547809691264266 0.1357413914000888 -0.6111864455509668 1.4310953028454385
Ni 1.8467833688548303 1.9048055771076071 4.695303261718339 0.8565010545962088 1.4602814374910913 0.10687664464959658
Ni 1.0567322537612016 1.5116698274000118 2.2647150689874804 0.544006862380676 -0.21752664029869634 -0.05758319773110728
Ni 8.963335365103031 3.936047192205221 10.65435584999118 1.196407063165791 0.09591834586587998 0.030447774966895953
Ni 5.8230226412966095 1.8906250534197087 3.0693070249393357 -0.3359189988973763 -2.7470879735870626 1.9485097594495664
Ni 6.526430478061427 0.48784716096374475 12.342671170144367 -0.40858248800037367 0.98089436797333 -1.8466174553884391
Ni 2.0550801247942965 8.947483266913613 4.75529792788291 0.584590183119677 -1.416296290159393 -0.879853099058588
Ni 3.987996013102473 3.5371259374173625 6.441668649699328 0.9992800695693693 0.05761893606504915 2.3221535265912268
Ni 5.516446591192748 7.264272749557567 0.6235279345996597 -1.4152966452502853 -0.2636447748129976 1.2090993139214792
Ni 3.7821044671401944 2.7600573842855427 2.2062433929242946 0.40543057263495336 -1.3937965663949803 -0.2321590454998905
Ni 4.662216301765742 5.917865921207878 10.892035171057374 -0.18176208110457728 -0.2909434626279505 -0.3300630543372316
Ni 3.30721943778324 1.2268613919159508 6.948791850623107 -0.4095237688677205 0.5521624016082748 -3.8901958111090806
Ni 8.36830127518679 8.2683782660959 6.735740393879316 -0.9898238092524759 -0.5298436835064165 -0.0719410091146761
Ni 2.9798137120854324 7.566799874757745 10.283286741008656 0.5382558188295118 0.6879950671705893 -0.23536366848011722
P 5.427230945436599 2.5995955186645867 8.248585895345396 1.5939235231599904 1.4081500069031747 -1.6673228619877478
P 4.860418605021026 5.432942158316793 5.241570094205221 -0.40607566241811993 0.22553074155009548 0.6337519895563085
P 9.246704389210784 0.7795480553090753 4.2362554721107895 0.27027205032152807 0.4990801770713146 -0.4913133886417022
P 7.780473528677103 1.329041026583893 0.34745068992854045 -1.0167453162336684 1.925757810465032 -2.325049874302415
P 2.2465032647934144 8.007909812658978 6.630730226388799 1.1539252398524964 0.45699250387264523 1.5936779828080876
P 5.674837561736821 8.86079355595976 10.25040872786875 -0.12004660637265133 0.6423011646779002 2.0127238322336307
P 8.783399656539363 6.0084373996152625 9.522202154721375 -2.7153772727473426 -1.1071774421739964 0.5524992161224034
P 5.367230707357022 4.279555752267675 1.658005031178118 -0.3518377270101618 0.6614581972223254 -0.04904816367690262
Ni 2.8959656777841647 5.83102762585389 6.680938752499468 1.4159093391336195 -0.7596406565320337 1.0194444603323862
Ni 5.8793732750478656 0.5236327850837953 1.173345934249773 -1.7724444716194507 -0.0781265691000977 -0.9657796238190787
Ni 3.29388398787111 0.3510872931218483 1.4060003166338948 -0.08383467522846852 0.03668964211154972 0.01969130778134028
Ni 4.417070614592758 7.730279861006447 5.566345876020637 -0.5430421844745617 -0.714845354594214 0.8286794043982503
Ni 4.200369553520647 1.206096721997063 10.788466272248167 0.7158280302224574 -1.7279759568934303 1.0316044927336878
Ni 7.842516802258537 5.111702685224595 3.251830888022859 -0.24362128050321916 0.662051350721634 0.5976400743250998
Ni 6.123060977794523 7.194605238944198 9.185588839477694 1.4767483247978632 -0.6439052759402265 1.648944616590876
Ni 7.023853903613883 5.415297760800743 10.80470840448794 1.389401779761394 0.5044488975823957 -1.0533112882831601
Ni 8.811788563490184 7.840325182356544 10.856098176579684 -0.1253659617030357 -0.3284154914314796 -0.20597107425061303
Ni 1.7538252535202759 2.1634631581678816 12.65615175159201 2.1117632402269955 1.8115738335207445 1.3470431122895252
Ni 0.20757983620881418 1.32403558960434 11.402514522119203 -1.6431904877159185 -1.8636996076817065 -1.5424536374154725
Ni 0.9244856370734102 4.881582595515278 8.322008876672182 0.06867570809984301 -2.810915866676301 -0.6575190100689192
Ni 1.843579517726916 2.5198614149420604 10.26484277368938 -1.1288220170269656 0.8307164894329371 0.6140642813193941
Ni 0.9981621405329262 6.516298879277213 5.63544597995599 -1.3045648885206567 0.20309400981313408 -0.9511919558128907
Ni 9.061131759966987 4.308631862069123 1.3423207573459723 1.288370281038665 0.21976504271091182 0.1690754867758443
Ni 1.8248207372098533 6.081197323056445 1.060352141209494 -2.201859322984143 -2.0536084862631343 -0.20882705564216938
Ni 3.0237946945254373 6.30414821545924 12.664986022832545 0.28784168377417524 0.7909407521968959 -1.0204551609850876
Ni 8.902220744022442 3.3547385862514636 6.639551496494322 -2.6387316590681458 -0.536053154751238 -1.1803901189122445
Ni 9.248710278612608 1.9189210951204467 8.774804977644045 0.20477988215598927 0.827275324961872 0.05716847879119187
Ni 5.0836295201240596 8.626968142772073 3.6105990659791933 -1.2516235604369348 1.256520740628236 -0.6026354706571622
Ni 4.468852278039859 8.413703095953087 12.567709673369063 -0.2637573891314619 0.41427465328914465 -0.9772464868080978
Ni 7.522707454017639 3.9135923747347956 8.55656142476803 -0.9263982938079787 -0.2387449262475243 0.8708372687132228
Ni 3.536726616841999 3.408163964625059 11.678033646637315 1.0444947184327946 0.7808311745667198 1.1736006067942368
Ni 5.915488570805716 6.426396030670436 7.157561290685503 1.2997155308481552 -0.21296730306278808 -3.397203749213375
P 6.1232188487196675 8.85433013455388 6.672579951339365 0.3399494602130081 -2.11941432901435 -1.691882553604983
P 1.4514188531452075 2.770040398669623 7.372840584778821 2.2962681741840325 -1.0533076887387345 0.3008121278919142
P 3.8047821612108224 1.1914425855337336 3.9842089682040283 0.4206749003885335 0.16039210006923343 -0.2713259455073392
P 1.6517570571524347 4.4717125277424605 12.46237354885075 -0.8693210891790125 -0.207382609886159 -0.793482287671827
P 7.680652671361306 2.186057273513433 10.860407124183604 -0.4856716169748926 -0.10516146173070276 -0.5192710501968929
P 0.5972303530807395 8.103347430170789 12.709607775498133 0.13997985496146859 -1.705149188806902 -0.36107390089644914
P 3.3590568203803914 7.443484109170578 1.1211092310772588 1.3605324050252117 0.8630614814225459 -0.5240365899063362
P 8.545618183698076 6.735776611326848 1.8258227532582647 1.1094762655105022 -0.26865636909497603 -0.14921242930333015
Ni 2.3026681680445025 -0.14710598535380728 11.978506592505624 -0.4322296951056685 0.4346732715501546 -0.34612859244052646
Ni 2.6861087856432793 0.9194133371137965 8.883471250030388 -1.8442307003238174 -1.7813710846851192 2.8142004509648433
Ni 9.123825090299013 2.9616028365438676 3.867361267285244 -2.0610587718935927 -0.8337611897965319 0.31968659619891393
Ni 0.9063193368518863 4.846813845883652 3.555267164021364 2.1003110325259957 1.887690571279665 -0.7345346054930253
Ni 7.802603317772232 8.260707596438923 13.61188375936134 1.3862598916983029 -0.6439885796826521 0.7181690196508084
Ni 7.183071374883707 5.612144231404795 0.5110040397248082 -0.9928181159941095 -0.3239240313190292 0.37337637241288596
Ni -0.10214991778791536 7.946423730578051 3.9466960504324065 -0.4531193940704841 -1.0745519428294914 -0.5845071364875676
Ni 5.97914769973862 3.4130765363545277 10.854889071023585 -1.0680059141808573 -0.4311570308667801 -0.06886468418219753
Ni 3.362455688533483 5.164617304722725 2.478662675394587 0.5080939505341507 1.269777605638142 1.6118014318816758
Ni 0.41482442886482346 0.6139674571034636 0.059021438343685784 0.8371522177559517 0.3903086293918504 1.6499774287307647
Ni 6.823738576206859 8.005142428206462 2.31262610881106 0.8126534612836391 -1.3409231154347163 1.0053262757634491
Ni 8.022099622871886 0.40986635316281356 2.09101154735698 3.1601264404762603 1.63143206162841 3.0232349946321286
Ni 3.2716984796259303 4.2840968629968055 0.31039095457733096 0.8072052936848743 -1.1340902074044403 0.03541206095070676
Ni 5.090882296155656 0.4602801114761698 8.280798064642196 -0.4660340452496232 -0.42011645678190224 1.461455917415167
Ni 3.3882072223819066 3.7454598394568626 4.367605939135266 0.7448557849133752 0.09175701539933875 -1.458248980442095
Ni 7.8803036725179085 3.7562786410917033 12.851152989676882 -0.04799709670456895 -1.1437076758895464 -0.6658619827169758
Ni 5.640170963880287 6.240414794326268 2.824750103451887 -1.1875974352939611 -1.2511139677903678 0.732864416879454
Ni 5.0430938384621875 4.893896527676478 8.662087923049018 -0.08343564001783695 -0.3060558927893568 0.04565790704843105
Ni 7.857523826672188 0.10285383638355564 9.164140681318184 -2.6133330164893827 -0.34984049407447493 0.3816658661151879
Ni 5.574765968245796 1.6144159400934694 5.596831680318367 -1.9651088014588287 0.027927065427571257 -1.3830622106966115
Ni 7.051388450263929 2.956105213738867 1.586689162375749 1.999365151538537 0.9271426281731711 0.26255282730039947
Ni 5.623362353614999 2.6780759415109725 13.41050825051067 -1.1722065546601876 0.32854764613396964 -1.153656302461826
Ni 7.0457793891588265 1.3627325393145389 7.24393711709407 2.6389494315059068 1.6344883319562302 1.0130172166498037
Ni 3.853192816079856 2.9746968368057782 9.496935377478394 -0.163216456891906 1.5433010730174324 -1.835586394385258
P 2.28031550234917 6.873161462301813 3.7546581424777297 -0.5146731464135652 -0.08919748220227865 -0.28133345034201224
P 1.8402828013489176 3.5518172199807254 1.8974655077409306 -1.6007361752064495 0.4308459273842644 0.22528083032281848
P 7.928064270636351 6.513085741624289 5.1066313139174815 0.31158479302738595 -0.057132997567566124 0.26280556674115385
P 0.6097634472321396 9.16067402153253 9.22928658290494 1.8073721367345712 -0.4233557896548063 0.3613281829991003
P 4.006439051769249 1.2286722642925978 13.028198731657922 -0.5512267771678829 0.28326691991929925 0.15889906046347474
P 2.8424381476354763 5.265403960639401 9.071132418748583 2.598517291632789 0.4152413880777881 0.13527962127232185
P 7.163746116341129 3.0300630989061395 5.016069122035106 1.6599908471027087 -0.7674727509819428 0.677863378053226
P 5.15897109751759 5.146174266055949 12.937174999482629 0.3115997054257214 0.3330010539196329 -1.1890580789998877
