# total energy = -340898.4474248759 ev
CRYSTAL
PRIMVEC
8.99510654189853 0.00000000000000 0.00000000000000
0.00000000000000 8.99510654189853 0.00000000000000
0.00000000000000 0.00000000000000 13.16524766337555
PRIMCOORD
 96 1
Ni 6.278071679183725 1.9919123838553592 11.352656564734064 0.759313355099602 0.20139631039573702 -0.5538297620083688
Ni 4.559961344840538 0.33045143179863784 6.040623352957583 0.07759357941476314 0.25880750132535424 -0.3929380965948975
Ni 2.5983084995560564 1.5702217868866482 4.737606604409539 1.2543257898594462 -0.06418373376676043 0.444131331639261
Ni 3.4478513415080596 4.178514854758303 4.7676763462313545 -0.23455917030095086 0.39453757987153343 -0.3191127259733149
Ni 4.890621463112079 4.475209450543627 2.5574545244427354 0.8785690901398416 0.3470796434998861 0.3884785181616471
Ni 7.054421338807777 6.145636724849888 2.565656262632071 0.7710884933576592 -0.6874278818132097 -0.3477021075752334
Ni 5.262137355518258 4.436629438376417 11.422405520748462 -0.5942277062094411 0.32015865073932603 0.13810037855056861
Ni 5.625071916236977 7.623703644715537 12.313073990032825 -0.263385864724656 0.5004552030419704 -0.20725251206619788
Ni 1.6729998747911807 6.409912956482582 0.42498460500219953 1.0938670982183354 0.6001589840922116 -0.6469965132710406
Ni 2.7634316712402422 1.7213755580355863 0.30181101241407354 -0.1957571098320887 -1.3553968835708592 1.3390001873803907
Ni 0.7147052946478079 0.08132835672851757 4.6175660074469285 -1.1146138438473836 -0.9222511044088247 1.0964178896646473
Ni 8.568306773117312 2.347174118652271 1.4646597134923156 -0.14641969704954136 0.3737720651894079 0.12825408188410817
Ni 6.80455526793327 0.7361955038034809 4.92792327063276 -0.3185452835056191 -0.2955202833653556 -0.9302480065713721
Ni 0.8429926053327068 7.43527415185503 2.491576162794283 -0.3749570866364445 -0.211493546730739 0.2640942036455904
Ni 7.540040158316092 3.8943504424537267 3.74032543328106 0.3118614437275403 -0.40145050494128276 0.03269003403385338
Ni 7.57403266612208 3.8619230831945073 12.640402320823195 0.13952605525350162 -0.6428063864490929 -0.5083688014620923
Ni 7.987456760134003 8.692403263641637 6.81212015257599 -0.062365963831731305 -0.35336959027365594 0.04221622835673375
Ni 6.789452483967603 0.6349169001676062 0.16273946843766893 -0.38773649778929997 -0.3314288243365066 1.2164670671404598
Ni 1.902572985197227 6.4619316578961925 9.272310589454248 0.21777680863628948 0.1020303723008888 -1.0115398607733288
Ni 0.09361657184197653 4.898977917134773 1.4574456380066307 -0.8864801174568024 -0.6543367556861956 -0.26211599687329695
Ni 6.279861705395262 2.066445837065315 6.950132072996018 0.4918821166609787 0.20822593172306075 0.47603820765018656
Ni 3.344632493380586 4.160542631790226 0.4832477094110249 -0.10041006308864642 0.8869359740472983 -0.9586288717069104
Ni 5.953852057231076 5.673951325450457 4.591669995083166 -0.8647278133813752 0.13104012926967756 1.168955908933374
Ni 5.132319977202292 2.8328019332671768 9.18997478078758 0.8885454846262633 0.31361185075974374 0.4984895946751673
P 0.11425224587153968 5.400329178070098 12.388906336634468 1.177335648356637 0.6874597634924096 -0.3249735556294661
P 3.9180885287463982 6.131073647279658 12.658174852424962 -0.27304678485318784 -0.8090888838608323 -0.4961421774889132
P 2.351356843216914 8.51240218565655 1.3150306129104892 -0.20297573906771496 0.5506541924938645 0.08301834997476024
P 6.265649436982066 7.6936585886708615 5.727633222072675 -0.40069485772218094 -0.14290294214553453 -0.004034317970373697
P 4.6286209934468125 1.0638782417935229 12.596219256760683 1.19074215157053 -0.6510719688919948 -0.6742268097419033
P 3.9080949653242083 6.050855286704425 8.151539197985652 0.10010693002593082 1.0346242533966181 0.12854178832785604
P 4.632147075230339 1.0083064732766138 3.8416328212580244 0.12409455118977981 0.18326386246108436 -0.3991159432708352
P 0.1140111770149108 5.6129195272330366 3.4828270144644042 0.4788221981532269 0.21643700677894337 1.336403887408124
Ni 1.3800382482409685 1.1551785736884124 2.68835671261353 0.21396823352347666 0.6668906810918063 -1.6427135480795
Ni 1.7458242577489174 6.662999275516533 4.76988734343133 0.2921886478889613 -0.28551740651637275 -0.3075391622031026
Ni 5.934845397005075 5.593544067636821 9.218925531349521 0.001814941721551713 -0.20511284001537577 -0.5535955345103756
Ni 8.69986920211186 2.1844346502146026 10.05569532194283 -0.4085207815245029 0.595271316982607 0.14724682093652708
Ni 2.3529489770834555 5.275486093698752 6.707351447582951 -0.05158764226930471 -0.5014227091615623 1.1061790828164693
Ni 0.5442156423716527 8.968076295324659 9.072830608147152 0.1654674577096118 -0.1785338039752667 0.2597392691110043
Ni 1.4220903715521613 1.0125701538005722 11.49432769451516 -0.02638491775143198 -0.21079497800181762 -0.7681980591837415
Ni 4.042481857788213 6.780133553539711 1.7062026122385123 0.3612461648082553 0.516688377071381 -1.1315275888835867
Ni 5.677531377873528 7.718566038820315 7.897621731102727 -0.6747225184313993 0.07161396479256053 0.28405187771443985
Ni 5.304018571804228 2.820370695958927 4.880160154147176 0.24730104334765152 0.07675051468817749 -0.35701952832141737
Ni 0.9208020763629701 7.311654401980008 7.048963108128583 -0.16882660398983182 0.30786492097363755 -0.11148097619082736
Ni 5.0222018823198065 4.668064535846723 6.897588956868174 0.48111150840803596 -0.4817121181065124 -0.2779416510516439
Ni 8.182704543790207 6.96202360390883 9.017247145991677 0.07678393902927422 0.7061169735822806 0.7535062614995216
Ni 4.5245116297668675 0.26631902033942667 10.402310060774171 0.6020603148799826 0.016226746271507535 -0.01825508955544598
Ni 8.084424009180989 7.166167547983167 4.6724388561817465 0.3997404642287115 0.3566161222354116 -0.041200128387393564
Ni 7.351943484399438 6.122402364526292 6.9697477019382035 -0.6275893123890225 -0.8720901672837174 -0.7768601057341137
Ni 2.407117508972226 5.100045534755115 2.5158791417808457 -0.943004534906092 1.240636979518444 0.8912286878853811
Ni 2.312192149121313 5.240351207355753 11.398576583879226 -0.09487319243081725 -0.45429798775961755 1.0368436296454402
Ni 1.0659561114159584 3.4714455060952805 3.9377914102225127 -0.2187972794810038 -0.15420936829728926 -0.8041060859342603
Ni 3.659101419788993 2.5252592389335544 2.5178670603373745 -0.5851262581288051 -0.2039180483763262 0.4457359571222195
Ni 1.4135540153976542 3.462405423971698 8.269553197433392 -0.2996888129207484 0.13168110528778612 0.08580568291191029
Ni 3.661179289411429 2.6522701439932423 7.199231760789003 -0.1061860463404752 0.640269221849536 -0.9375196005321209
Ni 4.075242035991286 6.926924697992194 6.030947316798043 0.06958973527368015 -0.25397228472024 -0.735477943242901
Ni 0.7169945492751231 7.31010724364642 11.246886704377488 0.4038876536278657 -0.04456853063899421 0.36411937259099225
P 0.268295245257388 5.397270841829284 7.910944383474108 1.2225068455766364 0.7983100480777735 0.47349975749904905
P 8.363380254769591 1.5110789610532591 7.819933694011437 0.22814478213417483 0.8462788626475684 0.7795764762240122
P 1.838698733297167 3.070353703219111 10.510594053422828 -0.7382989576314639 0.648820968074289 -0.6970571773728577
P 3.783027003288096 6.122789154109688 3.797068364676069 1.0218528126635626 0.6538580162775642 0.9784914149587922
P 6.932420708119069 3.8655930866834844 10.17035144810029 0.542315333610866 -0.06295217535250448 0.12707111731960052
P 6.355312659477461 7.7131060091198025 10.100430685550009 -0.7247980949315517 -0.32158304189067843 0.13913601890393457
P 2.4193508539354824 8.61284154584752 5.929416850177631 -0.4542720196176886 -0.6447905067586573 -0.9039260808473917
P 6.905840168143758 3.921002943281762 1.6389282100471945 -0.6586847482422462 0.022192734046955327 -0.09962227708002842
Ni 5.28702681545453 2.8894980901079146 0.4755865771277858 0.4199696467913928 -0.2308938056342217 -0.19580673212310148
Ni 1.3915339944637932 1.2644061530184263 7.101624060152765 0.18515156640210048 -0.31316936390568645 -0.7820200526684983
Ni 6.790369984839848 0.6349303928274921 9.033347487278244 -0.24935072678782863 0.1571028877950004 0.6808144902617501
Ni 2.758916127731746 1.5139663902688512 9.171793871346601 -0.48102563356244904 0.2302893392810034 0.8062763541127016
Ni 6.277208148951025 1.887785029962232 2.5555322701643175 0.6904952078846237 0.2634601696060172 0.5019395008969807
Ni 4.098278503969889 6.8273038925009715 10.451245239648513 0.28083979853504537 -0.21885101553707473 -0.18618900652767936
Ni 8.076688217513047 7.127398638577553 0.2285656584678956 -0.05451484321842869 -0.19109441424909668 0.199012897765225
Ni 7.901229668356228 3.7239021676678883 8.040911980070137 -0.9539864878388925 -0.17913184257058185 0.16953340024886934
Ni 3.1306568978026914 8.297697986444813 12.454877347880803 0.10041983328065932 -0.20930322394763953 -0.1800651530181286
Ni 0.26300162502880253 4.815980068623035 10.182239380970465 -0.9502771573081052 -0.9365932320631095 -0.24860279287821055
Ni 8.521640160125125 2.483396012860765 5.734769040131022 0.36145056750957755 -0.6459737284334811 0.16017098519736284
Ni 3.705606120862548 2.5727084261991244 11.34866723496112 0.301827456530306 0.4852327296652611 -0.05746672675790102
Ni 1.1185235143315972 3.1663674709674905 12.677186010204256 -0.7994017384800556 1.4963144198552487 -0.35083653943915705
Ni 3.1272387572982523 8.43195894741655 7.992306022097011 0.36448678323274003 -0.8826522590702799 0.21676687931453636
Ni 5.498501771400229 7.980233689541728 3.483668956441287 0.22815480943650382 -0.2289171415238251 0.43928171685644346
Ni 2.9987976302906536 8.328299339066136 3.4055995268305543 0.4416065083348782 0.30207273977189264 0.847771645143011
Ni 3.425606442909433 4.412504562500349 9.44557793064559 0.20434536572173193 -0.2904706367565901 -0.2007962149178929
Ni 7.329734566227174 6.096784300956179 11.276166675840646 -0.22865668877358683 -0.8704323199653202 -0.15533911102635828
Ni 0.35218810687489405 9.077861571263293 0.45848148243504466 0.7384812488455992 0.12791598181839905 0.12704746317051668
Ni 4.618924268542114 0.382937878754961 1.5486803056234086 -0.41472228234952446 -0.9190418534429076 -0.33379886723058
Ni 5.907716155527737 5.424400083306623 0.4034476212922553 -0.39766918352197966 1.0431304910954164 0.037841753438121926
Ni 7.919066964725447 8.786627005178481 11.197951525503145 -0.05621999883499349 0.650316321672893 0.24842153010533988
Ni 0.11251349176757099 4.885764105553139 5.714059606227416 -0.1058929405800886 0.14789293916095822 -0.1320282042145597
Ni 7.877428616317423 8.762834948246265 2.5595611784062604 -0.5882007832890709 0.2160225449493441 -0.22251252354906195
P 8.360537801086952 1.6426413900478063 3.6461547628731004 0.054466249368680386 -0.019275046179528094 -0.17129537724529856
P 1.6921864371489936 3.3366808191544695 1.7285842364573167 0.1819808819836027 -2.568604820344073 -0.7783130361305564
P 4.748435813233998 1.0028644337892831 8.158767665641882 0.1807621790851532 -0.5985515303957756 0.16799382367589133
P 8.454725562197433 1.7229946772218996 12.42600575425686 -0.585641764312643 -0.6607825113115393 -0.7949169632358245
P 6.228013911006873 7.624252346217565 1.2735667695703234 -0.1456797335597233 0.9854565334227158 0.6326469294175879
P 1.869363051664623 3.1927771039175785 5.9982186214680375 -0.4699940583386357 0.44452291065072475 0.25409801166482693
P 6.950410921300328 4.059635526056543 5.926178611805004 -0.7972106443660076 0.4071812367774729 0.17135836927275006
P 2.4317191254975983 8.460230567430898 10.165651504906686 -0.5391572475978585 -0.2017050998854075 0.6767488048328086
