# total energy = -381169.2758654356 ev
CRYSTAL
PRIMVEC
9.23845218917578 0.00000000000000 0.00000000000000

0.00000000000000 9.23845218917578 0.00000000000000

0.00000000000000 0.00000000000000 13.52140861591538

PRIMCOORD
 96 1
Ni 5.886880130615344 3.560203733708362 6.834449665602679 0.5228333136268544 -0.22974040875606888 0.2700367943822704
Ni 6.48992931716313 6.722100851986532 3.2995620616494628 0.3054995060652545 0.4447342553305824 1.225645134095302
Ni 1.8777245881338311 8.506129060900317 6.323638106719146 0.2839230654460594 0.22035922465148497 0.03138828450329433
Ni 7.985080373460906 4.768547050616838 7.506680075395524 0.5269758750403182 -0.5198896576174982 -1.5939142671886097
Ni 2.5305967458050347 5.0217175866202 1.9112370724190524 0.7857196130072727 -1.941765498747198 0.6368311427022645
Ni 9.08272855964422 8.132636927286832 13.019344701613223 0.3187401731252446 0.9806156603906466 0.6268215809850624
Ni -0.03753675393501912 8.08601046052253 10.753805607877657 0.7167829379365591 1.2429293750970465 -2.424495259484947
Ni 4.857679634595835 3.295974770774769 12.27820929828728 0.7722938265196699 0.04502695833265148 2.0437094819818675
Ni -0.1325939571206636 5.826516085868374 4.0398179643540555 -0.8756940825848918 -0.2809477848678194 -0.7890630755582088
Ni 0.34302187154056574 0.5218792242656681 8.780613629293601 0.602961229427697 0.24614661802823415 -0.21061191545673408
Ni 7.000852661314712 8.815552530552946 11.536492796336514 -0.5814382677542567 0.41283097886408254 0.5861145901840036
Ni 0.8361861395952555 6.61884267504486 7.743548439167404 0.11682192878776654 0.05459249053389953 0.7523340955682914
Ni 8.376264142472378 3.6051395637740593 11.367137191395656 0.9758040979346163 1.1658639002716114 -1.7072068426668794
Ni 2.217755048947573 8.671349534768519 12.799338360258265 -0.2596989027913721 0.16712221970421537 0.986097252330508
Ni 2.8276222130012143 0.04036279637274458 8.524747313024372 -0.5955343408360066 0.6219665668856063 -0.844366476116204
Ni 3.1083140972294356 4.503920834251331 13.214350868268188 -1.4119603817882007 -0.6397555154379112 0.03122553367318493
Ni 4.0269857546580745 6.734979253942038 9.597441516767216 -1.5621907108330837 -0.7863999269037489 0.5054760532953295
Ni 4.701910097026403 1.884819719196836 10.362848180937856 -0.31503187103572194 -0.2083735130445185 -2.2575879840050153
Ni 8.529299098277944 3.943996741195871 5.070974240641844 -0.499958723021526 -1.926116222245715 0.6430915217896795
Ni 3.96236278358292 7.516644669620207 7.4772038707475765 0.8911566969968653 -0.13669835599671942 -1.5730546501307814
Ni 6.674384247897444 2.142572527345056 11.476930649214895 0.3375837881943089 -1.3430347624610806 0.9816605567153933
Ni 1.9636883831094294 2.390911353002128 9.573076023713089 0.807082394953765 -0.5357227679950128 0.6549720752773495
Ni 3.5500414366129127 0.815955777613787 5.159890644846265 -0.38334813891361724 1.3730745033562806 1.8277650985686265
Ni 7.1284633974778435 2.5023640367834945 3.2388913002992483 -0.503877598459958 -0.037073250703213566 0.6116284181843917
P 6.700935558672281 0.37231238330522276 2.942001638346071 0.4417342921619941 -0.43492164011553475 0.4017279269723856
Ni 1.503022217320797 2.849175521295473 12.071358512444975 0.36809224119581124 1.526267000353281 -0.9002586592981334
P 2.0544931268832234 1.6473175976242753 7.021829490210101 0.2030875820552309 -1.7981742722853868 1.5457215095334669
Ni 4.374979761013886 6.210401477874933 3.1350196901510867 -2.228001271486834 0.21702373252034882 -0.006246238020027953
P 1.7576893825327624 7.1533702638136 9.790486360082756 0.2863594428016939 -0.1806282246104502 0.03984438569044751
P 2.460412226683098 2.4709717772104605 3.3947661562203963 0.915681678721423 -0.4022588597751911 -1.7524366610389561
P 6.291080878360897 2.1345350741877462 0.22025300802082087 1.5946290338674471 1.6764325375985 -0.4416759281202329
Ni 5.489691367865651 1.8519954995785342 5.11786677482101 1.0188937300352388 1.1583956169190244 -0.8558672776669518
Ni 8.40511582777155 2.315229954996744 7.000222598894795 0.5055938098201164 0.32966119091312257 1.010732277270369
Ni 7.783700598836716 0.5462391742486512 0.6936931812584336 -0.48650568284041373 -0.444679233722931 0.07245214442313974
Ni 6.628367518958868 3.3728386906239876 9.385101242802989 -0.23291289294677953 0.07503918842402561 -0.26137243383905306
Ni 7.994993232354921 6.528638430644888 11.750022982906097 -0.8251209976230306 -2.095230789789611 0.90445084300261
Ni 5.194624452473321 0.4503237188810365 13.37540387648206 -0.7878667412572624 -0.08991456287396127 -0.09994777874024723
Ni 0.42659845054392376 5.818201479153916 1.3126149520241208 -0.5164806319359492 0.23189010810922 0.09227175025222818
Ni 1.2488446900597938 4.7058179621821985 10.06551230175767 -0.8266464331286216 0.9881150540914853 -0.026061215863426083
Ni 8.038229187270106 5.679070393465306 9.504630181239666 0.5222095639999265 -0.4867946748357423 1.2423526766579702
Ni 7.23202644333238 0.7704314581617444 9.211432204667707 -0.31218180318143657 0.36449269677001095 0.4091375891728954
Ni 1.2069390722189222 3.627376517509284 7.837589412643504 0.0924167604705247 -0.6784979263134314 -1.2058669230271104
Ni 3.3619373173761415 2.0776262104532286 1.195203466764059 0.28124526150358015 0.007590153642432089 -0.122369340968557
Ni 4.58869286893119 1.6643994951965355 7.513954432425484 -1.1762856098255678 -0.1710547219894022 1.282286022517798
Ni 3.1486861320540855 8.785435177342796 1.7067670356326552 -1.1726158742834645 2.4567515484154914 1.505056684824253
Ni 5.169421955676607 7.947239674458213 1.576771855032855 1.5864213012456743 0.29849145017853757 2.5494459880274354
Ni 3.3890429352652767 4.2305827577394535 10.819357967214449 -0.04479530193781963 -0.09736176318062588 -1.145432371890137
Ni 7.858347290228744 8.418881121109932 4.716496688739134 -0.7903997920917614 -1.3515165746798465 -2.127094471267427
Ni 3.482277391890074 1.4156541776556457 12.159315965341662 -1.8706863234121844 0.975895629207158 1.081177418565809
Ni 8.508429435424652 1.3254129794480538 4.832821732055175 -0.1277797133508509 1.1514364119923717 -0.7441361331385313
Ni 6.294683874603829 7.053299352779137 10.14493712047494 0.11637249995517378 1.1157201895376851 -0.08144046396467909
Ni 5.2884501700200355 3.5418561682251233 1.3939216433944317 -0.15999383618955024 -0.22856104373598699 0.8602350677173443
Ni 8.91564191849122 1.3245722803247029 11.078874395831326 0.17770745141922942 -0.669315488483215 -0.24990505662940185
Ni 2.006711853630801 0.30729585417891764 10.62295956585741 -0.9152348209919915 -0.6001206746551084 0.5143605002691528
Ni 3.314876643372305 3.185852424067716 6.215764399205758 1.254859036655097 1.207055801128889 -0.15308965287054926
Ni 4.621951295789025 5.494255163106699 6.078251890290897 1.7525595597700656 -1.0849975636428475 -0.20126055614882113
P 6.514152538057919 8.114012208246447 7.242552735432885 -2.5032041834510763 -1.004234071140535 -0.7732495055647199
Ni 8.821585239646883 9.038208459914246 6.625368717470519 0.23022788991544865 0.24491325984176532 0.9744491265686186
P 8.351514329819006 7.206103347287079 2.5743676070855166 1.2274508198454732 0.47274565294184395 -1.262765178876051
Ni 2.877075646048434 6.433796483388629 5.355004901388515 -0.6493516437667785 2.1454380067716214 0.18915991623054518
P 8.828116825143685 3.465010725279715 9.097486986562386 -0.8883421103662056 -0.34268100021155823 1.176218246922742
P 0.773740671634099 1.157596500594562 12.988002329680477 -0.43342834339946 -1.5907903768476472 1.0826324058447807
P 6.508212213483034 4.334201234305419 4.843327699561489 -0.8635836724746031 0.04270319529548129 -0.6367745784327163
Ni 5.436865899873124 8.319059648276902 5.250930969143636 -0.6209093292656855 -0.01925396313360555 -0.2496577165052862
Ni 1.5985293331142125 0.3437507853958666 4.010368551216634 -1.4303658808785817 0.0546901924540284 -1.2878010387987562
Ni 5.798431192077313 5.221776262621981 11.322665131615588 0.20107723649342144 -0.648966749623534 -0.5731523735963806
Ni 2.896587256471697 5.17683119410438 7.543499001617527 1.1896455760722415 0.5251609333187666 2.2388338433259634
Ni 4.999785501797839 8.856063142156172 9.277985088345806 1.518690473557604 1.0213301073908734 -1.5480077344644823
Ni 1.257685888532835 6.465059404634993 11.915781134675166 0.6176879941149104 -1.0480438692366336 0.7188976702867167
Ni 7.30557375894772 6.945994733903095 0.6009714587143614 -0.30485853004714597 -0.27430328296810824 0.1937681044265179
Ni 1.3111672866106145 3.0619001148589464 0.9780573501188741 0.8657022614795027 0.28529397765165704 -1.7299220248762077
Ni 0.4697022955968682 3.5616818860131545 2.975615745602246 -0.055527086533026945 0.7313076139152954 1.389670974262381
Ni 8.347541795499875 2.8949612889364253 1.210163291933751 -3.0358364854462234 1.2707368842276179 -2.161549310511187
Ni 0.11599800211860402 1.3442132290746354 2.262077445806781 0.8846739174859991 -0.7733739469577261 2.001900002145249
Ni 4.942423953919979 5.620618708262661 0.49678574120143176 0.4881486177604754 0.8074202379091578 0.4034909324100793
Ni 4.063052670895015 8.625877874492334 11.270823558750937 1.14149986960495 -0.2278655603308592 0.8081036371294277
Ni 2.3854514279263004 4.5721283246656075 4.150356041396831 0.3334767080044708 -0.6433193215297695 -0.49024483816787184
Ni 1.3512991216857353 2.5206931253629237 5.210556162783415 -1.6565283424754054 -0.29133427030846604 0.034458438788185816
Ni 3.8204416854190146 6.400408718204124 11.895702283304939 -0.6076720046398051 -0.044563131322355516 0.9599491331802307
Ni 1.7137235899170855 6.934160277012849 3.3764306007246336 0.7824527693305428 0.9245121325288593 -1.353105002212889
Ni 6.8360109639746165 6.244750042057552 5.921673988179783 0.744789450451814 0.47955007745818695 -0.22435446185380714
Ni 7.358380750036437 4.709633442818944 2.4252266587578895 -0.0201294237600234 0.7533399111249864 -0.17399786377812612
Ni 4.65015628945485 3.9193300746096438 3.8982220596972046 0.11760251570753294 -0.8339038860219833 -0.46616157196642294
Ni 5.712716835303149 5.554480631075094 8.355053580743794 -0.16168356518714735 -0.2697308331060774 -0.3286155232574276
Ni 8.016620448264419 7.800311335361823 8.514850159498595 1.1061312602976694 -0.20947523074912958 1.4897750760748343
Ni 6.592596233182885 0.8742254653139041 6.7928849466371 1.0559674949590845 0.11726338720055934 -0.14413424344947434
Ni 7.151781250085949 4.466200235123403 13.168175237956843 -2.8212113350650383 -0.3024689467690468 1.221807762627083
Ni 2.692860915063649 6.906546544268941 0.846941545303003 -0.18554263119293204 -1.0253047757679052 -1.7251354021208418
P 5.199373016752467 7.591873383482248 13.13760335291297 0.6434617606449047 -1.165413185887438 -2.8030452056789725
Ni 0.6563901601566097 8.504706339306955 1.6897701318179206 0.06611848889562806 -1.269595057313691 -0.1452678428332853
P 9.121567011452647 4.762375764744328 13.021940706598517 2.566243004980116 0.44646075110338596 -0.38977641103746424
Ni 4.658008973574061 1.078894128816258 2.901964959325571 0.18095963980793994 0.07865673057195487 0.28048987139479437
P 3.334674645804622 8.2953722575926 4.163849724249208 0.6818917824863289 -1.9881679972711372 -1.0735849509305317
P 4.205629699144172 3.51333706719453 8.87524955907238 0.5508241424128255 0.3806500232561638 -0.7678645871037227
P 0.19560481833840326 7.043728316605605 5.6698236269536375 0.7812101551726933 0.8359743953977667 1.2714920172260875
Ni 1.1976544280544432 4.91590959695276 6.0164854485447545 -1.3575607239913976 0.9986660901344543 -0.2782185588621144
