# total energy = -381160.31695077516 ev
CRYSTAL
PRIMVEC
9.33748840312089 0.00000000000000 0.00000000000000
0.00000000000000 9.33748840312089 0.00000000000000
0.00000000000000 0.00000000000000 13.66635812576970
PRIMCOORD
 96 1
Ni 8.320057058328208 3.925937693024357 6.915382250399882 -0.42890397316654516 -0.7594848476804598 0.23428740469680295
Ni 6.83924343560263 2.7061722356740843 1.893924655460398 -0.17569967696058128 -2.166839869486165 -2.1001814489266666
Ni 5.475549930854748 4.512826856322783 13.471065769655953 0.4941053495645426 2.1724155638017297 0.9967506182792962
Ni 5.120267831760961 2.6320605896253735 12.631364105819687 -1.2698999901486192 -3.1019004669548322 -0.851046973460173
Ni 4.54731020127149 7.280691878370034 0.7743962031710179 -1.1075070575992734 1.1999271605039077 -1.1496245555946136
Ni 8.575231943450945 5.460040362493037 12.276434963790363 -0.8357962179486896 -2.486036670532854 -2.1057478872708506
Ni 4.347870784873051 4.778758528172005 8.207810175587102 0.036873733097897786 -0.8572618440216332 0.20043600336499673
Ni 3.476402985235133 1.7801641658370329 4.147069962654541 -2.0597233409116207 -0.547499706025283 -3.2138185306830778
Ni 9.027791997506995 7.590369683737992 5.198259204272219 0.8961605779693599 0.09974389025955725 -1.285899193790353
Ni 6.6240236636766205 7.666554252228787 8.065160430362111 1.541802376984719 -0.20256153434843183 2.088590144544642
Ni 3.6471016120987434 7.146661568758948 8.601209770145177 0.45678758695069077 -1.6033407027088322 0.4072740536015954
Ni 2.112251943551836 1.2580584975979432 1.9586082393930218 -0.913990149951613 0.19974977593124954 -1.0217152586444338
Ni 7.6977508012332905 2.1932733310741566 12.730882124267785 0.6099075788385432 -2.0914949768962625 1.6769966376320862
Ni 7.809389813474487 5.244839265543983 8.848488875011043 -1.567034154968314 -0.1995749409162821 -0.40295254340810605
Ni 6.404405934677544 1.5390141884080293 10.336331759062748 -1.4821967495069441 0.133302442941293 2.453439710433439
Ni -0.16565825058326625 1.3272772996842594 10.9871229585082 1.4616209822381214 -2.5241545604504982 1.553985549314472
Ni 3.1357714055630947 4.7066637796345105 12.451992819657846 0.3188754131515283 0.3024584052460856 -1.212638437422989
Ni 1.7504522775005078 6.1613324346221034 1.890890905453944 -1.509747405431703 2.323530095223779 0.42727543642418675
Ni 2.6889912568748366 1.7967288703967421 11.588210706786048 -0.1811180197626752 -0.6349832908602484 2.358564975340725
Ni 5.3983289011429125 7.6407080841220925 10.237168565176809 1.5211253082513416 0.0828075195155348 0.15558310871636433
Ni 3.163260971641891 8.780199153028272 2.7417723442447426 0.5580381436627616 -1.3079757139744184 0.48573203789918284
Ni 4.789730077133481 0.2679401656208083 11.881163202792479 0.2738003751897607 -0.18457203974954664 -0.1676068726501178
Ni 0.4853729223160678 2.3455957806133547 5.950605862151638 -0.1869299984587619 1.8947726749374272 2.7526760091978013
Ni 6.878367512324829 3.8538709569522958 11.68402547730383 -0.3569732484645143 1.345957078314198 -0.9843396462094531
P 2.5608342275163194 3.1366958169224017 0.0022307259973588208 -0.8869981947438015 -1.8088950011370009 0.9689438804796732
Ni 8.21898808304394 2.9131283302971935 9.981662199213108 -0.3833820774753462 2.7523728761350856 -0.7103243267954089
P 0.26339560997863776 4.055093833650004 8.807311484572564 1.2955732265450075 -0.19526757179017984 -1.0036452885166005
Ni 0.8065479772468053 5.712946237915655 6.829188828009679 -0.5677692549075963 1.59351446064703 2.801476575640272
P 5.262057594297142 1.1176133334025729 3.012844303501022 0.44752415937089374 -0.5351046747950398 -0.33946403593615726
P 6.651868054317576 4.122090313478592 3.2320661229886385 -1.9474831179572654 3.7141318088305453 1.133435861649893
P 2.524240610171618 6.622707077801244 13.395313526881683 -0.7655981596670491 1.0114850962759936 1.1680616792538787
Ni 0.6044016229386372 1.2710282690936794 13.43386614930904 0.6488250818393471 -0.11724950324348839 -0.25548460759970837
Ni 5.451729997747748 8.528497813619296 4.244333911384086 0.22008077417911773 0.7176393723995833 -1.121412869047088
Ni 0.8786707382497335 2.0453395011195488 3.918473304735162 0.552346492594623 -0.3812727444418272 -2.791613309692947
Ni 1.8738845376892324 6.737987710548803 4.366291782142157 -0.5547764421923542 -0.21637375764117575 -1.0431338335295262
Ni 5.350231497993498 1.4709438974044888 5.224020401233764 2.5872021237302865 -0.4518202156430864 1.251978115562876
Ni 6.539668792767706 6.702551941775355 12.670381735173239 -0.7718729369321674 0.833455485630655 -0.2653013365798141
Ni 7.2125842374125835 0.92763185908335 8.277767573012017 0.5082890972640923 0.17054101557777726 -0.9377288883294496
Ni 4.7763587936331975 8.24271464126616 6.926834680017968 0.0019941476118933397 0.5716207674432027 -0.906667905258587
Ni 7.238337030634498 9.143147330162376 11.422478690043807 0.4730331022752757 -1.466245111273694 1.1490493998174338
Ni 0.9360645449276981 8.660838037815891 0.9335452905363737 0.7365562639087444 -0.7698343092355838 -0.28634941549936493
Ni 5.5898874772660445 0.6050487108901523 0.8040987540190648 0.3197691286103912 -0.31815061917036175 -0.03578487090909321
Ni 3.2725469367866697 8.475815703627257 5.3529617796244215 -1.7753210218362974 0.7737598695422352 -1.8702528354191919
Ni 9.278046026201903 2.839791695792145 1.4659632810504026 -0.028445142714570364 0.9893728377579865 -0.9647941199773578
Ni 4.15552785971778 7.138631328667995 11.96753403746376 -1.0800942128039592 -0.1287220226594622 1.3297383024624907
Ni 3.227166742784309 8.865730547485397 9.981293368418232 -0.4096338120830236 0.19601936235453984 1.9602954392305851
Ni -0.048581085052567904 4.704021270395278 2.7434530921707556 -0.3710032441950191 1.1063893990550624 0.27511369468454555
Ni 6.4075900182484915 6.220597473991029 3.9148102080053007 2.872967898812039 -0.57747388378987 -0.3594471639263035
Ni 1.8332758002990543 5.5626126734222385 8.973918423985179 0.19818628809887157 0.27258989982142734 0.34327441082118304
Ni 7.173404135759515 8.011938613536051 2.1587106174733877 -2.8406905268355724 1.192195853297921 -0.6741882431944841
Ni 1.6625118110160988 6.461728776443077 11.254054675373402 1.9902819582903466 -0.43788149407480725 1.6966727759047748
Ni 2.150199496725826 3.528552858383935 2.357583248321221 -0.9921632560189299 0.33230608473513734 1.5973574885422037
Ni 6.011269657294545 5.903580402679479 1.6155545152098292 1.1206315107963731 -1.745878033984832 0.31369464028153715
Ni 8.695564157465023 0.8623450733950573 2.1538999434095984 0.6186704126328376 -1.7091269425077276 -0.8793419637501244
Ni 4.934881335521689 2.1144089033902196 7.631717950215617 -0.05597317293151005 0.4961360068413262 0.4400592184524163
Ni 0.7577595999500292 4.776003969071039 0.13028037423838096 1.7222444537262922 1.6663916084227302 2.660617917618276
P 5.6236798480673915 6.0882572497944345 7.096283950923242 -0.9084342531303902 -0.7067666913511376 -0.7215345936889316
Ni 5.715635434597276 5.318782836800092 10.42812860828851 1.6981719861581206 -0.2580801362410265 -0.6933632734610382
P 6.204611693716947 3.12509865623291 9.076552362338337 -0.20644544278387028 2.3934227064498583 -0.8579814957964771
Ni 5.174163815255121 0.08668457428413819 8.916874773125134 -0.9373558212607469 0.6881436769333117 -0.298792269248408
P 2.8847797152784356 1.5128131957391768 9.574117243359936 0.1864134638336596 -0.29630678382239295 -2.2370698094470054
P 7.815347131123357 1.4845672930936749 6.2593966061142 0.2751471190256423 0.8717019307063631 -1.1076021884162408
P 7.862744222636933 4.202439401830508 0.1459458786576731 -0.7824129172315428 -1.314297542427388 0.9503116100904665
Ni 4.280136643454713 6.438151618036501 2.936326386671569 -1.807251551996307 1.239293321006356 -0.7527539567145294
Ni 3.267495355520152 -0.06098500474654638 0.08888168532297673 -0.35156364741316876 0.24288877321256877 0.17095856273117008
Ni 3.3564069208062577 4.9620814394576716 1.2141508255285403 3.2818784595757933 -0.1502277579417219 -1.5643740916376476
Ni 9.113426104337373 8.32917978457107 7.705420614268998 -0.4393372526847272 -0.2777300492614701 -1.3031039877044137
Ni 7.58351596719525 6.396889256452874 6.22013340081368 -0.8920082463638831 -1.6474855155468466 1.129902651685654
Ni 4.366013524985517 4.327346985198733 3.8513713112867745 0.3352934494982355 -0.1765561114236056 -0.9930888531569928
Ni 9.0438524776889 6.443632723773 10.31534015121569 -2.1120393767065173 0.44776044375141594 -0.8701263586891274
Ni 4.639125725474208 6.605096574532015 5.074605645606569 -0.11906778739914978 -0.6254581249786325 2.314680358142633
Ni 9.255906841020916 5.070872517713124 5.103373513857984 -0.43259016376888076 -0.8990186162434453 -3.2898429658385084
Ni 0.17759529585335215 1.5294339252297533 8.679449519849946 1.738252142008458 -0.21950973216699615 -1.5084711098224408
Ni 9.18399884225298 7.677479113747873 2.715724486386927 1.6040845228533922 -1.310014598781318 1.2554714734281152
Ni 2.73544526205215 3.548796533403918 9.960684597598764 -0.5085737183840466 1.1973712268512733 0.07495408490938704
Ni 7.047740215824585 8.829883929218923 6.129102225643102 0.12936119890535785 0.1625816515213845 -0.5347357214913953
Ni 2.2311275093633682 3.5636057901297913 7.325892792593621 -1.0620882631448416 0.2741027369215279 0.8483925665564616
Ni 0.7578445710951776 0.16879191171643337 5.776961257673264 0.478808314196156 -0.5231729563544603 -0.3852942068963945
Ni -0.19142785128444195 7.3792117192998505 12.807550374661732 0.6970677188958189 3.7137875381172494 -0.3325243713935305
Ni 3.0765343786596024 1.2704213323426192 6.374221569424041 -1.1414834145447181 -1.7864873228657618 1.4691669129061795
Ni 5.914757376387468 4.027828367294677 6.099117682643024 0.8379402608748858 0.7769290112988362 -0.13236116207394624
Ni 4.213373600838072 2.5177603931679884 1.3695471762746472 0.20878000445431788 0.11809076819786114 0.3751005541928443
Ni 1.5746927318819013 8.785054647036755 12.065070640856858 0.494256016209794 0.10722451490731856 -0.19515572880266388
Ni 7.522495479992488 0.5656622507417253 4.005432401180549 -0.6230878249742431 0.34204748039261734 0.8041665068585505
Ni 3.8362324412176334 3.1992103022816205 5.755572806565896 -0.43065823685349064 2.4609455318921807 0.7497671061720637
Ni 2.169107910893476 8.437475975937195 7.418262963611922 -0.31502878571192844 -0.03608183332422173 0.3857377221917163
Ni 1.0483665188508229 8.087245458109926 9.654243165737231 0.22863611994829655 1.3816586454808657 -0.2694431266623295
Ni 7.99412268552031 3.1012973981028655 4.323502741192401 0.5504893847812261 -1.2031055582318892 1.4636125587468534
P 1.991676954837334 4.208798231483924 4.779521400980646 0.16721400808707332 0.14028427357576484 -0.0478554289203821
Ni 0.6864604054308476 3.2935189359079247 12.269738117054047 -0.07417169821740775 -1.3662523382281244 -2.2211145716693297
P 3.724985603492506 5.559811426878883 10.505589611454225 -2.2034174114998826 0.3384695332333719 -1.8776223884103855
Ni 8.084276136773969 6.313300059599142 0.7891130187609603 1.0105080770747048 -0.6531633042033848 1.5561915558268553
P 1.0632318005075632 9.185810315017681 3.578864180051449 0.7332937911073887 0.14461195441684127 -0.0880551410677193
P 7.220539777595713 8.778107555609234 -0.06330910562868372 0.44945300096249047 -0.9796427549544159 0.26493418304838245
P 8.078048031959243 8.574942481308131 9.527215038735687 0.6632661969653416 -0.3192765052446888 0.9119237543408875
Ni 2.911270170090101 6.053913967172894 6.279349885242522 0.6021523603731566 -0.910290846723155 1.616139140025081
