# total energy = -340897.80144009256 ev
CRYSTAL
PRIMVEC
9.01749343943218 0.00000000000000 0.00000000000000
0.00000000000000 9.01749343943218 0.00000000000000
0.00000000000000 0.00000000000000 13.19801315081848
PRIMCOORD
 96 1
Ni 6.401013608049059 1.9215737454900037 11.380936980598722 -0.3220712943810066 0.028018596700113037 0.3107327294397358
Ni 4.639022443832749 0.41128156320767933 5.98481029692596 -0.4157795199694453 -0.8607672860717305 0.06793703016160557
Ni 2.76286981276189 1.4879856087785248 4.82416420849132 -0.37068082785859385 0.2209192109200131 0.2882201501595165
Ni 3.2492643910136727 4.2126573193606465 4.8472607144198 0.49652989984563517 0.5034829341247007 -0.08716296827075311
Ni 4.991507244612963 4.529036076437413 2.3824127473542824 0.37115288239900596 0.04437544079158164 0.38080506077678933
Ni 7.182821271147212 5.983674994502817 2.5046268358439914 0.20889236166246605 0.36119937073071984 0.11136476232793723
Ni 5.061275591299665 4.293562270436398 11.483392839228637 0.3291125174985042 1.1072754012044412 -0.2499675344362211
Ni 5.707577380588709 7.747108957668315 12.449910329049947 -0.6743530509071225 0.6299745247917473 -0.6303984997030434
Ni 2.0710206641456477 6.531460668042575 0.329840973022041 -0.36389157285090235 0.8405152206909137 -0.00177354696065501
Ni 2.562771633496293 1.5700357815201953 0.35624058679481985 0.60008802164496 -0.7379657426617613 0.026296986023316003
Ni 0.33623978636169255 0.1297608287433086 4.918424067340499 0.9155420678197652 -0.2879303868332396 -0.13463401726852298
Ni 8.706651416319641 2.4392860784326116 1.4062618692991085 -0.41109368445800165 0.23891256217364015 -0.19147262352412184
Ni 6.897435638997702 0.8100585682726096 4.927847347977387 -0.787050158893238 -0.5750639887967968 -0.5755190740563443
Ni 0.7399538690808775 7.2916083119160335 2.5685843097628367 -0.151675546131842 1.4457133098689294 -0.5462126117827432
Ni 7.586868099374054 3.801252216492942 3.551321565021057 0.32856487252515026 -0.4400967565585711 1.080017851040069
Ni 7.611287471589071 3.8269610902687976 12.452945617339303 0.6818215913700257 -0.2278766160744527 0.24910930020098387
Ni 7.838113501388388 8.805014234680575 6.980824909514088 -0.1556332452280094 0.11307197482703109 0.1695683672518628
Ni 6.843006048639561 0.5460281640697778 0.4600454624422251 -0.3243418355827382 0.8272465286064656 -0.4280691359700756
Ni 2.0318937601423386 6.402528546945707 9.132853324160617 -1.2593864922118052 0.5069297550227204 -0.02547706122518193
Ni 0.17937958635524862 4.98266108355575 1.242216530525705 -0.7965439573162861 -0.9433197521536657 0.09404709698509608
Ni 6.337584559245355 1.9602768273019884 7.0455353441345405 0.5504878421193294 0.35103759970636966 0.2070195701197854
Ni 3.5179586428197562 4.2579431713783045 0.23293538159978708 -0.539556025698174 -0.48107191341935207 0.6982496550190619
Ni 6.091884915691963 5.743025147271587 4.800156935726164 -0.1390354887703283 -1.3513615371592211 -0.1080899482314074
Ni 5.224131522689331 2.910269760408373 9.284194818186416 0.3130199828120157 -0.586417466136403 -0.25893297115962505
P 0.39433408605077247 5.764730253963443 12.436619445479892 -1.1269625952207238 -1.492749585322126 -1.0009155482902632
P 4.10986691172439 6.14094909745781 12.61038474042411 -0.3655530197137252 0.09801199517011507 -0.8062861243047146
P 2.3608699555442096 8.545617018603327 1.4610070719273842 -0.5453415220316994 0.005673139125377326 -1.117360039133953
P 6.174079368328553 7.829032885501931 5.808128744605694 1.2447381461710112 -1.1819361232431258 0.22206129494425625
P 4.762498981402999 0.9577119074845435 12.603363720037619 0.30877534860304884 0.03979502050975082 0.14477933323264097
P 3.9680217400322824 6.163573988479774 8.101798535592756 0.013480550984938076 0.1681997690391103 -0.5685878941541498
P 4.807820903394386 0.9727711215166998 3.790258088500125 -1.1386950531663034 0.019024620731618848 0.7188930423010265
P 0.18574683846788664 5.472094557094261 3.4835235406493403 -0.31042651105322666 0.2542391652283815 0.8962857906933144
Ni 1.4772818440742317 1.2576698090208585 2.702227169428806 -0.34367807401750494 -0.34660681762852563 -0.348248981217639
Ni 1.9275793961160013 6.384881312298443 4.7365691790380495 -0.5051664924747107 0.8234729204966463 -0.619060706092721
Ni 5.811008030258668 5.587527490522783 9.137974358680895 0.038216363168721276 0.09361052366830976 0.6834925513145456
Ni 8.645323443485692 2.3632686087972354 10.335970904912655 0.2576271078640079 0.30160428477590634 -0.9129642797902598
Ni 2.202730173219704 5.3062538353784605 6.850072156493212 1.1277316121762644 -0.39673021664747804 1.0528978548948253
Ni 0.633753045428476 9.018305006837815 9.216040602824119 -0.1373161920863764 0.19580056147551442 -0.5226751907824353
Ni 1.229318809669302 0.8385322055348471 11.527091612402186 0.6378984076245143 0.7060899769990872 0.1753366371942077
Ni 4.037285107086769 6.8764789842607374 1.6384938864111658 1.0465397738872815 0.7085608071370829 -0.6087462115405904
Ni 5.621802983059445 7.9351236957344575 8.098736194823104 -0.2674461508369588 -0.3959491155070794 -0.3838088806001196
Ni 5.2526809068964 2.9115772969560747 4.904553358942737 0.29059379259801565 -0.33067317711740474 -0.6576159406580997
Ni 0.8229193174059396 7.540446043183909 6.984045056418808 -0.42004600855528307 -0.4754519961294134 0.26602073124434183
Ni 5.080645167192522 4.579525022165583 6.804935093117189 -0.7007937615971543 -0.02700841026804381 0.6767372348685828
Ni 8.084480439455778 7.228467822902167 9.06793278194319 0.1832147543907038 -0.14368430039624933 0.18716859683212927
Ni 4.628228504194132 0.40937436334672067 10.270020564945243 0.3750506747915153 -0.7806565966620684 0.5526609385112482
Ni 8.148333310450807 7.046449717968589 4.6231714938772255 -0.1505134075029408 0.6827939825856242 0.556919456677286
Ni 7.076027096426956 5.984657901286952 7.154168185765668 0.8877841809802066 0.5136423911562057 -1.1275688613461547
Ni 2.2323616566386657 5.382163095092647 2.390596122644212 1.2324156200499161 -1.223235496212545 0.7693388576564041
Ni 2.3447827472607563 5.243131381351458 11.382520452445457 0.40909490886041805 -0.14199200029549094 -0.31870289212940595
Ni 1.1509928617152245 3.5386537902471806 3.712706743231893 -0.5233812157105243 -0.6666662237858261 0.1084092792440391
Ni 3.5705576820111142 2.7081065751467492 2.88969184039557 0.1661554849155719 -0.10560189170223103 -0.6542639934667313
Ni 1.1912198999172898 3.3324958553949915 8.095647703322497 -0.45506314806041626 0.313718294430621 0.4500420406967411
Ni 3.6985068963238477 2.626164612326268 6.909067303776191 -0.5507783767765546 -0.06085209829036617 0.6940983518548497
Ni 4.067899497289865 6.769765966981374 5.825932883638681 0.18086476610128852 0.850653080455864 0.48336688010111595
Ni 0.8047120964165224 7.34665109182758 11.110193052535449 0.6461151391073517 -0.33989032484029846 -0.07878528573001915
P 0.17143246939324902 5.655889108234026 7.996042274366574 0.24711206726529703 -0.7416077102897227 0.4017541522246307
P 8.52799683643636 1.6387851514490335 8.089273237215114 0.313578426418647 -0.3909004973395784 -0.17732461415851394
P 1.8585595013841905 3.293377968885115 10.356415366022658 -0.20953230923931013 -0.18974278531720867 0.35940962582014874
P 4.0024324949704315 6.0358772639831475 3.661142010537235 -0.5906438455129247 -0.5578985327611037 0.8001951809156284
P 6.889933084461921 4.03870085355566 10.29916149672148 0.5380861260208668 -0.412196173493561 0.011624214502489658
P 6.332417535508572 7.731346379148429 10.251754730248514 -0.5937646505300935 -0.3849450510870918 0.13289595153149372
P 2.337749102383462 8.439219613594098 5.806320737172491 0.7016802779671657 0.16636708670574574 -0.8547300787387151
P 6.9721726245656725 3.9662633288129587 1.4518867790698256 0.18748304274875455 -0.08507703227600187 0.12024149599227679
Ni 5.399494717469775 2.8141973853792757 0.5085072756467844 -0.31545147507164384 -0.5532312091924214 -0.365782362115712
Ni 1.6374685974078986 1.1216138681123713 7.11238292469848 -0.9950482908762089 -0.19793431998906558 -0.5553747378979854
Ni 6.969259974186998 0.6246354578189471 9.322746406108735 -0.16106187244274844 0.5847634754727477 -0.5501777670780782
Ni 2.685770243914623 1.5539305382498774 9.298977195170195 0.22280794330229367 0.262675983141825 -0.5460038382060467
Ni 6.3440230495561085 1.8049505029284008 2.670485592546656 0.8172894173937538 1.2758338391345512 -0.784376725826133
Ni 4.007725763615267 6.8993112776316465 10.478694380465079 1.1186839001516993 -0.08740722307107526 -0.43788200829543944
Ni 8.17478161868812 7.173984127583432 0.4149994757498698 -0.5084017115825566 -0.5291924230756628 -0.24326543982569712
Ni 7.727531979426511 3.7221417466102436 8.14647390330504 -0.19917770547786343 0.4452248218137558 0.2071398977477336
Ni 3.226801814873492 8.350992457851213 12.288287089012496 0.009928057746989353 0.34491066087302535 1.4600891189746275
Ni 0.12876349396968195 4.751200062132165 10.195399003293206 -0.13760415564044046 0.8664419678590045 -0.040193284389434
Ni 8.609641221973572 2.3931165120585756 5.854097220876187 -0.21305317790837502 0.21389778529685743 0.09943612921115133
Ni 3.6725455327318848 2.4685388271274107 11.456324127443171 -0.8363605750925919 0.06257576584969222 -0.2225022391364168
Ni 1.1003776710790012 3.441805910782894 12.568877218154638 -0.10782306772326591 -0.3477686991471108 -0.4325410556985002
Ni 3.146068196172956 8.277094099172459 7.964987830483976 0.23184742779674264 0.417412684697494 0.11827897294926724
Ni 5.444609237112217 7.678134150403666 3.6230656445188045 0.4633068761264473 1.4909474991163807 -0.30287158152410415
Ni 2.959397064628245 8.451050564977445 3.5124534630792588 0.6506677914750408 -0.7068245411722666 0.8359157742456893
Ni 3.326841887012858 4.3146992750420115 9.04731698845797 0.4006619476017164 -0.49187800289592065 0.1728390675833346
Ni 7.270408184856393 6.085013585696452 11.408019218624338 0.5822713051785133 -0.2899283910998749 -0.707333362487885
Ni 0.3076525286822065 9.101446296284811 0.6462062038586602 1.2958884437925813 0.8323074880691409 -0.0831600177589471
Ni 4.506889112567369 0.4547143203249731 1.6470460771824815 -0.0872159329958756 -0.5331784043066043 -0.4573696847064058
Ni 6.079251407393131 5.570295060573411 0.24983055729478587 -0.4824952761294401 0.037076078916690985 0.7490068309672714
Ni 8.014838337677128 8.678868519054328 11.392446007466532 -1.0004956871440251 0.397503861588709 0.47809868972364106
Ni 0.14303097207847096 5.0355577000303775 5.821881323839491 -1.3419096477177017 -1.0585720224614672 -0.593243745029617
Ni 7.753222818215502 8.79300293342858 2.6393914716929543 0.4520765546282666 -0.6209705215209241 0.47972208425967705
P 8.464369402777141 1.6378112621583312 3.5886323458470746 0.3134041056243119 0.6105526686217098 -0.13739872449785367
P 1.9215016055425442 3.2748560373749056 1.5145908214015633 -0.5824883062853259 0.3730351870233834 0.15125054277928146
P 4.750740169967111 0.9828436616807229 8.153244237374107 -0.4622704644421329 0.978870652675082 0.2666802192052117
P 8.403465252134517 1.6056819330585868 12.37093331807005 -0.14025187767593267 0.34365133454462754 1.3817555760700462
P 6.261269512326709 7.68275110704107 1.4350727608157188 -0.4176957631555517 -0.3418549047658371 0.34272933695099034
P 1.6343305096934135 3.1408651024624445 5.904210137128223 1.2439683578845222 0.3568058696487146 0.46912091170506304
P 6.948240196996006 3.9251796287348126 5.900739303906081 0.19692696177047375 0.6934982563770056 0.1716008243008593
P 2.5016690979981546 8.576294531260448 10.28106789614931 -0.1941789667116914 -0.6252524367257296 -1.076830454451023
