# total energy = -381162.41506643256 ev
CRYSTAL
PRIMVEC
9.29140535499573 0.00000000000000 0.00000000000000

0.00000000000000 9.29140535499573 0.00000000000000

0.00000000000000 0.00000000000000 13.59891092669077

PRIMCOORD
 96 1
Ni 6.529358383738998 5.970926355581024 10.244766423492957 -0.8876088317446069 0.2286371483895611 -0.002589615104047153
Ni 1.0343842534149075 3.25305099841105 1.113678962654297 2.5225365652311007 -1.0612040607676758 -0.1255153427967064
Ni 8.559725513370434 8.342845535977613 7.0572495633968355 -2.63505678131972 1.066253707376441 0.6766606159943765
Ni 7.475929567736564 7.818057685616717 9.1741382571394 3.0569408715250064 -2.090200426454555 -1.562381486687651
Ni 5.897914494457178 -0.2487950247043901 9.397132908215807 -4.18564076115181 0.360573821331579 -1.3014633667771973
Ni 7.283792602073546 4.942544349848224 0.8143721433693936 -1.8721868192171114 0.7094228980270622 -0.3834802936161073
Ni 1.3234305740692356 0.5325870557856034 1.4864157562916755 -1.2056478650377689 0.1510181150535012 -2.1200887293735553
Ni 3.1653122602343546 6.465182648846863 3.591485782771639 -1.516341770819769 -0.23347030811214628 0.6472130001572208
Ni 7.3036947917563255 8.339928034782284 11.463147442579713 0.007515077430122541 -1.6196926617042944 0.3747704245469352
Ni 8.699988564468116 3.347080017827354 13.162629983619109 -1.250316154479421 -0.1762419226172965 -0.7972281278675044
Ni 3.051539005021643 0.5368815432138856 11.229517849247982 0.14641121240910912 0.38180521990652955 0.13992509046413323
Ni 9.266652777527556 1.9312371288258499 11.28717752175705 -0.42459814670233975 0.37695586223402827 -0.9610688486069706
Ni 7.866075667073582 5.873747549842376 7.172092259334331 -0.43983193293295864 0.32421945107226097 0.4297719775937953
Ni 3.537906895373999 3.6048607603852525 13.291289928052057 -1.8963978692456758 0.7442423196990925 0.2961694869135803
Ni 6.310127680860767 0.06368421956336844 13.280804577418529 -0.8783754860717969 -0.12044667002454743 1.4021688496190754
Ni 5.315185442013272 6.055747592562391 3.5891740811875703 1.842966488899413 -1.021153472603693 0.6394377270871762
Ni 0.8853947146654692 3.915277312725104 3.307078660674086 0.7145838734027113 1.3867918529423728 0.5660437875760574
Ni 3.2714851460910843 6.930635586362648 1.1348280588989008 -1.0692672973917843 -0.8430009632272449 2.1062281693413794
Ni 4.819962842619044 3.0765050104733827 4.4876678187357575 0.7383097562647414 0.7995884005695649 -0.7393754785250943
Ni 3.909247190827754 8.171381946619068 13.12708292606151 1.4388410082291285 1.668626925511152 -2.069494047145139
Ni 0.9765266739776226 3.955016652255097 7.221538329752092 -0.8212028935155471 -0.2574517586284082 -1.363980254364496
Ni 4.697372043984785 8.041218652844067 4.79562865271279 0.834959323869691 -1.1107283927500484 0.6120341382632427
Ni 4.205763801166935 4.939561808817332 11.432209851082632 0.7601253094779361 0.5852648405891985 0.6161782423386034
Ni 2.748462662695515 2.096679887692125 6.983094859448068 -1.8719654472349243 0.8486946711779125 -1.0281023931177005
P 5.549821294515241 6.681226399782426 12.218049947730327 0.18973301512519583 0.1132835766172049 -0.021168663657815157
Ni 0.31570800753328876 -0.03629873222862396 9.36856183759277 -0.4469006668542819 -0.1095372222008952 0.7962536797693771
P 9.117330606476232 1.2337963892560848 7.522835368005273 -0.8467324052452192 -0.37761535019489806 1.0418313126680188
Ni 2.7027489496986554 1.996685786214036 2.7043749455877713 -1.2735347586877293 -1.2741988746342894 -0.1742827420083966
P 6.7993573239779685 7.169173828998494 5.744995620499129 -0.6335072205353541 0.4321319931855397 0.12021269963687037
P 3.691911934585979 0.20506688497326847 1.4541179030907851 -0.28240020104362973 -0.5236213567457885 0.6357638777800148
P 1.447089884287772 5.5306066688084305 5.67811608672852 0.14002356371521046 0.7993711423524363 -1.1596279466642287
Ni 4.0032483360288165 7.5889130535174205 10.381312912558371 0.7467216344775204 -0.01210321102143722 0.6058316089969565
Ni 1.386556380187256 1.8357214845966399 12.942422754066902 1.6922041986104597 -0.7500075043176438 0.490241238623446
Ni 0.5837994223091987 2.275381481608506 5.866338583431054 -0.5918103550172001 -0.9128964026668019 -2.2453603315905717
Ni 2.6615229853557563 3.5800712916300452 4.766459215602558 -1.0195087379114183 0.8685417878108269 2.0409969681467106
Ni 6.370549688100316 4.574967073452138 5.419669150426338 1.9083074761990682 -0.31716820065243445 -0.5033366383548235
Ni 4.792237289858348 5.071955039811691 0.7851906274325571 0.7371044231027306 1.3181503405145751 -0.370523219234807
Ni 8.075838428174617 0.36369718563440223 5.393654145340991 0.2578448803017689 1.759330817055628 -1.070690402991556
Ni 1.5894899585540045 9.12533979765576 7.421728156198521 1.590897077628841 0.7336336909453107 -0.6848542075487625
Ni 4.467075277655486 1.6331131054077148 8.355687186939596 1.4919754261602627 -0.4059887591312686 1.2214125840711934
Ni 5.835466960910046 1.8414356987212472 6.027145860302588 0.6150623835666054 -0.007883516513134809 0.06238498999512482
Ni 3.5888145038109487 3.9462827314792746 2.7178920816991194 -0.10910681953169597 3.4862189402015185 -1.8227388489986287
Ni 0.5089868868807208 5.279357784022237 8.982148095676656 -1.892991671777604 -0.9748113950040436 0.8374391528687513
Ni 0.2264120298650743 7.152588670929513 10.562491595069257 -0.839679869273812 -0.12474324051737228 0.6523966012406893
Ni 5.104270546682235 7.001473258697618 7.808018322427062 0.05303877289353447 -0.036085947089279785 -0.06751999722884501
Ni -0.006915592801537055 2.998940360860013 8.984758980504322 0.06565157656153854 -2.6121184273559916 0.21898985510778415
Ni 4.4633772984333815 5.413460633551439 5.641793196846686 -2.6535293862026106 1.7891962371564927 -0.11103926066771844
Ni 4.319369811088195 4.959101633701965 9.119212116005064 0.42891194358634516 0.25413657821224617 0.3069951167741745
Ni 6.235508406657967 9.084903602744719 7.025618833080736 -0.13314843386193198 -1.42993830642286 -0.39600902221073736
Ni 0.7105165339397811 7.044752623563344 7.740445649837436 2.6156169274275536 -1.712344935224393 0.29452809465541535
Ni 2.1565072450065106 5.91672958974552 10.171767570336224 1.9914335553962865 -0.5370682262793137 -1.412839184848728
Ni 0.8349600387471254 4.723926879705317 11.964865663265833 -0.3177425850986657 0.20875017965764694 -0.08492610852043438
Ni 7.857183792411386 5.946229800876623 3.0461834391331495 -2.9346005840221716 0.3007267672669595 -0.42669873798511027
Ni 2.4518066812801242 3.2073279940091104 11.178331498658611 0.37101969925525136 -0.39667185260571686 -1.1356367259559539
Ni 3.9511235535263 0.30078601097374486 6.4756921571336 0.12376544998513524 -1.055992177549433 -0.6492403149998948
Ni 6.959550438973669 1.6876722360413645 8.154246737369311 0.015434075166883096 0.3707672169248131 0.09441245074431483
P 1.3372561848292612 8.677075959539202 11.677588426138863 -0.678257013947219 -0.23907274190058828 0.8548192960184117
Ni 4.376632740600317 3.713012715524163 7.078545463841713 1.5036580047045134 -0.6507876048823565 0.09536684423778415
P 2.555916875208947 3.5194820390990453 8.934551944010455 0.07957281462832101 -0.24368632941319965 -0.19601036349347534
Ni 6.647600804795508 2.3303029770403016 0.5936891938770558 0.05403173293442307 0.8475448738441855 -0.32823962797524764
P 5.81279593251323 4.339281292176054 2.54566195142142 0.8035705251457644 -1.3723203987990755 -0.5804393941760971
P 6.392300867394146 4.469518917191699 8.458168597557778 -0.042893971150048706 0.004361876513121521 0.4543488956022111
P 2.943740123275797 7.428915058028413 8.509559359058922 -0.12094674958941752 -0.11890143702461457 -0.3509370695727634
Ni 6.915314059384635 1.4748618940738718 3.618819238237932 -1.6994048301239568 -0.20079132982188647 -0.09289909942358195
Ni 8.647752285104632 0.23958352570742136 13.144706863218511 0.8319045962037673 0.27417369936877944 -0.2632845632601014
Ni 2.468243176867816 6.393360087573342 12.239264083810495 0.10077515973754902 0.8211663838506568 2.4444853294536286
Ni 0.6400412264029565 6.389429823224222 3.519085296102101 2.0904310544081226 1.5282215529764909 0.9313191281483638
Ni 4.343248722145496 0.8263441188158271 3.9852155770482667 0.3316010882483128 -0.7981167011200448 0.16505839519665122
Ni 2.243446922346269 1.2948873776614405 9.134660006092174 -0.15612818258655692 1.1462301852010839 1.2198071872572862
Ni 8.063508733632577 6.177446416308908 12.550869936000673 0.10974702421885615 -0.4300481140733174 -1.1857079315807322
Ni 5.4193885499929015 7.783623738387782 2.2850519760164594 -1.3528067542461797 1.7649900722239344 -2.3801725263081717
Ni 0.8540668841549998 8.174197242358508 5.3870451689071155 0.317941074262717 -0.4685735238420252 -1.4259415265586408
Ni 8.21953000774706 4.326106079771675 10.396013773676994 -0.6957135188607695 0.23059272945403514 1.1867821384815174
Ni 2.642875135358867 5.304156544182526 7.519313925479701 1.3070642579037426 1.5324065375921159 0.539532114438774
Ni 4.020037905009573 1.4897095593927705 13.321709988286146 0.5180634030420369 -1.4731516085855403 -0.02573879952700083
Ni 6.929195418575144 8.350780395916498 3.8065390699256034 1.386931978064663 -0.8989587095397872 0.45234214958482744
Ni 0.9194291314759357 7.751438311188368 0.16249645431519738 -0.03277770865165323 -0.3225441202523671 -0.44594421647828364
Ni 8.685438224111799 4.913778159718493 4.933330992570239 0.7494182074730771 -0.6503029519364543 1.123840247541658
Ni 7.46196458590033 0.48827355753440005 1.7308558994347594 1.3602511263393668 -1.3450461364641544 -0.08826494308568024
Ni 5.068554385552169 2.1527163517336003 2.2037038662542434 0.06610409071792486 -0.20883116940722743 -0.6253046301199037
Ni 8.31124546729828 3.3899505608695306 1.99225378599056 -1.8753132806612347 -1.1213354788419332 1.705890952068933
Ni 5.525226945266727 0.7430485305487046 11.284103924956364 -1.175178492804318 1.4186964149604535 0.7183389695697693
Ni 0.16342466568275557 5.451778388104091 1.4390370235043617 0.15834601617348212 1.1236237606554778 -1.2361082384101552
Ni 7.61163053893964 0.917119288172883 10.09043246854112 0.6571935084087004 1.3177333075818143 1.6593776389987422
Ni 2.131067377895657 8.69822319750279 3.2374925406034807 0.9566360096465977 -0.3529042206014632 1.2268175571368485
Ni 3.081838276989683 7.269697540566181 6.2920391734497345 -1.312477972720146 0.6919540518183374 -0.3178577705202913
Ni 6.510914944653883 4.277493448389649 12.130119806608972 -0.8835272054760654 2.501824015274098 0.9021147386702657
Ni 0.2351515254839454 1.7746397875963649 3.3132927523920332 -0.4887517985621131 -1.8686746922987947 0.580763096064103
P 2.3443794557375055 1.350357065992995 4.7666357522990905 -0.03860434263575932 -0.5835730547090723 0.509655895704632
Ni 7.522535255621167 7.47712815899197 0.7090800827143107 0.18189732113086093 0.37149252512661185 0.8931984100172424
P 7.884751391285712 2.8008754787555317 4.731509595391647 1.1624114229466367 1.5389124570314334 1.566167950313277
Ni 7.724056540415656 3.5038538957533714 6.973249686624598 0.7506793335736878 -0.5653737580922262 0.08005566780201051
P 6.894557060434436 2.3471575858566234 12.12882737216225 0.8719317873289821 -3.0972313436139367 -2.0061757467024672
P 9.145762306023057 8.524074392075933 3.110600750557382 -0.09287827348797553 0.1777241635897778 0.10167993094000553
P 2.155429442017154 5.1115735910756355 0.8625202044973864 1.4987029746920835 0.05514913436831792 -0.7545539860377456
Ni 5.4990530571545015 3.0881564324445336 10.217623441830819 0.6284920267089499 -0.2985210178648923 -0.2432129893212069
