# total energy = -340875.32184920966 ev
CRYSTAL
PRIMVEC
9.22663275504786 0.00000000000000 0.00000000000000

0.00000000000000 9.22663275504786 0.00000000000000

0.00000000000000 0.00000000000000 13.50410967934526

PRIMCOORD
 96 1
Ni 1.5286961909368755 0.4796446572467621 5.789954699774334 0.12938022506875138 1.0041487105155802 -0.7658940936409131
Ni 0.3555003138376275 5.523440645320534 7.295068540111476 -0.15032186031742498 -0.02570151853116219 -0.4490899611961169
Ni 6.051010278303879 6.245544602825484 9.029023170794368 0.18985565674598914 1.2767936319446591 1.5253462883112245
Ni 4.3786554157296775 3.3283509053145584 4.192917762854767 -0.07248454032297194 0.05616574855829037 -0.5671624745615328
Ni 3.304906031542532 8.042606633405473 9.723553336379718 -0.1460312033618711 0.4350849051662765 -0.7922090773863583
Ni 1.2795217473763336 6.508531315585839 9.380278310911999 -0.052983751285882945 0.4415669133461944 0.8009919657853108
Ni 3.2091612636825104 2.382399611098421 6.107665493931487 -0.04408310636214343 -0.8849135443006308 0.07687315630897083
Ni 8.912078368906016 0.4121647560979663 2.7719618849927934 0.12248658327271163 1.2312953904025439 -0.3387454126025779
Ni 7.373491227680431 3.1465585605958526 12.005288539045413 0.7371828417491497 -0.6231883551078493 0.01812781994896233
Ni 9.34519496261182 2.478725656820559 9.55105128815887 -1.7644640245171352 0.30472740378592034 -0.515938386279234
Ni 1.8264488558314265 2.888055991343253 3.6634622061409994 -0.6169323468958086 0.24284532156914307 0.32224947183008373
Ni 5.075589119141717 2.069579854952505 11.81998546057218 0.3639550790989861 0.7784403057370399 0.7357093425274169
Ni 6.997930368956878 8.703851721410116 7.2692219738393105 -2.838713091394227 1.3427827943512745 -1.601049335571494
Ni 2.1085623782452285 3.529952830508879 10.064613047328484 2.126151133517551 1.1481533703657258 -0.1665997715418421
Ni 8.654064811188213 7.070322529372192 3.674711316767861 -0.8059143427875927 -1.5244924249513616 -0.8381770594760404
Ni 5.568245173867153 4.586955876287435 11.40261319296027 -0.09513287385010713 0.5746389854442362 0.9851991659962711
Ni 8.43911194843068 6.435078092406343 0.18713825572362935 -0.29088098482113134 -0.006769971733981889 0.7320470631844812
Ni 4.8967216169990575 4.844618821961422 7.649064912813787 -0.18468156874421743 -1.267104172571037 -0.13449183526370384
Ni 1.4565992827689842 8.28140111514251 3.7018413076530496 0.1968176898861191 0.17437375906030617 -0.1248820800880817
Ni 3.1495018564373627 6.916320802442288 11.827709074832143 -1.300355478424999 -0.6755820382182172 1.8926995944584821
Ni 1.7429478296067762 5.660299288634373 4.184478161894802 -0.6814392683299425 -0.6491372137631272 0.07949362465095342
Ni 2.4944478389958964 2.0274418232654354 11.972513694254785 -1.251442040553748 -1.6738182399041044 -1.0954665814949713
Ni 7.350332379523097 4.201190361762283 5.3754592962482635 -0.12235622834243444 0.374390158389381 0.2964993594491732
Ni 0.9280331734505822 0.4576280662216505 9.670955071164375 3.322399559618291 -2.1258104623486807 0.662141339332279
P 0.6455865695951551 6.926377832120174 5.57850703479169 -0.24377040448657375 1.1079369460478403 0.7836745575527858
P 4.5635294557808725 3.296638968614655 10.09902100611268 -1.419417095176562 -0.4827657561820073 -1.09856681768685
P 3.464932749646436 1.910365080529017 0.2772492416374884 0.41494622543487253 0.8201569687495359 0.46552419549274016
P 2.3998379469619118 8.982745149000447 11.475657676309739 -0.7553721110636668 0.44735472367256507 0.1439180136736102
P 7.120746077252603 5.365000908046535 3.5231408075628394 0.21746930469819967 0.47671646466413375 0.499782602454978
P 7.390006900270721 5.283142222448182 7.760217234672985 0.8286624351173858 -0.9262034041883532 -0.6746001339209221
P 2.8651185823714873 0.9247484921979882 3.987628875220736 -0.4847830437223522 0.23892670324102724 0.9675727111637595
P 2.1393701049373948 5.773546978787008 0.20129191033452587 1.1272143062202133 -2.443487998537366 0.05563610130706547
Ni 6.092548578863369 7.352897383422595 13.457993260138219 -0.4797616792483609 0.13974768434600449 -0.1261889718249633
Ni 7.601693535041124 1.9077170369349314 1.0270644678897443 1.5016510015768136 0.43793137347613614 -1.0119373533220637
Ni 2.6654357967854234 3.698560317053549 1.4181205336234282 -0.08231875280457436 0.6242281092262734 -0.046307367706971865
Ni 8.552553397870689 2.1256224221667064 4.541877316748676 2.355981530884265 1.4588002249598748 -0.441442214842872
Ni 9.022936361181063 0.6433814043722058 7.763755648325709 -0.7145681896734274 1.6895240806751357 -1.7557379574980472
Ni 7.584079893155725 6.734399284865335 6.069773558627687 0.4984088620359029 -1.2986567505663376 0.07646717911980379
Ni 2.3463327037490114 0.17451529948297256 1.6866229274309754 -0.2727613924022851 -0.6472934756861691 -0.1330335055506225
Ni 4.111867330283737 8.402943548121218 3.8464429411555874 0.9839097577608863 0.6924996399091623 -2.267376945070979
Ni 8.449104391679443 3.1710829503975235 7.406450605125702 -0.11846280682529921 0.7119315233815288 -0.04277570040462956
Ni 0.27644560192653067 0.4252453533221306 11.996727146533384 0.674264090737742 -0.3419086408219079 -0.27169438459035145
Ni 0.8776142388865379 1.584231293350817 0.5749714586440238 -0.2339323353502294 0.8388679148954779 -0.15211571899305415
Ni 7.9924783377724875 8.894907605391754 0.23168167056393255 1.1217031465939973 -0.6724854015707645 1.4640223925907625
Ni 8.45980728564857 8.839243330119565 5.198947353442085 1.1404140927399393 0.8514598926278757 1.4155249592110073
Ni 4.136696198965565 1.5570404066895964 2.316144084113162 1.3344706749411532 0.9735386989392073 0.29661865863585696
Ni 1.3273526114590504 8.219379689917968 7.5871357539165665 1.029029275807344 -1.7060817279235005 -0.20741680555820408
Ni 4.226268349527874 0.1571000302013121 7.7709265872850235 -0.42331542333517413 -0.1845239601204306 -0.9613282729159445
Ni 5.566981125182869 4.466059307599966 2.2559827480473933 -2.46354234608508 0.9310231941744999 0.9846258099913042
Ni 0.11698355374582517 4.124120298551841 -0.2579240593803028 0.3446118986856839 -0.5824682516806678 2.4064466295133524
Ni 5.062496527295002 5.720032508941377 5.382994687200492 0.0003571262291026108 0.2140361106469346 -1.1297486426062928
Ni 3.3525708162360726 4.168851014036604 12.41646143212469 -0.5969361062795397 0.8381757739244597 0.39486745240712645
Ni 5.714173597156553 6.765280824619357 2.4628659978175147 -0.7817498297262472 0.3945283239001528 -0.6978732455162496
Ni 2.876531927060978 7.4351989473920845 5.3053599540668515 -0.8392314688824838 -1.110865946769177 2.6857404237175166
Ni 3.7545475244713584 5.530406753033199 10.160411329658352 -0.31212472469125596 -1.7344998740548772 -1.5274728477359243
Ni 6.977087405615277 1.6822642661283758 6.091028952452407 1.296661831623496 0.5239525148329621 2.049196730348684
P 7.215060717039163 1.549262355296516 8.53447565635887 -0.5177651550753277 0.5315048732589233 -0.5499414826975562
P 3.6378029405132923 5.239417209931207 3.3843454940385533 1.2048240835848927 0.11663192426414754 -0.30699923053923256
P 0.23471261941639637 3.1566063636410067 2.004482270375113 1.409423731409276 -0.9332461699677477 0.24552646794573196
P 2.664753025963255 5.2421482932198815 8.320300598740644 -0.24916535024989991 -0.10279810370484876 -0.10638916349021678
P 8.848027084480433 7.476432769071417 10.67173101707409 0.6513239370018008 0.11108476919367319 0.5396845808562384
P 0.48236097792306454 3.3850393368200002 11.391675019856477 -0.2350980735235564 0.2291986773199859 -0.017621569736505138
P 2.3063721573866953 1.1260182586139573 7.851532296158371 -0.7503222073445852 0.11123337895639554 0.24152788830930016
P 4.439034500327923 8.694698901739965 1.34097665735113 0.5744669786427461 -1.6842911144109702 0.3182058978883294
Ni 6.374394528927942 7.889093918010365 4.289985629848558 0.24265454571457565 0.338785521811894 1.8410237633507454
Ni 5.77741293790172 8.743581601954132 9.453687246254383 0.42194219713673137 -1.0963065608977633 0.3246668230223247
Ni 5.756606881091047 0.8171041361034991 0.12458353112717814 -1.388481324829654 -0.24595789905619575 1.2394876964053492
Ni 8.273964449160513 7.6874827661833125 8.620564753064848 1.4530622940348328 -2.2035799052196756 0.7915045951201659
Ni 2.813707784788752 4.798162726155774 6.248229552950498 0.5084305079379631 1.1267355668115822 -1.6395230661666602
Ni 7.841235374029453 0.35771193770348914 10.19558971227567 0.45863749567523593 -0.3763207997531906 -0.23086063840344112
Ni 8.545328944441527 4.824154150561833 9.682959843011988 0.9940316766862364 1.1208037747081794 0.20921374955762675
Ni 7.376665189340241 6.072360706445741 11.457520884348435 -0.050217501394655445 0.6036955364905604 -0.0956668919767062
Ni 0.7893015236921468 5.8338614769561286 11.842388647508763 0.23425500879697078 0.13212616324500473 -1.298381899638396
Ni 6.557921480600264 2.6111739696884984 2.9014521394068518 -0.09932197223079024 -1.5300107836664294 1.4144638649363448
Ni 0.7373952559317032 5.435021823849725 2.1316105068097784 -0.14283686479428948 -0.0698239627716733 -1.6780667307678132
Ni 5.20690255618362 2.3028568103158014 7.941253918170939 -0.566726929686011 -0.4043897900752648 0.40708893417398273
Ni 5.415821201134421 3.3353262396599543 0.28085408704588294 -0.1200203811204062 -0.5595111286638622 0.276730147242046
Ni 4.253025584450691 1.1197349217234616 10.006085747919554 -2.098776083938708 0.05168817240291099 -1.067405304482381
Ni 6.60666578132345 3.6286224409449463 9.343345022749054 0.19542672307586342 -0.1449585391229826 -0.41771607487052576
Ni 1.6961503483900442 3.417637030262176 7.694088112556155 -1.215743558710874 -1.8732651398829543 0.8961924596485598
Ni 7.73706669048511 4.269061472138916 1.6093923208109961 0.03898435168299738 1.119135385866821 -0.16091300556970997
Ni 6.549027006646611 9.157276133759064 2.222425484801089 -1.3802807912967323 -0.6979987153505205 -1.4238550763432576
Ni 1.4139261063834585 7.6472638741045005 13.387892995293534 -0.7052625960017854 2.632439141191215 0.06342885787860689
Ni 5.078993746619828 0.9642753868219001 5.31579804367657 -1.8459708229433756 -0.8574932433061491 -1.2241718919838853
Ni 4.392172432682066 5.7852002159275315 0.6665088819782509 -0.44570921764934207 -0.6596273146611737 -1.006977181103311
Ni 4.57712951242785 8.787186668245589 11.973823876102728 0.24043774056891495 0.7608886700065218 -0.42482723199401035
Ni 3.8842924339488203 7.039422536352706 7.55537399339991 -0.6893209850708645 -1.0552280456898988 1.2980571693091258
Ni 2.857866449044131 6.971246947095918 2.1077347492891674 0.09423941550156029 -0.2058224644878907 -0.06194481713391267
P 6.666537401121434 5.066980670802756 13.356995770263865 0.06448995215326958 0.7523004141168786 -0.06686359459176872
P 5.441083721554652 3.283343390847835 6.073634904426031 -0.5713556867072741 0.6066461344784521 -0.5902921186004608
P 0.7824811967766483 3.3683022250441423 5.680908818167853 0.3378385845175924 0.4353330166213406 0.18810807792726314
P 7.213482962841991 0.7380503468556756 12.135117410880737 -0.4747282305895114 1.6499391192936614 -0.5831999876403697
P 5.132176057687107 6.9431241705287645 10.974600772481809 1.8976875345913768 0.4571750521970965 0.0007165664510503788
P 7.069252239975281 0.7566457024637595 3.990342427907219 -1.0876900228733462 0.07451494048943941 1.3525265040015997
P 0.2367332519847056 7.921202599917745 1.7244881054998529 0.6597481565097542 -0.9400235979008972 -0.2932749389746046
P 4.900015524884384 8.002221661937485 6.0646684627370675 1.5351686737182852 0.469808681800707 -1.2849370869874
