# total energy = -340861.2637990411 ev
CRYSTAL
PRIMVEC
9.35547575575635 0.00000000000000 0.00000000000000
0.00000000000000 9.35547575575635 0.00000000000000
0.00000000000000 0.00000000000000 13.69268443453325
PRIMCOORD
 96 1
Ni 6.2835304371941465 1.8661367459258302 9.819914300256675 -3.0918474535942044 -1.4763042952819092 -2.1590429991495657
Ni 6.318791225259492 4.477483911948527 12.688038402281792 -0.08195571303820079 1.7606647053757034 -0.10789711549431096
Ni 0.7763220546713708 3.196719283095837 7.82902509197612 1.9979482165863527 0.5128821159514135 -3.615117854758477
Ni 3.2367420083130156 7.6398405326500916 7.37351072036921 0.24393469797857992 -1.342491488363101 1.1000261758411958
Ni 1.8574735753902742 7.443777827559764 5.503212658834077 0.533645830861326 0.5560511951397198 -0.00975913626929287
Ni 2.8740676357629544 1.5732822888259341 4.439798184571285 -1.191000290327923 1.9937251796439408 1.8860702620674228
Ni 5.865172273037576 1.1920092305040748 0.49005946577811915 0.020848047093602808 -0.37296011081107383 0.2062814064021802
Ni 5.727309982527909 5.674629298634049 10.402017614106141 2.0394409365135004 -2.261570108581215 -0.6394181867031504
Ni -0.23116538561566116 4.603025040908164 9.182450894261317 0.54539860052188 1.7026007113534354 2.782830421293995
Ni 3.5507304851103423 -0.006625547919309535 5.909187915300731 -0.11493628172927947 -0.06509313295490725 1.1378080225756597
Ni 3.5633135999811008 1.8677645987046494 9.518373283931872 0.26966835529925814 -1.1481379437467583 -0.336236273027479
Ni 7.326460161775887 5.551137018861548 4.602535749526944 -0.19521203596189607 1.042873123668972 0.3702607096020397
Ni 6.547981669946367 3.4366123920296623 1.3464559728586432 -0.2975296004859005 1.62927362052451 -0.5630229984718625
Ni 9.19025803876663 8.761346897974956 12.675358926010906 0.7946994479083798 -0.04584971134426297 -2.4535438401114713
Ni 0.08954219385837828 5.922717804316414 2.626626529001822 1.1577258445455092 0.8845397059009799 -0.4169686551815399
Ni 2.9226319103310647 5.269714953116348 10.510107038619745 0.9025680241576004 2.437083380562603 -0.02807413252839681
Ni 9.044499726732118 7.617378035397532 4.546190525785592 -0.25943639315860484 0.21621640612770507 -0.43365820002207894
Ni 3.0749484108595575 2.5886882037795904 6.843219902264901 0.02594937287591015 0.6655295390782215 0.05658098171883804
Ni 8.089343075546257 1.279323885588678 11.065113152534884 0.6117644295416238 -3.12894975776314 1.49446142580691
Ni 3.408330788866611 8.61471852669659 3.523811974762659 0.1778267506059131 -0.07837930854085211 -0.15081988299976606
Ni 5.079667818927059 0.8343072933100046 4.446726849904581 0.8755675843093566 0.19570774465139196 -0.40904605790035364
Ni 4.7106410783493065 9.231684085344861 8.266424455907007 -0.5090809970377685 1.4317550479166243 -0.5135642296201026
Ni 4.513380872364216 7.346321836772631 10.877728586741298 -1.590647680622196 1.3104470583330463 0.6312901582793773
Ni 0.36443133089409735 1.9606176954275345 9.536392865755342 -0.2511178459905804 -2.136926883976816 1.2773875567749162
P 7.391256186753489 6.026170655053104 2.271040800420217 -0.35767361696564853 0.13641682020055862 -0.15264536624427905
P 4.156319785258359 7.289412477844135 5.086394405984365 -0.4455634361000972 -0.9139654673612646 0.5625020929713862
P 7.545668313847818 0.7661535880891941 8.616669143388451 1.8331621012144816 -1.1653435089917672 -0.44656745188457925
P 8.013750831564302 3.5993789589601155 5.573497541428536 0.29634560748012834 0.8019890395912574 -0.5030481605801271
P 7.713449415775094 7.130257124549455 6.303413629785093 1.03543569355432 0.3358236109700926 -0.1778789440000872
P 8.895785084363657 4.4658924775062445 12.032350529544248 0.27650980370112377 0.6197255933702296 0.317359233617318
P 1.1752161515501627 6.47591644031852 9.570351371597635 -0.44143038776833005 1.2950569490302213 -1.7340761562538973
P 4.929465655915884 4.521089784374257 2.5522205593437417 -0.9077961053257592 0.33183762973915104 -2.134206656832176
Ni 4.407018468672279 2.3840184610081496 2.7918694903607437 -0.9003558469976299 -0.23830963848231865 -1.946802546950473
Ni 3.6971811023496413 9.094719920506268 12.19706022878597 -0.41091602122955684 0.3873364341374039 0.2071995473410754
Ni 4.253831908899934 4.732055762318947 4.476604497228935 -1.284838870846639 -0.015826168398979195 0.8096090180303606
Ni 8.596007575215909 8.067488684216821 1.8929729280869985 -0.8091680738382 1.160258638269692 0.5798305569475046
Ni 2.154687684185169 1.2768353290417471 2.471899122375043 1.979166565103475 0.36920295776148676 -1.3454364299240378
Ni 2.280284945999248 5.970505574398075 3.648306225986951 1.2981350737349127 1.6699428161090981 0.006061632813047626
Ni 3.5941866699242264 8.147777377020427 0.7205241262608287 -0.52740344949604 1.3775268827006792 0.9658999514470269
Ni 8.794193973299294 4.277763215843726 0.6932360746214019 -0.3362144186506081 -1.439591770352224 0.08349657516275942
Ni 0.9780214338952538 8.098614352004935 7.757644683172465 -0.8268500644989955 0.2981759758206478 -0.3254209275795299
Ni 2.9325206481886053 6.696864710878154 12.59562688401385 0.1555139460413257 -0.4745443967134795 0.2360010449538
Ni 8.747444661024808 0.8901725811458773 6.5522646067402945 1.1264704860756536 -0.7586330412031257 1.3596068078871488
Ni 5.864246080939282 4.1322762126056825 6.289570332332111 1.5522847645732816 -1.442013235309523 -0.5192142288170284
Ni 4.239068968181676 5.59511711031689 6.626383363293147 -1.0284574624642742 0.6609560607749262 1.1967968424050421
Ni 6.132364660181715 3.40775074937071 3.8477125781068766 0.9590831856355095 1.3909238728328754 2.1136756267583596
Ni 0.5034724113470461 5.450135302768825 4.980522229221221 -0.963616811839805 -1.2742868063624053 0.046408926281842657
Ni 6.588341192290199 7.71992340498741 0.9239888837569141 -1.6781986283599872 0.04972282114642405 0.3949453568329134
Ni 8.25950982378732 0.7049173216307918 0.5039925757982091 -0.15065764639028892 1.9349960412338483 1.3938166209996383
Ni 1.4579012065203079 0.5789851337852089 0.4957850169312079 0.37973599608232667 -0.6982465696952684 -2.0304212495133935
Ni 1.3939939517380382 8.179623416440549 2.323593314296435 1.2404017235791862 -0.30249825734508545 0.09395325171970915
Ni 8.57683820542395 3.987818311699076 3.272346142338032 -0.3580788228238672 -2.2547551425419106 0.3197076792448365
Ni 7.873465472837888 2.9727211274448506 8.06158163683437 -1.8280875149050517 -1.2710446452760238 -0.8589762556095787
Ni 1.9773265750997835 6.078907471801407 1.1468718666996514 0.8508888506157539 0.012835204091455317 1.0511623602609572
Ni 0.33834639343487843 2.4439589940765147 12.514182789956312 0.13066269132560077 -0.2805721466959555 -0.04069747771936217
Ni 1.7699718107908644 4.459109757594497 13.304647517304355 -0.29411054750202253 -1.3324829550871633 -1.0492746563199413
P 5.471241256039034 0.8647808844390176 11.541810192313076 -0.636160341887485 0.07969802735227564 -0.07762520398364696
P 5.733783971740225 6.591475276663213 12.882091551183093 -0.3490781619871537 1.196649003973268 -0.8429197163673483
P 4.714757487675056 6.547738427577118 8.689898194198397 -0.1161128185358839 1.0988252135545593 -0.21876591202243612
P 2.389949832627526 4.405624502786967 8.561966741187103 1.1994911014077534 -0.8234469523547172 -0.2211503530942127
P 3.7658502942837444 1.468547737912816 0.7410603310584514 -1.4249655357986168 -0.6124228890612292 0.22658026586053237
P 1.962713321993371 0.5096488964308192 11.024117457840712 -0.655922869226393 1.7612509168964763 0.5677828817543512
P 1.5321836838986158 1.1587785806743833 7.606300216573395 -0.274824702689217 -1.1322408129005275 0.11437141036474498
P 0.8476341685021206 2.65778774759775 0.9884621448214744 0.3570825203488689 -0.24892598054558418 1.099284926799797
Ni 6.925456405117648 9.027912468244493 12.62091660603514 -1.725193509052287 0.26756236469984884 -0.47411219427206736
Ni 7.0105818788790115 8.746265871081526 4.968445245588015 -0.12312293130512988 0.28127791451372847 -0.18431827186752775
Ni 4.057189164313705 3.7137496498857847 0.45188444701965746 0.3599174186945027 -0.42303671575249086 2.200538547290191
Ni 5.747433610845383 7.638502699619222 6.787326548001809 -1.3590884734898334 -0.10676171633828709 0.18448950733806938
Ni 8.253887182867377 6.888109345962206 8.995970067424246 -0.5347223517549565 0.057799941727603686 -0.21411041552829577
Ni 0.2742660623514124 8.57986002408808 10.094205622392586 -0.8334410874529518 0.4350705069885733 1.0547408216408352
Ni 6.069888793187718 8.703399081239283 9.94806373585272 2.016926814571385 0.3554195308241492 0.35741342132572634
Ni 5.498446979491947 7.212257869413543 3.3204482564045694 0.12201170051882211 -1.0452753053525612 -0.11068701953462229
Ni 7.208384702457042 1.9044193526553057 2.767894212680972 0.014309217533820518 -3.6645807373752954 0.22161957942114735
Ni 1.4825061077174049 5.657022293290726 7.0537452373022225 0.5660815827925283 -0.06175686949282267 1.0565192536974966
Ni 8.73570353897068 6.42514427347569 0.1237224244757143 -0.5315637515213169 0.5609429760143824 -0.2877627509071238
Ni 7.604355213166977 7.081122165961183 11.741271741739867 -0.35951349838786467 -0.9293054401524447 -1.151526914823649
Ni 2.058896968079817 3.2689061339083083 10.492210949076046 -1.24348833292431 -0.992167112673672 0.3672234654376127
Ni 2.5483754588144616 8.571327830212889 9.483689728719705 1.251296001894187 -0.3973665646798963 -0.14039997321802272
Ni 4.5967568721621355 6.0933803927717145 1.1024361635757534 0.27768479784583144 -0.5321828731625544 -0.2413299133658812
Ni 5.038279194251791 3.332710478457434 11.010643701679472 -0.6210209151428853 -0.23748688547070715 -0.5049186381299626
Ni 9.36361500423515 1.274749057951651 2.817160147929608 -0.7749418056654783 -0.34896091968299897 0.06563255039814503
Ni 5.07940586560633 3.5680474707057135 8.391451969248498 -0.7431341742365781 -0.34834076960049687 0.36906926039709986
Ni 6.97623792743622 1.7630674696944928 5.478634888516626 -0.8555628590526556 0.5913946076360201 0.3485197183805223
Ni 7.6002949366956685 3.3207541804612783 10.629781348742613 0.7154919870392774 4.2947506660073 0.710240508832351
Ni 3.271750198533372 2.240505463151318 12.317322998332907 -0.7060961476466743 -0.8566764038318085 0.3225569757681735
Ni 0.6016534515040554 6.28887241384188 11.585339349837735 0.04407976392803377 0.12244518851181492 0.560550368561654
Ni 8.41883357564533 5.2929539548553555 7.071833114098599 -0.4881205927360174 -0.6273854239083324 -1.2485796314042883
Ni 2.0734447328560477 4.022648747880366 2.635198015875122 -0.3522272491390966 -2.2445812873327022 -0.5595435245636944
P 7.163459707951924 2.6541391120590165 13.0289453894268 1.3546090975622413 -2.349740949291192 0.3865172806702182
P 1.1266986543607538 7.641870670885744 13.774704040402051 1.8477891070990369 0.47814059870517 0.12904546743715195
P 3.95637455773579 4.598478279698358 12.304534062995861 -0.8748201646203708 0.6693442848386215 -0.2149982174498878
P 6.301315196576535 9.160292449970319 2.919814041038074 0.761560756372882 0.7422566567276313 -1.1262298308197574
P 6.858115690738673 4.846604207283684 8.639919371698348 0.5679114369124154 0.021024424770467016 0.5293916835706625
P 1.2602574260298627 -0.20495976251939182 4.283688038630085 0.1899155634496471 1.60063718773474 -0.22090558407325828
P 5.021598381006762 1.5469840465198355 6.727927696978809 0.1738148012330426 0.2630613915057018 0.0973638200631549
P 1.8660244802169461 3.7741860231683884 4.981672017189709 1.584547224151413 -0.14821072751169312 -0.5097618251548769
