# total energy = -340860.0532496085 ev
CRYSTAL
PRIMVEC
9.35840327472839 0.00000000000000 0.00000000000000
0.00000000000000 9.35840327472839 0.00000000000000
0.00000000000000 0.00000000000000 13.69696915446520
PRIMCOORD
 96 1
Ni 4.6688418220432695 0.7524240357149101 8.660895158459395 2.106592237549017 0.27666689810427836 -1.5953995934848846
Ni 8.4769351560856 4.668345826676391 5.84462036355684 -0.31033420844973647 1.064082410756735 1.9550519314434585
Ni 4.134561227883254 9.245475297862814 4.5343400444698165 0.1841218395860055 0.5541989724223294 0.854188090192316
Ni 3.924876846934431 4.4149015526044435 11.509768079049667 -0.026152232915335607 -0.4568258963877939 0.703126266385073
Ni 5.283043179092821 5.665895451904406 2.6619781229890607 -1.605629755853325 -1.69000924784167 0.5365200670853276
Ni 0.4177937426477283 1.992628632024785 8.424854706723007 0.11797583988655166 -1.8420951420380534 -0.9570736114046485
Ni 0.12140375652659131 5.798737984599601 13.240571986982884 3.0374665648504786 -0.1835058032685614 0.7059382819125714
Ni 0.5563673614311618 8.688856195386954 3.8012925824742023 -0.29102599503942783 -1.398005462270005 -0.05538156209409817
Ni 1.7901970135161709 2.7735218659582266 11.08042325939555 -1.0826892272246451 1.485012107468552 -0.4249583582552359
Ni 1.7543730462631093 3.6899060606779344 3.5299962185558758 -0.25694036620962846 0.5813251392151602 1.6276270860600228
Ni 8.687742545412265 2.2575743835664324 6.430097037981901 -1.9343648354077525 -0.5496776875132081 -0.4444177525314282
Ni 7.555506782068767 6.621528789429584 7.061061166751328 5.371415541414736 0.9339156852309465 0.7883349391429326
Ni 3.1965684802932963 1.8320852260095628 2.998184371146477 1.3422829718967206 -0.11305757664932788 -0.3420469661719851
Ni 7.8749371567418995 4.891712193028551 10.106294909727682 -1.9829597135973205 -0.1142510827367968 0.10683319300617085
Ni 0.2441747757532015 8.509670850299605 0.4358610757665268 -0.09656806363473691 -0.21987020083020842 0.008517550552707911
Ni 8.041657108835235 0.8873937334457956 0.6681048233455046 1.8020257848209933 -0.8657117745611993 0.30520742874613244
Ni 3.639482984512967 6.180841585159294 7.530511423099017 -0.499310805024882 -1.1604841240169368 2.3626653706623437
Ni 0.02490926166078211 7.89034108832459 11.887914010917793 -0.9722729448529063 -0.6865403370019337 -1.6171187303295311
Ni 0.7537445063991858 9.274121369900856 9.744339015306736 0.5490660220711382 0.33911745123001596 2.4921926628319206
Ni 3.2127865929499206 5.186090122472727 5.200136149758547 -2.937504387932528 0.35901213327141396 1.109379849141954
Ni 4.926871713658058 2.062339377079136 10.636847116073273 -0.7449701990040525 1.83323460632363 0.46707971290531813
Ni 6.047334605840544 0.8920663841379205 13.57816140712567 -3.2121023193229195 0.15744972961145787 1.581841909405108
Ni 7.950188076460255 1.480527453327089 10.18279236874544 -0.5883622485675996 -0.4751858869522204 -1.6067978080194973
Ni 7.691662189478588 1.7673531514302976 2.6345439641587713 0.5855967700073205 1.218424705087463 1.6503700361834932
P 2.117666256494 0.5120637450851016 4.467375990739597 1.57381184001178 1.2041152304433262 -0.7287951319060867
P 1.39009720370161 7.66312841827833 1.995264894191762 -0.12962396564844128 0.0805151239369323 -0.05411812200064228
P 4.516842638102771 8.366852259847942 7.41762100591676 0.06943392642210623 -0.19956002851794663 0.49745164032895617
P 5.498024416223784 1.817888528433049 4.938647392340014 1.1000048356849572 -0.1719309539467684 -0.39235188507412433
P 7.140985673002124 5.179997802022951 1.6127495238935285 1.1536455038285487 -2.8171011695514068 2.7283687999110042
P 8.816027535774063 8.441438732942743 6.232655320032152 -0.48795064281705636 -1.3057008018973124 -1.4155609546552652
P 4.547538200430369 7.258611442177603 0.4708100323251888 -0.629565976499419 0.9067848904524254 -0.5967309322472691
P 2.093184673857112 0.624661244248806 11.557927357492975 -0.08691665658790192 -0.9891915749851158 0.5972783201103068
Ni 1.225660701976546 0.371210419294655 6.32720513872367 -0.6091956403731831 0.21609222184501495 0.6535890788868938
Ni 0.45640370651814516 5.551760367103377 10.904375786883948 2.1124098726720586 1.0628454530258404 0.11723587639673357
Ni 6.281528644635702 8.601682670057206 9.715370078360063 -0.22875027692865765 -0.9204940125084019 -2.0534089686578185
Ni 0.8528425090209515 1.4678187418512119 2.8425316666167433 -1.1889812030153655 1.0515356844399761 -0.10313234711581594
Ni 6.587801104481821 7.660470631784111 4.482908132445424 0.27737626546647715 0.09494004111301069 -0.5649058173168722
Ni 8.637338186053594 8.62035268433878 8.315553237148258 -1.6686945455242939 0.12361581178114842 0.15372265846885783
Ni 5.258224693942581 7.2160774998669535 11.650039312164267 0.5616286892274972 -0.07321319095888036 0.9675549705519466
Ni 3.4444725797012383 8.440334441371201 2.318472320375692 1.3810408093912085 -1.485429654621945 0.47702808236728167
Ni 2.465059539775321 6.242082975364109 3.1791899256462393 0.24873469047038457 -0.3789901190552376 0.3148670633230835
Ni 1.9962222588338696 3.6985345083809964 8.647842057747647 0.9651846705475571 0.33543640283400294 -0.10167376029241844
Ni 3.1423552508531225 2.2700865685761875 12.744358569310664 -0.5525622081498548 -0.7882467503045005 0.6375829332666245
Ni 3.2173160600738706 7.697838735556702 5.871438739459949 -2.3873893557715853 0.2723569578750148 0.17094313611220238
Ni 2.2411410276373895 0.5384385326789635 1.0070175216935122 -1.156325621763873 0.8864181538706154 -0.7139508678044028
Ni 1.2487478825442844 7.2357207880759855 7.253079690076432 -1.5085919516710213 0.7042506097975032 0.8527061063301508
Ni 3.6923486038997337 8.689941770152199 10.660515453476542 0.4905857664470583 0.7420262858843801 -1.1078307594872792
Ni 9.041256224352807 3.7699297660021056 12.104326147890186 -0.2446461222233077 -1.4577062205647477 0.7049509782986375
Ni 0.7797524445896202 6.695029687759141 4.892064068986941 -0.3136851271998404 -1.2093075732775431 1.2546281515912132
Ni 5.1451471086973495 4.442433974667795 4.84605628742751 3.2190828644058107 -1.1470416253587858 0.16798199660134938
Ni 7.276111656065593 2.1032823908545133 12.384525160723832 -0.36729417077454807 1.770273174999745 -2.072650847606566
Ni 6.143903967931542 7.483269268164278 2.0943076822349505 0.825611564106204 3.180741031402819 -1.2853140107108445
Ni 7.277234664443431 5.011752430216383 3.809373563593068 -0.14303432551707626 -1.0877769261601975 0.3820047375118453
Ni 0.06689105818566041 3.910717582970512 1.870991851259792 -0.051662204260981996 -0.3305042556397082 1.185361861095223
Ni 3.989739939157777 0.06019231321185124 13.166499290220942 -0.4181763023363959 -2.126818077677589 -1.5800135979471175
Ni 2.7446418338414693 1.3634257547279354 9.533419325142287 -0.6445925318152383 2.351219847829564 1.7995768090598685
P 6.825027265897145 1.5743267280860844 7.813614348429691 0.9560953066517792 0.27999339137435003 0.6988217254724481
P 5.968078289574561 0.4477172367155612 11.255237294372163 0.35121989092050476 -0.19990532767250732 3.170738925884784
P 6.321573251708808 4.003113097257209 11.805294284560185 -0.6557218089591804 0.2657800759884455 0.1124335699120838
P 9.332414863113843 3.2203388242908866 9.975228601950102 -0.3488493338057992 1.7042032799538651 0.5991320854895938
P 4.403867995292177 0.8275186701006839 1.414335467856633 1.2550539262747225 1.129930676710112 0.5802221359589685
P 1.6644762256171037 5.268724822275375 6.750989195226854 -0.2610818991818278 -1.0166915801775975 0.4063898512244291
P 6.2964365808515135 4.8257448092336634 7.067279825643611 0.8865083995915765 -1.5872993329752534 -1.1230768870130723
P 7.73341002592475 7.1248049939580955 9.738832530894065 1.9172747126946852 -1.2686923429937633 0.48130356981418404
Ni 2.2344310525798017 3.6608669357076495 1.168478987057618 1.0169456051699326 -0.3799280574884747 -1.4309657192461096
Ni 8.998946883717725 6.0027979652560814 2.780498555505551 1.6527678469917082 1.565400733129949 -0.37744000095929836
Ni 6.109502477957077 5.946947015264892 8.830381454523474 -2.045746309906238 0.5144463751147398 1.5200840114710208
Ni 2.5057498766656847 8.979659214828342 8.276516530094263 1.1748805019479251 -1.8743671146978815 -1.6191293330016565
Ni 6.260397370326032 0.06517004784662225 6.367666194736892 -0.2512739119524705 0.14171303560249143 0.07617715868321075
Ni 4.5391249959997255 3.7051321826008 7.309593215010545 -0.7406656580914276 -0.6070983915245222 0.27192192722012526
Ni 0.0025520365386389457 5.0531259305365985 8.34046811385093 0.7248135215505194 0.31271376442550664 -0.603219111074774
Ni 2.3022046081823806 7.655997315079054 12.19526081544538 0.1899937249857502 -0.2645230636528928 0.7979390378915999
Ni 9.155934096536459 0.8988596489835311 12.193521088300043 2.2535333543196674 -0.3610139941927912 0.2007933867044155
Ni 5.663406116666863 3.104191682812897 2.543842320841981 -0.5812850300058441 0.008502381044056326 -0.028345126801596347
Ni 4.797388847693231 3.3440194803035466 13.640961907295054 1.9733617854962402 0.5618747438000323 0.6265071350684371
Ni 1.4494294796640994 3.093691554480103 6.257090110653298 0.2979178370632547 1.0396618158205255 -0.5788825912119385
Ni 7.753165614971565 3.336167780061823 0.5927827797632186 -1.935069574784261 0.06388317180720611 -0.5766102502379941
Ni 7.1565954894540855 8.444714174044773 12.785202384012663 0.4099012068117973 -0.23824150424854454 -0.7703048211140993
Ni 5.934706223946448 5.651745546343635 0.036238544512547086 -2.5730893384779883 -0.4383666612413418 -0.886143817163306
Ni 8.082459746563384 0.49096241766550824 4.701142350510861 -0.5729983645170197 -0.01693765629560309 0.12278020325373047
Ni 5.841281285313399 0.4189102001433631 3.3159817044701683 1.247280967197523 0.48265108498101394 -2.3274314871607142
Ni 1.8733464254919943 7.069468756140083 9.744749849204961 1.0375244577625486 -0.35942736643196166 -0.14308034826366325
Ni 7.916675634784912 6.759696253516365 0.6677014761697975 0.6147044860065543 3.0286463954556875 0.2538005350290661
Ni 6.526147944538464 3.325199731571596 9.058763924963316 -0.7361626280147514 -0.4494324321372002 -0.7088166319016308
Ni 3.6434696642542947 2.6486526927456873 5.273716594514869 -1.5084963066334214 -0.5242031973911875 0.4636040956518919
Ni 5.636603650049107 6.808434817114574 6.43526100483933 -3.8333183811957467 0.5539210361705944 -1.823162052578976
Ni 7.523603985734994 5.946647546364137 12.198726232131326 -0.2501102306616725 0.3068999859572069 -2.1426329332226586
Ni 2.5777440720883082 6.200587815802961 0.7484663670233428 0.16903280646336694 0.11794241554545495 -0.20839793852455077
P 3.6441060356684036 4.3509836590991116 2.719656769115183 -0.3155021258039212 -1.4838247720286704 -0.11718316878192721
P 8.116720860490618 8.688594160098791 2.6160526953773386 -1.8098470806376252 0.6992374728536279 -0.69794960728014
P 4.02032320064759 6.16783340478266 10.281341968942694 -1.0745619701318205 0.8813391966858112 -1.4227944962892272
P 9.048434119567828 3.3918877124089306 4.374031534373626 0.07323118868100938 -1.461895833166063 -1.6849984248906402
P 2.0618620985185543 4.830704762902452 12.818308670991355 0.280421222940388 -0.8459723871507431 -0.8351249029132779
P 2.7385307965853958 1.747850239268495 7.403321365905611 0.3910725041410684 0.9788940497138497 -0.032908577802562684
P 0.6065218514257629 1.9639919183898924 0.6096344563130064 -0.3263493529310702 0.6060727784734853 -0.3239505136815905
P 4.389325036799162 6.8715853215617155 4.3571424242112435 1.2303250560694745 0.592739808810005 -1.0241755472594685
