# total energy = -340894.32233459497 ev
CRYSTAL
PRIMVEC
9.05218541655647 0.00000000000000 0.00000000000000
0.00000000000000 9.05218541655647 0.00000000000000
0.00000000000000 0.00000000000000 13.24878836606056
PRIMCOORD
 96 1
Ni 6.337480141747242 2.212743314630121 11.529930363928267 -0.3161101917015653 -0.742797873943082 -0.9591693175914126
Ni 4.480388132691438 0.4121668136323522 6.012432464004777 0.0403542354473305 -0.7176889946905962 0.815646225363376
Ni 2.87651290112629 1.5264518912770997 4.578410625693094 0.053974397333926394 0.25862906676596104 1.5375148053529586
Ni 3.628233519335153 4.247357728267817 4.7575868645168455 -0.9763921092276022 0.2609296898746796 0.6953553641904024
Ni 4.998363223843364 4.451475453060896 2.7622535034742577 1.1458411772927815 0.5955762498175355 -0.7262327704955494
Ni 7.264423909489106 5.963652048227361 2.5674830651515905 0.02642965494643835 0.46285590463195775 1.1003514203910985
Ni 5.133059740093353 4.6738061745404655 11.494396916019149 -0.4985687846525349 -0.3753764335620503 -0.2287083679471287
Ni 5.774126446028031 7.83253000245504 12.528212593045327 -2.0630724598895114 -0.056566069320502586 0.23210993742950992
Ni 1.7704807007574237 6.4734620683001545 0.43900382718923014 0.40080798626127745 0.21177174009279012 -0.23922083744267836
Ni 2.7785954134733233 1.7641170145394303 0.2851537922071604 0.2174777893386319 -0.6066211947777875 0.17739480527481705
Ni 0.8671178755445399 9.1637986757629 4.665508036338425 -0.4334589395270793 -0.4214390322480677 -0.1398415296113914
Ni 8.469414598812602 2.2258780354015415 1.3182769770631038 0.6717801479736237 0.37070396778704545 0.03301347881154315
Ni 6.658787456551905 0.6795882801888335 4.920785091187851 1.1231236810906076 -0.4507879177238301 -0.14038660348158405
Ni 0.9681221583615683 7.259517625093441 2.5625541502928466 -0.6869203460491717 0.060448177983728146 0.863383383538339
Ni 7.709239239597186 3.672725009749716 3.965746056141881 0.3027633380810141 0.474017577675732 -1.0905922841218059
Ni 7.524131103791001 3.907357650959375 12.584427568553664 1.2052747979690661 0.33678288955956837 0.8310054814282656
Ni 7.666739229933631 8.730832656123317 7.051349047409107 0.9952694057480795 0.03998605347463436 -0.2345936230833121
Ni 6.798390257197559 0.6884558008419579 0.27348824109887 -0.02827930656066743 0.1484588389667572 0.9093629355922467
Ni 1.9545206787062501 6.277120170621238 9.156263636775906 -1.4714446531967627 1.318286094761491 0.3128819145722547
Ni -0.0398115106496945 4.80403996347115 1.4618319617809858 0.6283678424262596 -0.6548059820131304 -0.17055644219674496
Ni 6.462255462983119 2.0150164326107314 7.007721135465663 -0.6622428979071497 -0.1192891593813365 0.19414477103964628
Ni 3.0934847289486016 4.273219821475224 0.21371394635736757 0.7230109211241419 0.05580296590223292 1.4591120997733387
Ni 5.768025273181762 5.559390507957987 4.977609278762292 0.736013761141713 0.40011970194500124 -1.3061810839678407
Ni 5.295736560895004 2.8914490067588487 9.257829155077308 -0.21499847456020393 0.07870943818676121 0.1504406452834764
P 0.16692772698652944 5.616111500620786 12.555571917690083 -0.6952412072100413 -1.0883366553184097 -0.5184392983242168
P 4.083178244717678 6.132647294320846 12.765683999543697 -0.8233615917297625 0.33728271201412235 -0.29233391521757396
P 2.290293385511416 8.435550373860236 1.3802989293976755 0.18646411456593692 0.9691948201482147 -0.5295325800239009
P 6.208758067750276 7.625515578387768 5.674389469143462 0.9085370972568418 0.3693947620573187 1.2176695720889932
P 4.784740704556837 1.1410098441047505 12.700473867570466 -0.3945144399430819 -0.18683743874495565 -0.25476238472170315
P 3.9102815067892642 6.238023782604861 8.193872416884624 0.7418563359654191 1.4593175309159254 -0.21628762568527266
P 4.8025010919817355 0.9533308876927187 3.809371366698647 -0.5572038206869243 0.29129416109914996 -0.360095853253896
P 0.3031504416666096 5.5525380037374745 3.7017110120806365 -1.0370158935572464 -0.7806213725487589 -0.11376128758457182
Ni 1.638626570670236 1.1236930137562136 2.487963238763845 -0.9727514271512215 -0.7007716501099673 -0.47631537257097323
Ni 1.9837592370051391 6.241979587551181 4.88788854483677 0.05522755301473715 0.8990846935946902 -0.203531611571185
Ni 5.884490688374797 5.812426241744006 9.146592282074192 0.18314070661965878 -0.0865639012341735 1.0406033537981885
Ni 8.872662294336008 2.5715176241094286 10.176049331911235 -0.9277987736999311 -1.7084779960698189 0.12567140875859648
Ni 2.6273152938785773 4.997811040544221 7.018731308363168 -1.0771356443962674 -0.14506935366923404 -0.4830076969894843
Ni 0.7932773901712592 9.064767769326416 9.15797268934768 -1.108831947058284 0.30879694586960366 -0.30083861025447545
Ni 1.6106462661185752 1.3850839145112337 11.297453953240835 0.0026292100927309556 -0.7628252249076024 -0.18187752363651902
Ni 3.9898411627920303 6.976917454340186 1.5439868792897244 0.8184857516947001 -0.16761638573181456 0.08106122624838942
Ni 5.602551327143469 7.853630646230492 7.836737458150806 -1.2470513676852202 0.7465326583951658 0.4882355210473269
Ni 5.565202010876837 2.952424526480619 4.8230486472395215 -0.6099957676769753 -0.6636420922475216 -0.060980139227798213
Ni 0.751836486179831 7.353895708320753 7.053137759210922 0.3190044825302248 0.1438899886491522 -0.38719219525005577
Ni 5.183163585351665 4.671633650084821 7.148595768136393 -0.325217296209156 -0.863793474492564 0.085901070839194
Ni 8.265305926204755 7.122060192347735 9.090775602716056 -0.39868939725637786 0.511653642860951 0.7676385871358458
Ni 4.6762412123678345 0.4768455823324732 10.338983234773469 -0.6628609911071228 -0.6109501611704445 0.6495491044895653
Ni 8.315844276354197 7.381378142684661 4.803388206134458 -0.42057308470334664 -0.7409027138028982 -0.1967428707841257
Ni 7.291118803737843 6.166339527753808 7.0728253568716815 0.2167367974075493 -0.7285300511701582 -0.7387198472189664
Ni 2.3561208765174593 5.106346741474152 2.6087655559014618 -0.5809428161750769 -0.194142199936485 -0.32300589038013405
Ni 2.2726868852354594 5.2610847958274665 11.606216749751194 -0.2942151914006868 0.5930678815733851 -1.6794101321695851
Ni 1.1482244357345384 3.063123699680963 3.863889962694535 -0.8504615332703482 0.9292712444803995 -0.14249850761826424
Ni 3.4613926933268493 2.7953329039670223 2.6944988022323524 0.7875911189983726 -0.817739617557295 -0.706949496785905
Ni 1.1123506256607003 3.368345281328621 8.159491312155518 -0.8764391882810326 0.6871538022162166 -0.627248898330468
Ni 3.767745798128489 2.667841927161588 7.135796883437075 0.19146053933926382 0.6891824026104711 -1.32374660365543
Ni 4.006786853546061 6.871984523132534 6.018527300321385 0.6423484729760679 0.27503116227306823 0.039744883998105746
Ni 0.67077778830267 7.289715715026906 11.20036655097363 -0.27788585811304395 -0.2684519663936538 -0.2877817770705173
P 0.13163506720457652 5.425481531823169 8.080250293072915 0.6779685361725227 0.2679961098031578 -0.14819041579671896
P 8.575424740062845 1.4920807439517496 7.910215856114812 0.05020464587884902 0.7169089219914621 0.5703053910658887
P 1.9554711581555948 3.3968325082532655 10.347568327247362 -2.1098462257099406 1.4028985286962483 1.1048459658273424
P 3.966233063707355 6.201099919044127 3.634195288528852 0.049668570869720916 -0.32950178251712287 1.06702349566293
P 6.9189019991892335 4.089695818084613 10.360843356889873 -0.4730739828155401 0.1891894839169 0.913898361568755
P 6.230284164231625 7.824899010304587 10.052611018434103 -0.4293886261124476 -0.6169369748814988 -0.02664717027388314
P 2.4733195187142747 8.409760698134683 5.854824866932964 -0.677703455436594 0.06451540607456632 0.8699309548488695
P 6.891826913160758 3.905836883840424 1.751568875371034 -0.01999418373373976 -0.4052349116843796 -0.8460410356051493
Ni 5.117164102826218 3.160181229736903 0.46375159639459623 1.0975640874539485 -0.7544028051718621 0.38806302789078334
Ni 1.516440174410669 1.219057785173797 6.915111849232656 0.5707571338913267 -0.6620665202302856 0.20262838303062522
Ni 6.912565469526935 0.8739622327983447 9.257829155077308 0.15192494313848673 -0.4592779574727123 -0.0857285498170717
Ni 2.7795458929226684 1.995554234362245 9.143014858470565 0.7818056226648471 -2.4114530815890083 -0.3075620450212381
Ni 6.401614874114928 1.6903326527145872 2.6096535752727066 0.5518543834495528 0.989993759171437 -0.3634498573277934
Ni 3.9551350846131013 7.0269307777461805 10.776709798626484 0.6097453422290661 -0.3604655778884889 -1.3356387271073256
Ni 8.178549782942664 7.260504313283713 0.3658322983045836 0.12456403462703065 -0.3964152565102205 -0.4166601228021857
Ni 7.500025134518574 3.7065439737759234 8.394604624400989 0.981304201817239 0.3950823966314099 -1.3574483667832493
Ni 3.092398466720779 8.501242082087801 12.52899470184936 1.3835417214361914 0.05258780139904492 0.6269578494526107
Ni -0.00841853226562435 4.846322720689141 10.352443834213236 0.6677262896192243 1.1050619384928904 -0.08885346859929859
Ni 8.639876298913647 2.2023695103544165 5.752027346221506 0.01181319058484417 0.2599920085517587 -0.010841056479561973
Ni 3.693970488488878 2.7458627116749392 11.425330553137146 0.7436566223989515 -0.08963482685001337 0.3838271354325648
Ni 1.0907521116974963 3.3313852090269602 12.578757279724432 -1.5800457367366338 0.2690312359358915 0.1914777657304444
Ni 3.0140608557243134 8.46325911285494 8.224026151110452 0.56284584946405 -0.18930338378694492 -0.18975589794333128
Ni 5.713377230937059 7.764584300104743 3.607645229243824 -0.8610807035470912 0.11581714167233602 -0.86594883027267
Ni 3.0893297759271805 8.300754283572696 3.634076704902315 0.4695184042537978 -0.2084938406724667 -0.08111984740046675
Ni 3.5069976025249305 4.624580391249642 9.47481818205156 1.3810361814055183 -1.6211628184919178 0.3853613126889041
Ni 7.123074037093703 6.090047710619741 11.39100285630091 0.7969607331387307 0.6303612187072047 -0.07916246656377979
Ni 0.7747982592389522 8.947360926869267 -0.2779582101663596 -0.7610691614484442 0.5410606352681584 1.1055252512825542
Ni 4.402213461029145 0.3827770838400914 1.6308462174634577 0.2919618765901359 -0.026340694777057864 -0.024376886182467694
Ni 5.995099339722823 5.652990103255359 0.39012655302983373 0.4147263961145825 -0.2988033249920015 1.004429989201425
Ni 7.612118344244623 8.627185135218587 11.39872708595925 1.6632394359469937 0.10449965977698777 -0.28626431198472635
Ni 9.199916894837997 4.825412172803559 5.811991736852877 0.05973109731204551 -0.3830452629612177 0.5350792208737429
Ni 8.168492805150075 8.661529125988242 2.3724872274166513 -0.2701532653554767 0.7697697745462355 0.22776734419009806
P 8.417047707246326 1.3122590843209672 3.644185280150727 0.009735225009892911 1.5135804060245481 -0.18654536142583358
P 1.683199530751886 3.1826215969266696 1.5850720324015408 -1.0420370009209214 0.18598331827477646 -0.5445961592252427
P 4.619900411484774 1.0172483676148407 8.199886688752668 1.2480690103164571 0.050395421733416434 -0.12714310820811653
P 8.358715425612257 1.4265519750583575 12.094951472167185 1.1336729173613636 1.4746454195222474 0.8762299004837037
P 6.376132972687259 7.757505491253433 1.4940921395102678 -0.6212425442353882 -0.12719401605070998 -0.7542462249893397
P 1.975630374666934 3.1855364005713263 5.907250597703248 -0.4280485671447854 -0.12678392509648487 0.19787518461635598
P 7.02550958466478 4.106904022210368 6.08148524860893 0.28179676313167595 -0.8710640400120482 -0.03372747415943223
P 2.331326941167411 8.553455086505135 10.505918203508186 0.6719940637566427 -0.3843706666408606 -0.6585286822803562
