# total energy = -381173.0910636334 ev
CRYSTAL
PRIMVEC
9.18819960172583 0.00000000000000 0.00000000000000
0.00000000000000 9.18819960172583 0.00000000000000
0.00000000000000 0.00000000000000 13.44785887457142
PRIMCOORD
 96 1
Ni 2.1548717110495876 6.995803331298217 12.265254206810358 -0.2813820441917606 -0.364396794622095 -2.8121322555819055
Ni 4.743472386564078 2.9195320622983565 13.142808129515274 -0.11447682559435769 0.2714182481108293 0.014532132177904005
Ni 2.1998847011335525 3.5884329967977724 1.6332557792952094 -0.9905172357750749 -1.5785943490020877 -0.6566152673077272
Ni 2.8416436938677037 6.788168395613907 2.4839268674649815 -0.24160450718350648 -1.5646209175411312 4.345145316409769
Ni 0.8875920308222309 0.45964060629707043 0.4246390785514375 0.12648490579882732 -0.5971219970381008 -0.36212085410372474
Ni 7.287455164579542 8.35663082861924 11.70453237852682 -0.30331895347416793 -1.4840093772356506 -1.0428492124095718
Ni 4.03632097692289 3.966224201795197 7.436692659750144 0.15431761174037942 -0.48822755062752693 0.6643697144421655
Ni 7.781642482739584 8.175393590528566 7.738355036549836 0.21117730104190083 -0.6076282958860633 -0.3667573244344716
Ni 6.846936120573497 8.322404784924043 3.587176051085691 -0.9287891626376584 -1.062438447395409 -0.7353221343913271
Ni 7.365729437395483 1.2342324825472188 12.779473637846714 0.06950540308998997 -0.16465473200032935 0.8795674494973691
Ni 6.773991003554393 2.8455394905191835 1.7679897013187333 -1.2629145599697218 -1.1838708783719933 -0.632699122811762
Ni 6.17615160514589 5.767138897738727 8.10398933459072 -0.6102719041564973 3.17208541261035 1.2228490594074035
Ni 4.8352808774640526 8.850763017581384 5.170782474753689 0.710796381335821 0.3349895451045715 -0.03512692561012015
Ni 2.8186272537451615 8.903218449381619 3.100686606592182 0.522644594654816 1.4031692658591317 0.3840348805679967
Ni 4.163632671269371 3.4199765444198564 4.84594929607734 -2.9455678816669533 -0.8821318677904356 1.7498586158991347
Ni 7.942959703989669 4.172692236123993 9.922408469686925 -0.1531117643577363 -2.6169487588650995 0.3562237718929994
Ni 4.826983933180358 6.371217083709387 4.305816385568886 -0.11012909014862324 0.41373677850780355 -0.9927209282946129
Ni 3.2062130795691846 3.0641267601859568 9.767488991852938 0.3776749997882399 0.7227846640459488 -1.4929043657324352
Ni 5.115456649382881 1.9286490474738993 9.203701061346289 0.7835447168431409 0.14141298786356934 -0.07859065322070981
Ni 8.668662088723638 5.882055710757741 8.940499569460348 1.1428653824939092 1.37975962868594 -2.054355391731488
Ni 3.1248515716709386 8.758586998695419 7.541680704227674 -0.5354507452805488 -0.44926890997614244 0.13499345749047073
Ni 6.597568382080172 3.704976121154786 7.765560376892684 1.0944044587790442 -3.008742714553225 0.10473028773055511
Ni 3.19011535378288 1.7094829212291938 11.485063041693673 -0.5946565662167436 -1.524579585348529 0.6016504810360735
Ni 8.062314417439497 5.909739756302338 6.578114206961826 1.5636942919618038 -0.9976818718443141 -0.22773674806247876
P 1.3810874775486495 5.110660409165729 11.046958656555574 0.46070877638196783 0.019367348783018257 -0.2711174290409589
Ni 0.7427033105458396 5.237558634527973 2.236620960973052 -0.8653428212575549 0.6255627688772968 1.0968089544554787
P 3.8509949899880924 1.6200633622381455 7.458774659968309 0.01142701089001903 0.5142879951600046 -0.11100197967187979
Ni 5.722989598421836 3.882528891185922 3.661556364890082 3.1090244795941233 0.9598714858647598 -1.8616915761127422
P 8.42744428331961 2.3524731327164066 11.244669417798226 0.1368143127492934 0.7487031836839234 -1.4314904814013283
P 4.904109681040085 5.145704202629751 13.110102732862105 -0.06394179295928343 -1.2141870128570313 -0.7819100094531953
P 6.5604848082939125 7.54422859199054 9.569563226738483 0.07587351139986287 1.117036337245947 -0.19402598607359486
Ni 6.042803263629543 8.132686838556682 0.2115546216548798 0.2846388605661614 -0.07984252334993991 -0.30849381280688803
Ni 1.9278312977050744 7.205854763490403 9.527229515672378 -0.5142113762857983 -0.9127189965486734 0.5463115992544526
Ni 7.357561127906884 0.7181671422012348 5.659154581355424 -0.8965866097631849 -1.5654259299409299 0.18826285833757253
Ni 5.289517903547125 0.9318855848736229 0.9992093613470312 -0.6681530927439976 1.2217298582012959 0.40087689182599995
Ni 1.8763957560659574 4.944335619106547 8.522822389783501 -0.03034158840633484 0.060741797964747 0.19624073433672656
Ni 8.651617978373412 8.13140049060572 5.105399246046301 0.6463660787758932 -0.30201797527455726 1.3116611332458057
Ni 4.00217762702454 6.813435944650629 8.817128693943628 1.0940488752118385 -0.8714828727170217 0.8137662347318436
Ni 5.740346107560151 1.2987703968868327 3.6190067311322065 -0.9097480868458075 0.26269475219490235 0.0005520158487280815
Ni 2.9171706949883798 5.404149882376997 5.620492474869344 0.3084339061032301 -0.8697301516919731 1.134517010529214
Ni 2.838326753794156 7.668241722662773 5.26008993770901 -0.5877356707271942 1.0833127197412569 0.3957614249763055
Ni 7.798319065103821 3.5243269278416953 12.870380766361052 -0.6758214079225329 1.4003719056196529 0.6462426658241515
Ni 8.050654592084005 7.306511490653055 1.2580391078396362 1.0647866359126112 0.09026886088958647 -0.7002345466595746
Ni 8.397040530678696 3.4798560415370634 3.387327195784551 0.7230556583191483 0.8660938404909664 0.23002888653076514
Ni 3.768576839130129 2.1671930867798586 2.6061280851662914 0.2591057492920634 -0.3753082993282762 -0.4601914704259171
Ni 0.18856298967139232 7.829448685517063 2.969005004492294 1.3866152181551927 0.6449807683925924 0.019656083668030663
Ni 7.694547538259914 0.5878031279311163 1.6211797284955862 0.3093916420308091 -0.7788887061283682 -0.9091647035385116
Ni 1.9406396480167805 2.8276133130025856 4.03890286102446 -0.9766299362700214 0.8605723964521049 0.3537722250287133
Ni 0.9335302726109223 6.356782422059681 4.769633028606753 0.3036416269209093 0.14724862070873995 -0.9672227840235086
Ni 0.6518145584308016 4.308640838141209 5.6416455481029235 0.10771996648649834 0.28875082585200595 0.3910143972096234
Ni 6.148844275786931 6.243795130967108 2.043724816346853 -0.5266485736078866 -0.5853728269219725 0.5571076614286921
Ni 0.37252361013824126 1.0665662153391784 9.317859847894198 0.9660063951179041 0.3034302822410516 -2.4764662532356
Ni 6.497288371103158 7.430010082144905 6.021587710638347 -1.4795564836706196 -0.14996473408832237 -0.8364222815684629
Ni 5.751932427318445 4.948093592763281 5.886101275063511 0.03928645630444847 0.3505136088820996 -0.10505578939077391
Ni 7.556237568932721 3.4139950264478904 5.650561777043009 -0.09530693753412618 0.1099416567281655 -0.619852605866397
Ni 0.05287533252422785 2.729226071153413 1.1299592800024376 -0.7333812086148724 0.5083019527798989 -0.14479784517540223
P 4.885549517747656 8.234492090675548 2.004914779846412 -0.5177895805553598 -0.10108214945500657 1.885840919665436
Ni 0.9730119665057574 3.141353578241831 9.961959075079132 -0.6635626451598379 1.1944175435395883 0.7185073768268335
P -0.05810984986467178 7.834051973541571 12.789989532345816 0.20098133434550547 0.016433720075991053 0.376003782733404
Ni 6.352427215425715 5.709124605150412 10.765455189787364 -0.1615580953528766 0.4120794454100387 -0.7068350826952278
P 8.9542405220365 3.8833374527550975 7.687240163078494 -0.0817680225074269 0.14264917426351562 0.010066640207382663
P 2.8513648090971047 4.7807029715447324 3.506690178614063 -0.25693162445888007 0.12157229898855836 0.07242437650899786
P 5.435941053165019 4.1780305801204785 9.558603542196302 -0.8640876086942151 -0.15696944754092967 -2.0630302937976666
Ni 7.284505752491983 0.9212732142781994 9.99452940519745 -0.7350362277197922 -0.1609960522018195 -0.1327969640597842
Ni 8.02320025153065 1.274191962823839 7.638262464845676 -1.0351477300002558 1.545133755350797 1.5010365079212666
Ni 2.5970446309925808 4.55072233431231 12.895300082631051 0.4290780368505642 0.5837419761867688 0.277831864946657
Ni 8.522487020496285 6.154320442778162 11.376539377990932 1.6107717050655805 0.45773863801005044 -0.9711231475191793
Ni 4.8034988948756805 6.968707330531201 11.895169144859153 -0.5594154836262625 1.400788167221465 -0.12180421249370635
Ni 0.9435913512273626 1.2694416636049353 2.5894662039214937 0.4939004326425881 -0.6815117734390909 0.9361512594296845
Ni 0.18230398807000492 5.3196551983981974 13.28266539166348 0.717268619323726 -0.7340180708679229 1.0212087513216608
Ni 3.911462531882882 6.69512868596087 0.7036350856352419 0.9159948390864675 0.2314314233052466 -1.9123865313644486
Ni 1.469624969373325 7.07044826525252 0.8758210282509782 -1.6159517066046236 1.2695266659696007 0.3837780273621842
Ni 5.346787951963812 0.8895307409483213 11.63855742976199 0.6214533746946136 -0.3243724317103575 1.1342203052244015
Ni 0.25612657815565815 2.11742060927734 6.058556431928984 0.42494910228385524 -1.2618537228053752 -1.9934552138120056
Ni 1.1780190770902486 6.910371450955146 7.2330656167530405 -0.14639784267267045 -0.581398929875889 -0.46115537700108317
Ni 1.2049405020639201 2.708662880337346 12.40837971157397 -0.6154400786209981 0.16011442092781458 0.4684519106624964
Ni 6.935161213610082 5.914646254915287 13.121183701639664 -0.5538120213965559 -0.23130518214002746 0.06028439871235425
Ni 3.967611619942304 4.920630064010276 10.913892392768476 -0.6116896104396303 0.5136624457608637 0.29983253758746425
Ni 0.8536057991378918 9.184331417664719 7.018074608429167 -0.2968929953431661 0.5325369140678635 -0.45368657942786383
Ni 8.902510958008591 8.027702469359012 9.664895392204125 -0.08944687920892337 0.531636256630465 1.3925650079807244
Ni 1.7617729654357346 2.647699175661472 7.6858683648707915 0.9424522619470478 -0.2787566907537715 0.08937026033471704
Ni 4.228960770778861 8.977358032355188 10.020227880797746 -1.1579847546338509 -0.5141244729989467 -0.1565400733129949
Ni 3.430882937404071 8.717414676065037 13.22014612478691 0.29881258096338215 0.9372609475540955 -0.550075180061943
Ni 0.35427860209379775 0.5453674278488972 11.447207659136838 -1.2134498775806908 -1.1426604655719548 3.1872454081802397
Ni 4.179859031850772 4.6162709506133925 1.7442409616841092 1.395345913159971 -0.3855952830765811 0.40829503866694195
Ni 5.464442848478442 -0.1316797644599578 7.873761534787719 0.9670566907592896 -0.31912172483437945 -0.1876617344184639
Ni 7.983920698028109 1.2573775574648565 3.6811492818231395 1.838107875255531 0.7150662123557685 0.14521796343195634
Ni 5.639514804604155 1.9931777736138636 6.074612810816865 -1.66765479140587 0.7428675508387529 0.7661159798437323
P 1.9287041766717974 9.125297234915285 10.330524408808277 2.685576901556459 -0.04068359376229123 -0.5447362843475329
Ni 7.912804032739297 5.832733455038058 4.145490571061005 -1.0194871406448636 0.16064278262745885 -0.42331413778359356
P 2.927746312785204 1.5080408321087928 0.30332727857622066 -0.21214480716149273 1.5553605752851278 0.7503641163261141
Ni 3.0563076022840474 1.2317332922424957 5.390695601629916 -0.27945345971048 -0.3249275328828791 0.3621139121251893
P 7.814306532494329 4.625679667054703 1.4660186010108107 0.9023690207729169 1.5800287674557691 0.22157792754993452
P 4.3443645583793105 6.832143119137453 6.788452310983082 0.6103145844689747 0.1701180691077457 -1.9820472290853801
P 1.1038243649187818 0.39334407054450055 4.659696219797886 -0.022763518948760796 -0.17530398418405937 -0.06349133568542613
Ni 6.228147626963639 3.1350780378810734 11.15189249065517 -0.6250254083165881 -1.3034084063187101 1.1841696405593347
