# total energy = -381170.16966061824 ev
CRYSTAL
PRIMVEC
9.25972861204973 0.00000000000000 0.00000000000000

0.00000000000000 9.25972861204973 0.00000000000000

0.00000000000000 0.00000000000000 13.55254881144623

PRIMCOORD
 96 1
Ni 1.4817787987600548 6.3196443472813675 11.026028232444473 1.3635709347412195 -0.7896940242739884 0.5184105019688104
Ni 3.2303766751976517 6.0319445817619775 2.8181576362039955 -0.2905140884000158 -0.6449164908135603 1.2577576983591305
Ni 2.732944058406482 4.477949160173287 10.029686072161127 -1.2325986825949995 -0.6961279806903689 2.581373689973967
Ni 7.180984295418273 2.372879514401928 10.275921699282728 0.03763760784711582 -0.4300247170345497 -1.3168917855171256
Ni 2.9413990671407118 2.0076387821474437 10.888429592417387 -0.1413044873101631 0.4152701844331945 0.8901699076035638
Ni 6.357257364582293 7.98406203162573 9.39695770982902 0.867960718496376 -0.8683834078560915 -0.6098178473382143
Ni 1.647546458957291 7.4273671522235505 1.707702285371733 0.13405397639533687 -0.8309363187532269 -0.44722925383829426
Ni 7.337955213509188 3.0588031652102434 0.7721511688801889 0.44822787030613775 0.7722231211827346 0.33367134051378017
Ni 1.479232373413488 2.4849963074791335 9.074312654799051 -0.3873477469913135 1.7038160718177755 0.364002901617786
Ni 3.9074480255284474 0.4345988768849925 12.310769267751452 0.40891904540418605 -0.763506567245343 1.3761084050865977
Ni 8.025462277896642 5.2795916384581325 4.454614644270201 -0.6671583329308961 -0.17925525552232355 -0.6306388978486236
Ni 4.113180674073984 3.6621115180473964 3.1578387397889216 0.4297120708901374 0.7294867586564726 0.9199831343102542
Ni 3.751393820562297 6.427066457992358 0.627510505303778 1.482108817778828 -1.1328789607051586 0.4777112244772354
Ni 0.6791547892507137 5.893687575036196 3.5754330511959673 1.012475999434353 1.080625402717081 -0.683435729934681
Ni 0.30437283271585674 8.39168454137562 3.6803568871487613 -0.33815842975085636 -2.9926882321935233 2.8417405653666417
Ni 1.0830826673159486 0.21691191880339145 8.58961864655069 0.18780494486454752 -0.5490557376584931 0.419162063288433
Ni 8.448409638368597 7.763995323311156 8.124874723426611 1.996664721888239 0.9280168032480082 0.4179816698270866
Ni 4.336969793258812 8.963611674214537 10.149706969514074 -0.36374887662545097 -0.7308874956587412 -0.8394109318831414
Ni 8.280290007123986 6.130995897879162 12.750711933972822 0.7068877903100342 0.11276678488178643 -0.7584939445221002
Ni 6.461716362162732 3.546485287856195 12.181233999330875 1.2179313103908123 0.9839133573053118 0.8374854327256543
Ni 1.1316406837428452 5.91171626648989 8.491484969531122 -0.4351005888955603 -0.7711607413564913 0.4736062011699263
Ni 4.257641698916855 0.8754786276338989 3.7204459558594034 -1.4479931070420418 1.1749897738322794 0.9208164288448272
Ni 0.570344645232632 1.1923845029191311 4.426560444733861 1.76537290948465 1.833400956698165 0.49863486200377993
Ni 5.2297557794936855 4.532294506933289 6.22618961108951 0.2288631483574381 -1.3708486993495554 -0.6003101649580952
P 8.929248821628684 4.1977405150370695 8.734387094380855 -0.9392810633079177 0.16260273456730706 -4.2184169271415675
Ni 9.104618820314611 3.699733795076855 12.848642822937517 -0.8969180249606746 -0.02234031536841314 1.3321893351061445
P 2.0321492835742165 1.6501669621321216 7.039939184431216 -0.12735753821176773 -0.261916222157665 -0.05150510985782743
Ni 6.576185126287313 2.9779935143030105 4.455589693684723 -0.2211902051932126 0.4273091178755996 0.9937606824130368
P 8.676013765709008 2.9841419740489026 5.195030871522194 -0.00783260867054135 0.44344458998488145 0.5024665770450444
P 3.495788274138182 6.051399271409749 9.009043606288703 -1.142260916140691 1.9498665305877774 -0.4867355394630327
P 4.6110392383776695 2.7429075263079583 12.245649300870484 -2.189021290679211 -1.2746249064281143 0.7449825402992266
Ni 5.687556758163742 8.010304102288169 0.14589998665689477 0.08633610149408356 -1.058109738113068 -0.615913675823307
Ni 7.921753318327373 4.857968419166392 6.598736269156509 -0.1452999816228014 -1.6044408777515464 2.1928725461045007
Ni 5.6742597879903975 8.986205411834986 5.280940780905387 0.9371483332356312 0.32554125520747806 1.294278418992984
Ni 5.333612894719482 5.718799082233985 4.178820111725651 0.9232247811760036 0.20309915201945666 -0.5999072730927217
Ni 8.205536218677317 7.101378409220327 1.5469959927906187 -0.023385211693159724 -0.18294273167623976 0.12413080374435397
Ni 2.7917711137764427 5.1786976363628865 6.791249729248377 -0.38721636361977185 1.878526902502526 0.5632955354069589
Ni 8.068492236389355 1.528957115635539 12.124624648944561 1.14173101177915 0.9808771415821493 1.4497363149853937
Ni 4.545934087062355 6.912109558006413 6.146663358556948 -0.15825114246683067 -0.35725015627498474 0.9516586110366643
Ni 2.4626248033434774 7.603820539147835 12.901646435033092 -1.5445629704489914 1.041886077165354 -0.2624191299360126
Ni 5.812507534987645 1.2340532813174978 13.559189017887853 0.32113746971282753 0.0262591908068451 0.009162897446190671
Ni 9.213550266776474 4.042491906453288 10.640837415065706 0.6599350757095797 0.2889953377626442 1.733519769529795
Ni 5.927411506353275 8.946249683215218 2.5082919325223805 0.5442953401553723 0.7393826776139459 -0.912938311648331
Ni 2.4307342982759272 7.328510290405559 5.114704578444382 -2.099619662885926 -0.8644159385679112 -0.7240704727369078
Ni 0.6596732463901974 8.977751279684382 6.374644356848651 -0.025832901902703896 0.15099703200757866 -0.782899112839342
Ni 4.838643365718082 8.739322529688929 7.630139465557096 0.8278283692518646 0.017134859908073716 0.3735859173205308
Ni 0.5010522446747079 6.41541771949788 6.07525511002924 -0.651118248748898 0.1293671124426288 0.21943311329278983
Ni 5.336372293822307 5.5457717948669 8.233241326447963 1.06179284339161 0.542361356357453 1.0914461474816688
Ni 7.434858272606723 0.8933156427069597 6.715369031839244 -0.6144270639754514 0.341314973101967 0.053177612464243906
Ni 6.206296010309277 0.12534894515082026 11.242096589978512 0.6789136736946115 0.6765572576472929 1.6313616134017905
Ni 3.1266399364427846 2.513951478601732 5.270748597709146 0.5072578277861006 -0.13425632221413009 0.7520816132378532
Ni 0.32108942063642826 0.03523419304080566 1.801215357853348 -1.165884726207218 1.4788789979876207 -2.6515614638429628
Ni 4.804058279647438 3.629072806641758 0.8000275816286962 -0.1594330785900738 0.4891536619862221 -0.4775374179035324
Ni 2.214852987258255 8.964880257023554 10.734662540398881 -1.7411420619617433 -0.6246626256605307 -0.21510054735570697
Ni 6.107605823604878 3.120195165383837 8.301329036323748 2.1293197610535204 0.4471904301805588 -2.027900539974069
Ni 2.406344173320083 2.279643307803449 2.5996910089799186 -0.24101341056672684 -2.4298066443955313 1.754538023652675
P 1.3270116960599876 5.630831661170765 0.17918130295009696 -0.5025503950081022 1.333866465698251 -0.6342626106441399
Ni 3.3073620582207677 0.11787078838759338 6.047201836465753 -0.3829820138234501 0.6291805681355422 -0.3772140009914213
P 7.670397987299892 1.294713762936987 1.7883267417083064 0.44698988413397855 -1.4468507659074823 0.6280127730796862
Ni 3.8873173756977697 6.82603112156392 11.22502072459086 -0.2320829408463164 2.7352752972228505 -2.527051422382319
P 5.782265261598964 0.9146269079255912 9.00680738184799 0.6194872521071783 0.7167315158733334 -0.08802763026389356
P 0.3602969631907315 7.990182712186024 11.680141937823475 -1.2060859810164517 0.8311633471623685 0.2746501247845657
P 5.903326952439018 6.257918996880587 11.938454102897778 2.4890430614593457 0.8235917054626977 0.17676668477251492
Ni 5.596931795011561 2.033649359596558 2.322689933807522 0.9871210656093323 0.3247084748935376 -0.015322232179367158
Ni 6.458827326860446 5.415987439748787 0.5313482244888804 -0.6437378971244269 0.7244509960047781 -0.5849969316397925
Ni 1.59280294387037 3.821175134786762 4.199108176941389 -0.670501024150884 0.6458726840792425 -0.003362488714329693
Ni 7.9083359716830985 8.709070996571715 13.035261539845294 0.9111159137276115 -0.5363562878139537 0.17775424549676483
Ni 3.7348096467597474 3.770496640525815 8.238512889901784 0.38369678050228756 -1.5980722552210413 -1.8218469333119784
Ni 0.7106647194755588 2.2060747646089993 1.0710839110829256 -1.1544029508198637 0.6382408785655976 -1.2974969259302815
Ni 1.049803202968453 3.747023228694735 6.7606342887998165 -1.4423503069339676 -1.162074094211876 -0.030745765823288987
Ni 4.275957441955071 5.048033607034141 12.240431443842155 0.044919743330825865 -4.073258356192636 1.6622634451869696
Ni 8.605121284060587 1.9401631403276884 8.32043833809724 -0.3161299891959072 1.0140759969316213 0.44922031612639407
Ni 8.70304291329675 6.477800510624503 10.126152998044759 -1.666601153330375 0.6285215943953048 0.04929087581532802
Ni 8.887209654088998 2.9233611159584854 3.0080830021708977 -1.1891853486063715 -0.5963550369650891 0.5706198369825141
Ni 7.518723633929836 0.7342992505831124 4.257153711223167 0.1970110368438478 0.639395303885015 -1.1170944441773922
Ni 6.7219147339392 4.551980689794385 2.6984747189425 -0.0018596789165580873 -0.48560682517522824 -0.995612390909795
Ni 6.758740674314824 6.917100551685684 7.046105237661321 -1.3657232051975319 -0.6188812430920632 -0.9830754347850488
Ni 3.496269780021897 1.3154092562081756 8.712432278029183 0.5114654381095449 -0.14975930294573564 -1.474824625412589
Ni 2.9693078889390843 2.078549783252931 0.40115921923387654 1.1272125064480008 -0.6695687421446017 -1.3853201534928528
Ni 7.242718905547588 7.64592452478725 3.7757126456084373 1.108024877775956 -1.2742433547189798 1.75000105501427
Ni 6.832272178595141 4.873311789345523 10.33121616821736 -0.12300466055971075 0.7786902169643171 -0.8091086813551743
Ni 4.906702370435414 3.0651275597982623 10.048699998730728 -0.7257712574780986 0.20846247321389902 2.650385698367306
Ni 5.290444040298774 2.0087221703858016 6.489936310839813 -0.8744319280430165 -0.7201104596478953 -0.7382300520667415
Ni 8.357942090601476 0.20282601975903689 10.169845953100431 0.9748023961429793 -1.2248923150896776 -0.18745476061398036
Ni 2.3135524336911866 7.606505860422396 7.445173610192453 1.1142819144292617 0.004390415758211794 1.2357158880677428
Ni 9.210503816089126 4.647133660199189 1.624299910475269 -0.694250818272314 1.3492519470153859 -0.8617270788818385
Ni 2.067586264669894 4.091133260436981 12.366958226462371 0.5927225824188244 -0.451107505846778 -0.30758209962589605
Ni 2.3263678979808176 4.135968865993624 1.2905144760472849 0.7359091172430487 1.035823415911042 0.43246263705208104
P 3.3855512059531696 5.033569911065642 4.884325310462638 0.2941573415795579 -0.1539057210139414 -2.0836207163545084
Ni 1.4096640329452816 0.549838976396369 12.887715173455238 -0.9211195619075426 -0.17650134692627023 0.09480274420419801
P 5.976460288392419 6.784019733209833 2.2423775303225097 -0.4654928280341725 -0.9955468277791822 -0.8854141380861333
Ni 3.861566070647579 9.082719562334136 1.373523312481098 -1.3963049346391307 0.2614716784210787 -0.335558530234164
P 2.3301829061364017 9.018966331384634 3.1205831480093686 0.6338221806726116 0.42465445386157186 0.17914778341018178
P 0.8742878265445588 2.1609891463819664 11.402735286541336 -0.6538179070682482 0.13048554231778817 0.5059661055578706
P 7.89870585400881 8.27007652655212 5.909371703225341 0.6409739612260446 -0.47293205792103715 -1.4694253087738887
Ni 4.241539030998019 7.855120311804118 4.075170414418993 0.493488284805834 0.017591744939834217 -2.805845651242245
