# total energy = -381174.5721510934 ev
CRYSTAL
PRIMVEC
9.23819573174537 0.00000000000000 0.00000000000000
0.00000000000000 9.23819573174537 0.00000000000000
0.00000000000000 0.00000000000000 13.52103326454556
PRIMCOORD
 96 1
Ni 3.2351053049220884 6.5483842225614906 3.4754462064174367 -0.803857974479196 0.06428349256941833 -0.09444613219572766
Ni 6.8787605801597635 2.618215543304108 3.0230055679359373 0.8235024881830011 0.2710904324577654 -1.5593635257969338
Ni 1.257309207895734 0.7325224105969541 1.701973133166948 0.49176795968061765 0.6272707527073391 0.46418105120128444
Ni 1.1454993243318425 0.5253983658596267 6.039548094101958 0.24768336638773472 0.12965070512131865 -1.0501524309392045
Ni 0.6798046463602072 0.6627786515317968 11.836285916975722 -0.34939723588946925 -0.7714073101496586 1.5412498469153584
Ni 3.9610612059563546 5.628915834456842 1.4643279372011333 0.6023377369110852 -0.5767632308760906 -0.7432071935663588
Ni 7.942123105783306 4.200820101117362 1.3293218678452416 -1.7758434699986707 1.857090587005621 0.1549012521579913
Ni 4.6438193035084465 3.5861290300957798 9.734115990120346 -1.0047765739075663 -0.5880945967285097 0.5763886211454912
Ni 0.6542471777260253 3.010312286929841 11.890829148699229 -0.48209135582280194 1.0789212755417805 -0.4887983355293324
Ni 0.5754906348547923 8.188247117838928 7.800702957095147 -0.6533234839303329 -1.306019361578996 -0.30551339002232547
Ni 6.186487140950991 5.541199165495498 6.056665547068623 0.22063124736594908 0.0069656326845557465 0.12982528302596996
Ni 7.242108058508224 6.893938935831536 4.150051596190868 -0.2313028681471823 -0.5126769419191429 -0.6286010414829883
Ni 2.5962563519274764 6.153894786227912 9.013648501200871 0.4397740831118297 1.3065644354491885 0.2618653143150716
Ni 8.780110607080259 5.667263585152845 3.043192873361354 -0.567314683868681 1.3321199153207894 -0.10443486797732338
Ni 7.475649647907147 0.05468919521687857 9.09002805629709 -1.621033492002905 -0.40783635386296857 -0.24569256120995106
Ni 6.445008811747648 4.547178537420545 8.334662358987053 -2.01016764147068 1.0750458517467745 0.4055190185837016
Ni 2.227375194304888 1.7687357264528714 13.324369874633318 1.3606182798707989 -0.9250299527055423 -1.4303293712136915
Ni 8.225948194830107 6.847156712385487 1.0254840752733259 0.09078668106626946 -2.5250958413178446 -1.392388373193544
Ni 1.132251751578755 5.553938637480511 4.717109605934768 1.2813478269742447 -1.362244502620312 -1.296175893126013
Ni 5.746739783475588 7.740638055752034 10.108094784176096 -0.9617920999262403 -0.1859421806241959 -0.1575381755602061
Ni 8.358968975912193 1.334697573971477 7.218203303099654 -1.0364787901068537 -0.24535651802677103 0.024253216120409843
Ni 0.23497073828658277 0.95929425012596 3.977807283452534 -0.675897512576107 1.0982017210379473 -1.3407927605044394
Ni 7.728184967836301 9.001236061346583 0.3129226343051002 1.6031144456306392 0.7772208315076421 -0.1131388235092245
Ni 4.20406270783726 6.754608467029535 12.08422061540485 -0.026735873332947507 -0.7620348677958231 -1.5919427452845356
P 8.561913660877206 8.696800557507494 5.273473480240054 0.15039693652973452 -0.30778058878994735 0.9146347255141474
Ni 3.3091494441243183 8.801506268514116 2.572808887210174 0.16948686328165005 1.0205155819093779 0.8534069890519174
P 8.382701900879194 1.2365509819709166 1.9315469174769941 -1.011540374993961 0.5278366803787168 0.12530939743348743
Ni 8.478234083473113 4.340483144967558 7.099150674041745 0.7130373548511978 -0.13334435192282196 -0.439752485845275
P 4.020056324227776 1.6116863981387217 2.118434694351254 -2.113768186472166 -0.20759241190411987 0.7357072856448879
P 7.088643150157949 3.248879454834818 11.515877572627508 -0.6970936870377478 -0.16624495930558467 -1.3879989858765969
P 0.6330205752750004 5.654921355586509 8.57622916906283 -2.3467749246843326 0.07988263255925597 0.9028081651928647
Ni 3.461542721763743 2.1902099326691338 8.148991252497439 0.3612741898327133 -0.7657585965043134 -0.07971473952282401
Ni 7.428802757090614 1.9890297430987076 5.04365673138091 1.569625312734258 0.41097309971973744 2.1096287103824958
Ni 4.459332533718237 7.058748348603562 7.4461548602301715 0.687890423271925 -0.38477150162370505 -0.7752032868569811
Ni 3.700876659918724 9.193723108685031 11.65600991682349 -0.6491094458489852 -0.19226735151127533 0.6759800449875842
Ni 3.437061502938302 -0.06803654048442467 6.374356014217425 2.332939561463137 2.319273119719638 0.10061523712091704
Ni 7.156885702408339 0.18432232990526945 3.848058671316854 -2.0966762639868857 -0.531298413675072 -0.41716225924958483
Ni 3.2622009331541713 8.461439043539283 8.921029121737389 -0.9453424390106493 1.2260909633834691 0.1486151620389634
Ni 1.99680830394815 7.527171065789972 10.87032908005093 0.3856526186770778 0.8532432097805435 0.7746659262962723
Ni 5.604665570525981 5.1280300972883195 3.2800130984437303 1.3105236772072526 0.6374435794752829 -0.7083198947708704
Ni 7.969773025762379 6.901412636220134 10.578099080480587 0.2856333632689468 -0.21244382645915022 -0.9158071485556938
Ni 5.961333833323199 0.8310219016764322 1.656272702447109 0.020572167724396826 -0.4955467099967595 0.39353047876325775
Ni 8.808277866023191 6.646004237402409 5.990182871114929 -0.09723757889793577 0.2534333814976345 0.07961523783048224
Ni 1.5055857195688387 5.340674887825678 1.9480297063933532 0.32815838111535095 -0.07762031888764051 -0.26085641343458305
Ni 0.20606719513973096 2.723170685596876 0.7232601955047326 1.3187283245052321 -0.5780390122647207 -0.40905120010667617
Ni 0.27773434656694745 3.5545990678877684 3.08391761183237 0.4976889531507428 -1.3545957278258025 -0.08715268385810797
Ni 4.934425228260105 0.7656736761649146 9.835131965731165 0.25758288488963377 1.38697003039145 -0.11166686694938832
Ni 8.555603973157291 8.33642777820122 2.4899930811118094 0.47711421432318474 0.664260699668127 0.617463279698614
Ni 7.151305832155295 2.3022230565402553 13.468274174167572 -0.1448297268546022 -0.18594552305830556 -0.09141762978204901
Ni 2.227218144976574 6.44127658065124 13.240228387440066 -0.5218089861273981 -1.2627078432755545 0.34851843282894174
Ni 3.5499337790172603 4.1819741817196645 3.784821373541794 -1.7546084718792943 -1.5739514509134378 -1.6739586221367104
Ni 5.518251487170066 3.3340556199557865 4.828969375755889 -1.0431145502558166 0.1521476006722541 1.1766301376491801
Ni 1.684548048280704 5.100389415505029 6.8556373761144505 -0.015525606439424874 -0.9450801864881982 -0.22135089914079298
Ni 2.538508390086785 3.305786740859239 1.4306196084274467 1.0064729877733827 -0.35812381712918967 1.27601124525268
Ni 4.741642558656595 0.9701583683669859 4.220576906619282 0.14833105513964132 -0.2268808278200867 -0.5955603089779355
Ni 5.727043950065837 7.832927631626055 2.456244104276677 -0.3286265790010211 -0.4194572259313485 0.5092272928076457
P 4.767287790150717 5.948150927940594 9.307906284745622 -0.1383132658923231 -1.1435670365466242 -0.2668303716298308
Ni 8.287409911375638 4.347873701594105 9.6679039933031 0.9579053632773245 0.1604581774204785 1.0025489701286283
P 5.406478556389307 8.891227625960411 8.036429379796795 0.4903086015262717 0.7232921998099866 -0.39618231456380804
Ni 5.236865281810026 3.140349130773957 1.428497594856049 -0.5661592301079992 1.6166615881874544 -0.40113631613497364
P 4.278790473527446 7.985708913488374 4.603005878357912 0.42106133719367483 0.5901229400124481 0.5283336746197933
P 2.000614440610822 8.569673745335082 13.100326074319087 0.02090332581157045 1.1673939637628927 -0.09810558332518587
P 0.4571484230526105 4.952975525392741 -0.03505433389929656 0.6734886460242981 0.10138219719392863 0.16700137785563496
Ni 5.789503391755953 0.307733539733685 12.924931536818688 -1.2691546273421626 0.13185388342022453 -1.8020802922080124
Ni 0.9856415844996044 5.459053128591415 11.232111608033719 0.31987094429557816 -0.6962362241334591 -0.5915324187654651
Ni 4.845618452196345 2.5638579993158457 12.425464786522461 0.5053585538808587 -0.8165065164811423 -0.9713586605687529
Ni 0.21345036120965263 8.798550045863497 9.952684311793883 0.5400108538474054 -0.01837516007307803 0.3553598812308073
Ni 2.3821796410437237 1.7797014648475125 3.926657241040194 1.0799391752833336 0.18532768696864857 -0.6288720357561879
Ni 6.4591340131001385 8.023557801612084 5.883272002774861 -1.288448185464452 0.8970679202749776 1.5814187058247602
Ni 2.1950322708679564 7.463057987054666 6.271406484229186 -1.1787561828532473 -2.7738454441865645 -0.8578105174362517
Ni 6.766867552833824 2.318667045034325 9.197385129493485 0.20762635046584887 0.6636235803047603 0.1217849292199967
Ni 5.8261513144278485 5.242565248608251 10.984136261543146 0.898306163557453 0.21060343081630178 -0.3233725296909334
Ni 3.328337176765994 3.006570817637651 6.00247336678488 -0.43326867789314416 0.0075945245178062745 -1.0852330766924214
Ni 8.024352286449437 5.103123921456853 12.135235780158755 0.7055847552278945 0.029354799013033315 0.3707415058932002
Ni 4.130138665180212 7.910343712289149 0.5079677380559128 0.02483685653802174 0.9110660343262825 -0.04768599322205336
Ni 9.270067558637274 2.178551329590754 9.534289196232157 -1.089297476569782 -1.0566632354745287 0.18048732815721175
Ni 3.8155688605669695 4.744894403572276 7.621616836559788 1.634691449105972 -1.6822123775050708 0.9473908368992457
Ni 3.426243575676192 4.336483006193438 12.811922535442138 -0.2491918326124612 0.8440977958358494 0.6805545517321441
Ni 3.8718109964950016 5.491183573525333 5.490959085367802 -0.13985078558277206 1.2962391422637805 0.3596389682221354
Ni 1.4444196252883688 7.701772966092173 1.610139000345038 0.2729688804274008 -1.0165242013617977 -0.6135176647873046
Ni 6.480797582211707 7.198513012607372 12.615380843974451 -0.017384256914718448 -0.7690321250492627 0.510095811455528
Ni 5.541430120390078 1.21243005278102 6.412782289577584 0.32254129203888965 0.398203715869211 1.427569034859735
Ni 7.782080602035403 4.293876447241387 4.699275268975329 0.35444765382918314 0.8468478477771608 -0.22145040083313475
Ni 2.172213927283489 1.4504244525474392 10.108771020107426 0.7955165444930363 -1.3257890880067555 0.1934073786529895
Ni 1.0128573092768682 2.646853950231982 7.432052754367139 1.1368420591179647 1.272324797540028 0.4612872745932572
Ni 1.9596060895292626 3.9308523057453386 9.316086707111634 -0.12888091683482966 -0.8000010626269513 0.5586418386850315
Ni 0.01147568680187276 7.3310349311171645 12.482036726039954 0.5202802081876975 1.0083702047960956 0.19393574035263375
Ni 1.0126078779907222 7.832641247556777 4.009026842282231 0.6034242851070446 -0.160369217251098 0.7305229132304709
P 7.2268742736617515 -0.37929445190939487 11.310398850559167 1.253669130112054 0.5160733691952015 0.5355152799698971
Ni 7.933448439942895 6.512346020811285 8.193380783235645 -0.305034650613694 0.5303481339466608 0.2788762470507713
P 6.22413278876747 6.170052390652703 1.1774911963290131 -0.8758282941699109 -0.7327551449950993 0.4784900116247889
Ni 6.024661665416934 4.60699585511667 13.201842760141353 -1.1352505462611289 0.14567664823592974 0.9494214941760295
P 1.6108180077351022 0.7748592142321357 8.078628534314808 0.9635337652076954 -0.6765117491213382 1.4354121850532378
P 2.788928163181589 3.068937877369935 11.261370821718224 0.8886598987169406 0.6066157954611489 0.1676204994968726
P 6.6485632176343525 3.1478597839456866 6.764370468513627 0.11891763497453067 -0.5263112448731257 -0.2736615356190513
Ni 0.8482446700750247 3.016039968315416 5.25914134330202 -0.11247727866582563 0.7255557990331827 -0.22029031908676253
