# total energy = -381170.2663611689 ev
CRYSTAL
PRIMVEC
9.23113298817319 0.00000000000000 0.00000000000000
0.00000000000000 9.23113298817319 0.00000000000000
0.00000000000000 0.00000000000000 13.51069622540867
PRIMCOORD
 96 1
Ni 5.9175161742269795 5.566603889877565 2.0175794746177442 -0.18965845313351853 -1.4241332697053086 0.9401436684185293
Ni 1.0301667332178046 0.8808430050422754 4.396799656188967 0.11924390796569785 0.5617629008125165 -0.35763479330791315
Ni 5.3384841347651655 4.947444115895129 4.4085675043525026 -0.6794173528039074 0.3187183187483737 -0.3333126716227808
Ni 7.11404638375733 6.630759654267426 4.039170799574265 -0.6913434148175319 -0.011712403340921764 1.3449618042804643
Ni 7.961196676992195 7.076844918351739 13.038861614732747 0.1517377668283451 2.4678479154389694 -1.4143008569959192
Ni 3.6306414763971735 7.013399342239424 7.794091017598108 2.2436220087432264 1.977962260382729 0.3940274730043343
Ni 0.5898601583007114 3.3149275016238184 2.980742953120923 -0.5644265636876086 0.22941696397837907 -0.6505718893271247
Ni 5.135869999731091 0.035428164784148425 9.719189310821465 0.2073864665409009 0.9465922522573504 -1.4382136590577748
Ni 5.515094168546746 2.642836411850897 2.66205286111512 -0.40806749603716824 0.7594743061574984 -1.0348155434718178
Ni 1.0953662245725664 4.811672613864005 10.881622484925357 -0.49988210414731965 0.49778999750498143 -2.5975955511494684
Ni 0.6016381607103872 6.6714689501579105 3.3541247379526573 1.598301854733344 2.1524049250077577 -0.11792158960984853
Ni 7.9317678254505015 2.8847844039800643 7.639217532350161 -1.1859563001461122 -0.7826543438183876 0.2987609017898403
Ni 8.228290275018342 5.593512642149848 7.486169042067645 -0.3752244813652183 -0.8676267321957252 0.08531537353905308
Ni 1.0837903839724146 2.187427703583048 6.958954120660721 -1.6870185406444624 -1.7302035606723685 0.21610944823619557
Ni 7.380973821392088 4.00266536158594 3.866937245879233 -0.36777830949981827 -0.6724548054431452 -0.33025383019179894
Ni 0.8402795610508986 7.115449515951288 8.204748116898273 -0.2955555074786652 -0.4920135000325203 0.6294752165578257
Ni 2.6501474690720457 2.0213688546547157 2.409781693114223 0.00791077020664444 0.41706507155008815 1.0817803422571304
Ni 5.756294438914659 1.5240138786938129 4.814279485782252 -0.9658991801160783 1.2407513936091215 0.22900404481067657
Ni 5.004704832994604 7.643359541662193 2.8355575418042833 -0.4224962698679885 -0.6301228774441535 0.30699048878848423
Ni 4.638118085057424 8.406312672126734 12.236002296936103 -0.57356683542598 -0.466055642516178 -0.6283706706397372
Ni 6.255671032970804 0.36975302650643976 2.856526060084383 -0.26149816078363997 -0.10956344745314033 -0.9362551319974004
Ni 1.9708837890708006 7.0998119768949435 10.69486466679629 -0.5474230871510766 1.3138979929961243 -0.8280186308857997
Ni 2.5327274591566313 3.4205039680862863 11.75009023326224 1.2037676172959202 -1.7881343715508817 1.8544981436880963
Ni 4.754273429771705 9.096062919051244 6.516492076221988 -0.33481368164833947 0.15651256250916915 1.0780185612218531
P 4.087000991349086 2.0828297372032085 0.7912123974735092 0.9052615118293635 1.9208724573482725 -0.48475039071220377
Ni 8.979593715819894 8.442803340302492 10.563472414191573 0.47606083335800586 -1.2763084647781244 0.11092896034209929
P 8.217914481689338 6.704839495428683 9.501248725908258 -0.1702481669277068 -0.4964987894973837 0.3820926692399613
Ni 9.596316470728611 5.103081015830183 4.934038664763119 -0.6135508320180852 -1.1205980864552765 0.017654222746653465
P 5.985512698836802 5.5729826026803595 6.659691870861521 -0.7243162701991268 1.6648031808896875 0.3963193543623046
P 1.9839919977248799 7.969440078631697 4.4244690538085 0.6573428895023711 0.5806869914105289 0.08874059717051813
P 3.2942959196929262 4.118322225126052 9.99532111102593 0.8253002035133722 0.24384085271319295 -0.10132126204900614
Ni 7.469832706254178 4.364036519460053 9.662039367316252 -0.22594006117337215 -1.2583724491249941 -2.843805161205154
Ni 3.63928181674944 0.3765462171744235 3.750393270471757 0.620704412343731 -0.7204040796289141 0.9026418148183294
Ni 4.833134997751845 4.875939760800413 8.539692387635133 0.44773190450632566 -0.17047699510906122 0.004787651196630465
Ni 5.415711792229973 4.889740304418615 11.262191629797982 -1.539984864160006 -0.22654966973291307 -0.32412997668224824
Ni 3.3646556143136244 1.8560023406905073 5.686462765093267 0.6852409014642198 -1.4759847071589611 0.9267024553119587
Ni 0.7544706424840963 6.065749705612335 12.510458646527384 0.17148358199670466 0.8227599535900216 0.925130997059781
Ni 3.942127592322946 0.04824097718686815 1.0066061128320252 1.8669345696792363 -0.4834553260498642 0.27424234782318574
Ni 8.730417746665273 2.0426189224868923 13.331057432331455 0.8027192328890628 -0.9071618141758698 -0.0005288759202765085
Ni 7.774921647111445 1.0225695108781516 11.445788708037501 -0.6329395209573422 -0.24320399046014243 -0.6022426060941176
Ni 8.269645750208676 8.689606908313381 3.7553522350414554 0.570307705058734 0.4847591324629522 0.6375027148479924
Ni 6.5005083696835815 3.663827399010846 6.144339878286539 -0.1728814907854958 0.4601647309530397 -1.3967466501622396
Ni 7.613035270233566 5.497148846276654 11.336109003020994 1.3254394179768205 2.1598156156495323 2.63103814707863
Ni 3.2574267750701145 6.126287474875329 12.238610091967637 0.8265574729592409 -1.3049358987068302 0.6332205425328707
Ni 4.860902245379641 1.703374790066179 12.32722619803564 -0.040817805347310346 -0.3780123285230006 0.5407724146037783
Ni 9.122113175968012 7.153647943705217 5.5779858766877615 0.4019775810893464 1.7184122244643953 0.4447599663621953
Ni 7.096941094577042 0.48269593698718605 7.994495219426699 -0.9731211517858145 -0.358118417812551 1.0246249760920614
Ni 2.123677500086519 8.664461302416402 2.229426588733375 -1.2947335042525314 -0.5957405433095417 0.4062463836680294
Ni 1.5032622920358056 9.141083153985008 9.3177051882393 0.5587351697297861 -0.48947787809486026 -1.112717398155619
Ni 6.903327314076579 3.0569911873898166 12.084344938374834 1.2667169644349474 0.6503209496585832 -2.2698295203765295
Ni 3.280439989277593 0.4681578258538695 10.948662664171405 -0.43912410823265663 -0.17090945466078952 0.19050383185294933
Ni 6.799966319499307 0.952754453095897 0.47871085693368887 -0.647967104714426 0.18511197141341668 0.21397157595758634
Ni 2.389737211232908 5.522857551277789 8.819633876368849 -0.7475251042154223 -0.915903822034558 -0.37993859901143595
Ni 0.09519790379360782 2.8344193431232636 11.209445859777881 0.02467487703886073 -0.17533972251800126 -0.6359819073280918
Ni 1.8036895108013054 3.281889277135826 4.970490562180887 1.0666787107290017 0.224995952092548 -1.2436873363089938
Ni 7.28809939373808 7.549506613925556 1.9098318457077839 0.13206085722470803 0.36310892904860687 -1.5643121280514607
P 6.082245740024193 8.577956356432333 4.903761472112053 0.21356714143031608 -1.0634342356497748 -0.8547133665681667
Ni 0.4608126134411577 7.042255863544109 1.0227652108946772 0.9029539467421095 0.3701316402233432 1.0185715708091296
P 4.0614399844736315 3.107965503015046 4.150405027363553 -0.8516442407245396 0.8779155157162428 0.19118311730816107
Ni 3.4331967757618913 4.1970084015819475 1.1581665444983174 0.9523510091179984 -0.156610264429298 -0.49141314744436015
P 3.319810770904106 0.4436990162413002 8.286501798801881 1.1010551313263424 0.10198152134082436 -0.35157161783296875
P 6.305251447534931 8.254515923459355 -0.15728742648952507 -0.041544913321322 0.09382341101006422 0.7789092749536585
P 6.818585514467813 2.386755555320747 9.521271053070723 0.6650821671281578 -1.9575667274455126 -0.08172225687115603
Ni 5.361746589559729 2.1125632161291166 7.151684481746963 -0.7210507120739775 -0.4597736661622082 1.9002041303656434
Ni 1.745607222877737 -0.04876253619317482 6.447763522776766 1.9548369872191753 -0.9637083431123469 0.21877285400097163
Ni 5.889721233200619 3.541579506612275 0.355092141306152 -2.5178108776206574 0.9728223895984729 1.0446037332068332
Ni 8.334263680193574 5.419644254826197 2.4583254514587347 0.17603854835723876 -1.121298454956411 -1.303842408532335
Ni 3.7395226884217263 4.53014152405266 6.185588272335755 0.3772854776593051 0.7945025014062251 -0.49548783173436595
Ni 0.9282457953659109 3.818781195114631 0.04612981710293299 0.24201691213057672 1.118865420034886 0.4181608757174282
Ni 7.167023855212092 7.620069393469064 6.709803075564809 -1.6458235544633912 0.12303859912143973 -0.5561018458719972
Ni 8.903409176367697 1.3589058364495443 9.099453514148879 0.6966427155432582 0.15991824575660846 1.1188690195793116
Ni 5.459310432704069 6.210115392331451 13.419566457258343 -0.08712800126775963 -0.0031349460845558914 -0.8678218789256668
Ni 2.5107019761646363 8.146428588860331 13.115886187274745 -2.0421753047255278 0.2640407246998356 -0.22249221183408777
Ni 8.64368202235983 3.008056952125539 5.443661816288298 0.8546038375734959 -0.6725841319321578 -0.7592040832152473
Ni 4.398736347861943 7.127237672607104 10.194874202405291 -1.8382567421285696 -0.8396168772463605 1.4378740163301689
Ni 0.45822328067533424 3.802451321094162 8.62521514108343 1.3372065858150777 0.8290948946691141 0.9951935582048216
Ni 1.1693999100695491 0.6269157718071938 11.799269093547174 -1.4017104219254182 -0.17894518048107244 -0.47568982317183234
Ni 7.709260599113934 0.8919582121129633 5.842714458476462 1.2774243235501226 -0.8285223099950957 -0.11370215221186224
Ni 7.97033549851863 5.068048866645514 0.2565802608176044 -0.472587787207741 -1.8932876057514685 -0.4252627768695321
Ni 1.9776871339849247 1.7050640873786416 0.10959662482081403 0.628124358956886 -0.3038331741064251 0.6215991562438585
Ni 7.718353264976094 3.0596035979877776 1.5660653813014134 0.592389881669754 -0.014389178842136509 1.189114900379752
Ni 6.118090228900102 6.964622036233682 8.936123388092481 1.6276772225716678 -0.2698362483356901 -1.7613653309871535
Ni 4.796542787114683 2.580267793359806 10.10501466274172 -0.08959240364785216 -0.36353007574642554 -0.19537915766737962
Ni 2.3391413720547325 2.0499853665051706 9.522852346128781 -1.3441817315813303 -0.04054552552253017 2.057889115916359
Ni 2.24931321824287 6.5675171630779206 6.15117645527894 -2.060784435186283 -1.1416510504708337 -0.739764743543713
Ni 4.186374136533004 7.110427779678176 5.13791469565847 1.014091680660905 0.3027327419533948 -0.6046684419267909
Ni 3.3793331155530515 6.74434874404802 1.3310213534344897 -0.14812870932084812 -0.8895158189593326 -0.04672671463257759
Ni 0.17225663152716938 0.916417944838818 2.066393705154907 0.3330367922535748 0.5206625312277807 -0.7043606530128063
P 0.02006109792045425 9.064446289022918 13.688361353069663 0.8872802447605944 0.013374621534693095 -0.722137260269937
Ni 2.8070490342082324 5.438124982801878 3.635904145237801 0.2945350366339508 -0.40079307386294205 -0.005363578304758504
P 1.389257801276736 4.4238357980946486 6.752470294733837 0.25215065813046894 1.1050405983366518 0.5460398336503047
Ni 2.96019352827244 3.0548218711688953 7.748911084065952 1.8560688306093258 1.447919573491629 -0.2683732906369185
P 1.618716070653108 5.0693412252452115 1.7354086672995495 -1.1606898122698397 0.9951827595715443 0.7730702996743783
P 7.889064604863339 1.7721005741715452 3.3658390455456337 0.10536535021139272 0.4497808166155544 1.1648879095115874
P 9.135415238412046 8.707893782499108 7.252690614332927 -2.0858470345818656 1.7710337073148534 0.33564517641069935
Ni 6.764795703321814 8.226859449425818 10.954283500966804 -0.7235513670086442 -1.5270069638430992 0.6528660846779402
