# total energy = -340891.81490788655 ev
CRYSTAL
PRIMVEC
9.03513498371014 0.00000000000000 0.00000000000000

0.00000000000000 9.03513498371014 0.00000000000000

0.00000000000000 0.00000000000000 13.22383333410386

PRIMCOORD
 96 1
Ni 6.57606048081843 1.9158733014982932 11.438721424621235 -0.8365714055518174 -0.04062960059590422 0.9161465341729834
Ni 4.425662176434026 0.17495726040709417 5.814506106439079 0.45382567610888946 1.0357167151298485 0.3520184755624002
Ni 2.810785367063017 1.782930323015948 4.582322384664649 0.0691269367046487 -0.8826193489498154 1.6801773493529129
Ni 3.4828729297507794 4.313391587157037 4.618992384152786 -0.9070746537787023 0.30821330545199177 0.6186344171885798
Ni 5.064328774230788 4.78445642806597 2.647159973151271 -0.43432874372654234 0.006087343844660484 -0.11934006722392995
Ni 7.181242867778194 6.107127931803056 2.4645255584138486 1.1163094863822516 -0.7709884774446851 0.9579092199320665
Ni 5.054245563412091 4.435275560225328 11.557286792551796 -0.8193221315530664 -0.5863580736533772 -0.4275554295584507
Ni 5.4574294339976674 7.865157422367099 12.46544707677553 0.7170626739605069 -0.25680795439682225 -0.15666040094094308
Ni 1.6292788147876776 6.633270956538848 0.27524906751255357 1.1053370465311478 -0.11556491645221388 -0.33505150869075845
Ni 2.8743836833289693 1.3754637983729676 0.1921583506908164 -0.3390781133516483 0.9984963973258094 2.2340688178371524
Ni 0.31334119727207294 9.097567926033598 4.850369545955354 1.61896375395807 0.28967410899722373 -0.4195713829117097
Ni 8.764099158205244 2.6121840615022967 1.2088450641886106 -0.010167427451305071 -1.1538049122245482 1.8163884813005684
Ni 7.0324612973915706 0.8141524136096743 4.717417532337866 -1.5131127223595102 -0.0833793328586048 1.009603048761932
Ni 0.7926117479171528 7.408937308496802 2.513295410884421 -0.37305832695183494 0.8306676384728727 0.13881925899446415
Ni 7.523999754532731 3.9335183652383385 3.8876876422295235 0.6465110889941897 0.09067972317475996 -0.9655613371606855
Ni 7.58417375457979 3.9565127841752394 12.822582477595365 -0.025826731255116808 -0.1856776141088996 -0.5832220991275568
Ni 8.086265249567042 8.962239671873713 6.945289410026102 -0.6532538070346621 0.4396555552560945 -0.7172279958937777
Ni 7.22391581105481 0.5156008290518701 0.6166317102119615 -1.3456662865466567 0.4411591363848144 -0.9346232528209323
Ni 2.053785604308849 6.271838445445381 9.319391335936803 -0.898362470716685 0.21154471168364858 -0.30308472597617475
Ni 0.26905367534554636 5.014328336353847 1.325133578063337 -0.5117441456922284 -0.6400187964016268 -0.00798738908085076
Ni 6.419138253668684 2.0591524745833163 7.040871201181932 0.05229546696960671 0.2177089315128315 0.04919883032215398
Ni 3.463709408114171 4.1370438194515575 0.41243946302524764 -0.5537909383506333 -1.1044145347168786 1.1027893404086297
Ni 5.6951619098592605 5.431498596139551 4.802645058620734 1.164179570590653 0.6623174598988271 0.1280134266282118
Ni 5.444762174528302 2.7968441535386006 9.27796072374224 -0.4758613157526901 0.12918842077291945 -0.0013176903701590209
P 0.11111860954635887 5.604141958436728 12.246684770658502 -0.009393782510074146 -0.7014622484190887 0.9142158928091739
P 3.9423456922722684 5.995986734418843 12.837366669228548 -1.2943056726864934 1.117491936726127 -2.6810142218864406
P 2.4115137099940127 8.455124641747396 1.4144738978629345 1.1755399899087948 0.5427534495895491 0.19711388097029925
P 6.4047814239277265 7.900638398070521 5.6909298525586545 0.4299378137476983 -0.3378154445891408 0.9419023029808488
P 4.94611306603023 0.9551402764226354 12.381329968601637 -0.8847927024520504 0.054995639509589155 1.6676735604589472
P 3.962539219315088 5.891739345148127 8.29438507000007 0.3638105831013218 0.968039880608165 -0.9171022132180335
P 4.806203998353247 1.1366290360240265 3.7209351880450625 -0.2171216915507938 -0.2519326285823919 0.10368719117802142
P 0.3462236681085992 5.568796509760438 3.471375720282329 -0.6142013211178906 -0.7862788279448523 0.9884395273104397
Ni 1.5894880796214246 1.1980318144504245 2.648628182611879 -0.8319714448859606 0.09754662549792233 -0.8765888264850193
Ni 1.904805260949097 6.628870845724595 4.931828517370409 -0.10517585990840596 0.4122815341185157 -1.1681118157655237
Ni 6.21678736702395 5.404447401523801 9.063020279790365 -1.7759177748800317 1.432447960218591 1.6926675114001237
Ni 8.51868681747278 2.2392317531025245 10.322709663478197 1.221772024293141 1.0129308275835844 -0.6550579501229363
Ni 2.2747488693465168 5.268414406822823 6.830876590206897 0.6821303808596961 -0.3688412035466938 0.9592328238394965
Ni 0.4493750954865653 0.24554154316499674 9.239638198036594 0.8713923698857444 -0.4826978790585493 -0.2599976649787135
Ni 1.4718506200699677 0.9938196899663978 11.431792379480681 0.04582425742296624 -0.16591662943188845 -0.8120191701337499
Ni 4.061085438311074 6.91570928108405 1.5043960803656897 -0.33126298818260363 0.5603642206927768 1.024556841858287
Ni 5.550979223260017 7.622943519474974 7.958499403521177 -0.31950019121972073 0.6248318042485432 0.5089796955732138
Ni 5.245212179777652 2.827120891400116 5.085859501274652 0.8728717826447484 -0.04317422139462887 -1.2605383464280613
Ni 0.7123725197462943 7.314276197611962 6.808198400999972 0.0301901504301351 0.03978653586931857 0.7834598704388185
Ni 5.184360544594927 4.460149287271808 7.104689974745354 -0.1842064288800118 0.2893617199631275 -0.08982046049825822
Ni 7.927554065659139 7.5011047220823945 8.946809468077861 0.7551026594523641 -0.07272725246139733 0.38271076243993446
Ni 4.563610619785151 0.27062669237380355 10.362857286482567 0.07568582086908901 -0.3630037709293103 -0.6978526766909594
Ni 8.303695776764108 6.9551657162500415 4.735415521541131 -0.9732147399408851 0.547140008693019 -0.28116658574684483
Ni 7.290296948944561 6.276455399503045 6.952377473545159 -0.419090329510233 -0.6543462687678925 -0.743595687254029
Ni 2.408748958640499 5.420782925860901 2.6216781815097217 -0.15169431518491938 -0.9220911817921927 -0.14582397244707146
Ni 2.390010088355574 4.923064436282475 11.630798459095772 0.253246462297809 1.7273185258150898 -1.1253780243424232
Ni 1.0333213008081006 3.385501278323279 4.012693254489445 0.17087294499589925 0.921118019245646 -1.1246342041978632
Ni 3.7905734921535763 2.7758464994681256 2.6034028136575915 0.8558212549203649 -0.4200575785195088 -0.4339189098826334
Ni 0.9662083169718316 3.492567629758361 8.114329282832232 1.1813046603067139 0.07026490696383383 0.38540425011169754
Ni 3.842995346248627 2.55226304523922 6.944218746511751 -1.1228467732801373 0.6907003819168944 -0.7091992120520302
Ni 4.286033197946452 6.846436899948795 6.115441159647396 -0.7577138718229661 -0.4051855465036828 0.11002290358806215
Ni 0.5483044042125808 7.405684659845609 11.15926288764593 0.580927132445793 0.11713946002818536 -0.2572221591161054
P 0.03557674813593062 5.918474310033901 8.278251932690155 1.4003083993715688 -2.0684290962157346 -0.7054343456929593
P 8.438355430923473 1.8108127500647802 8.036877393852743 0.24910518643592583 -0.019891853827920577 0.060768023216992116
P 1.7982900527576893 3.0538485726585076 10.416836797876131 -1.831204977488111 0.3307803921192303 -0.5662314781068313
P 3.8473593165223092 6.4678466672202894 3.9664758276965446 0.13792785752844633 -1.1235792805707876 -0.8125177070367231
P 6.863341637799853 3.873732876002394 10.54759417716758 1.0874092584081336 0.48842346868841685 -0.4307315132935872
P 6.233294558928752 7.389656330103345 10.133635004411413 -1.0293005271908595 1.5617603081638847 0.7087304999457278
P 2.2509683936522435 8.709427555459786 5.993067482254397 0.17501807751252438 -0.27310154935052317 -0.8686986251036651
P 6.817488326953184 3.824509459747683 1.7534007908306923 0.3514579750732399 1.4717231036691298 -1.1795509108404008
Ni 5.371875739336167 2.648794429098495 0.5168431601339227 -0.06138431664475234 -0.049374179557753674 -0.6397025507127886
Ni 1.578537495829077 1.3478253199729748 7.244690297287273 -0.8095740510273671 -0.4899468473114788 -1.621932863888723
Ni 6.747014272844015 0.5061292968823008 8.871711231802914 -0.42520981214440956 0.9403367582659419 1.2074183266746303
Ni 2.965972848265461 1.765131106785812 9.059634814652581 -0.6030897845857612 -0.8940764417468215 1.2774122393652647
Ni 6.5136909429318175 1.9189994582574947 2.6062190652814157 0.24048376331550195 -0.35073112420954433 0.051614124631865946
Ni 4.130195187013769 6.793825308015759 10.468092216024324 0.20719646201728187 -0.5707939006665331 0.2883358498017744
Ni 7.9805632035384315 7.2875141273207635 0.052296265716573545 0.35520972880618823 -0.35085633693349894 0.572811188206878
Ni 7.750582873628848 4.0137774707065095 8.262951834840353 -0.1420051129216135 -1.0472841082524738 -0.7064483887797705
Ni 3.098554421342118 8.350841111936113 12.404669529700971 -0.025139732490421215 -1.177363673381095 -0.6356533203440794
Ni 9.27393376400936 4.782604225361818 10.150561426586812 -0.39325717049721304 -0.25797909188678797 1.0041708220027674
Ni 8.415957330905956 2.5226910479187956 5.775139119110996 1.6996634831019823 -0.9792156947193265 0.27426317375879217
Ni 3.4871917243487514 2.460710020843297 11.495650004125215 1.6271383193490625 0.7429811935984816 -0.2349180963022664
Ni 1.015901560253937 3.345981597211292 12.5339324976399 -0.39467564811129446 -0.7559950893596464 0.25315235992210594
Ni 3.1160012673017086 8.219894898320193 8.061037345222987 -0.08936768923155576 0.576256209332685 -0.025249518595408128
Ni 5.464106398867755 8.006286233288279 3.7306813883229544 0.6752776196039209 -0.41142818497928496 -0.58943079904143
Ni 3.095437299718059 8.562823452642434 3.5264530005956716 -0.21033449342563132 -0.3646225374796559 0.4205663998351273
Ni 3.3705029539872258 4.151987932976758 9.401907418163496 0.7215916721791121 0.04854397034697446 -0.44182016700758103
Ni 6.931710505420887 6.0113826047011525 11.580798924732346 1.0126073828058948 -0.8422401738018204 -1.1279496417243413
Ni 0.6511269526713707 -0.05405450301524586 0.4244046924940644 -0.2947363540114795 -0.6274299039930227 0.30963152595575705
Ni 4.749671157768495 0.2466176277604329 1.4906301484630324 0.009839868908557247 0.6280541678405829 0.07078838356747164
Ni 5.808724523461585 5.453589501562233 0.4109902273484386 0.7984643142674507 0.21125751946053292 0.9935992171345083
Ni 7.72378466279708 8.888034106950816 11.008630018068668 -0.22690473907948663 -0.010569290875414056 0.9688076120121251
Ni -0.055204675718848045 4.9289101687194785 5.832147207804226 1.572526031320821 -0.17118764802284064 0.035910854963996215
Ni 7.770948068239369 8.756428328469516 2.7520913221522507 0.4999510097120422 -0.8664458245137465 -0.04847480767193587
P 8.67447061759461 1.754939474345409 3.4787673643421635 -1.1025422573948302 -0.65985999949727 0.4467980798381466
P 1.9366541123253556 3.200994783584393 1.759709122186977 -1.034658191958347 0.6405906097446968 -1.4520909312604993
P 4.719367314501554 1.02835197647989 8.068878939012905 1.030558825077993 -1.8149543199572036 0.25390132227298856
P 8.672437712187614 1.3784544281050362 12.552974948465602 -0.8203477446041034 1.7014059197143858 -1.5424569798495822
P 6.187486423757792 7.563275486995879 1.3737182102634944 0.8094161852932641 1.054212717051507 0.1171209480854241
P 1.9158010204171556 3.2504711836230857 5.991176428469134 -0.3166601506677643 0.45682615349811 0.8065895144777463
P 7.01291830007899 4.1162810788947795 6.007098143616721 -1.2972130761412757 0.11683915517894718 0.5492352006591509
P 2.3940216883587113 8.356307368697145 10.171363018224703 -0.3739592414995495 0.11553509165554297 0.5040781445065384
