# total energy = -340857.21220847673 ev
CRYSTAL
PRIMVEC
9.41519584165737 0.00000000000000 0.00000000000000
0.00000000000000 9.41519584165737 0.00000000000000
0.00000000000000 0.00000000000000 13.78009081684470
PRIMCOORD
 96 1
Ni 5.84388978087316 7.235135638061249 11.923802520490199 0.05309739404561178 -0.2512872816889092 -0.9093919890579694
Ni 5.531371178910297 8.653365447083326 1.5949078456428551 -0.8260597073872161 -0.46975340308273933 0.19032334041102705
Ni 7.239193587551984 5.390981190844493 11.531869564537756 2.891322490059827 1.3224978188499934 2.09574423909092
Ni 1.0254654912598153 9.484586028961772 0.19286370012315396 -0.2935166226717655 1.9858789441266442 0.2489817734841841
Ni 5.021444161698579 3.9187834781544413 2.027106770474717 -2.272249185561616 0.7448056484017301 0.6392011855963379
Ni 9.368581398624519 7.405936709317485 4.076950297852399 -1.7599553380135045 -1.0487367815386002 -1.580620635403497
Ni 5.9342568324093135 4.615319680763802 4.217658519544158 0.2525059845873587 3.3142566187961826 0.47335551861170094
Ni 3.031250608795506 2.4898391760454563 4.504697717999296 -0.7078249574123229 -0.6287964453232461 -1.9236847299860873
Ni 9.05980062948723 2.4661882036075715 -0.02599912232881169 -0.4085660329401415 0.3738684815579561 0.5285702161106316
Ni 1.2636887813168856 7.475439686441875 13.136284875135937 -0.6471685200725307 -1.4750519109320468 -0.8247666996074053
Ni 5.849105799476101 1.0063149825262734 13.205116548783089 1.5260332870759201 -0.19902781016356047 3.667901317108096
Ni 3.5057764889186718 6.613214864022841 12.848143157225195 -0.6113617947865665 -0.60336283574149 -1.3317247367649
Ni 6.129358524629794 0.1685489563648588 8.249671969764576 0.8139606101308369 -0.8363783157044048 0.03520071627084906
Ni 1.8145719012773305 2.3427173228152065 6.592670906276239 -0.4282768811055076 -0.15107287955083656 0.5579628103401358
Ni 1.8062676983751749 5.805456950661596 2.4389792285883662 -1.600305001206302 2.496317483633572 -1.9923092731330203
Ni 3.298209077148923 3.087355761963243 10.404188939052363 0.9967223361445222 0.2840683327746721 -0.17575598411981347
Ni 3.005114024604595 8.913714447820741 12.20464087083722 -0.29223415641491607 0.5404119459405661 0.38174916985761354
Ni 2.267791192775124 7.553604643917718 6.388725520420844 -0.24125997935989413 0.18969239169524751 0.8177432171017206
Ni 4.277474201468969 8.095505666861545 7.666857212454177 -0.5907472038600083 -2.27901967151623 -2.370881845034865
Ni 2.9046727133118586 6.073808868028074 8.4462452571252 0.9359108612841043 -1.386272232993477 -1.3507164473760545
Ni 1.4376062824604392 4.242402596241613 9.557003009258743 0.6948786816643 -2.396901923247711 -0.1836407861845289
Ni 7.815365924060263 8.709225805154173 1.8883135996563114 1.4981167631713102 1.6659408940385567 0.9591826873278513
Ni 8.921453738960846 5.0221126406170065 2.689942220399299 -0.13266866601203603 -0.588652783224825 0.23094625613871195
Ni 4.598014550452961 8.546418235330963 5.305845222224936 0.1252209514847392 2.1717403921115763 -0.13187033848045676
P 6.0726413837198345 6.5367446418331525 3.1641018493967343 0.3628335639000332 -0.00800924345772169 -0.9052013480153893
P 2.1789588181925437 9.432049235090991 7.952889926453259 0.9956028778280982 1.0031629495635432 -1.1380612762370463
P 0.28917644795489844 7.369838847722402 1.757940438651282 -2.9420719526985524 -2.61382204031066 -3.1373642070790804
P 3.5384095583731736 4.884744930478178 0.35336831299640103 0.5530113798721314 0.471152340312795 1.4963344744599067
P 5.386113534494817 7.658706477247378 9.383815185807837 0.663256940993961 0.40786540732869114 1.4928930528785256
P 5.025737491090169 5.1451127616076615 7.411166850714477 1.1069419291244227 1.2736877393258257 0.1957455398678629
P 1.0887732693937076 1.4812080552947722 4.426647625915069 -2.0251291478765188 -0.6010326449464165 0.7417272665867226
P 7.597903141258581 1.4599862034337086 2.1434239853203043 2.200638306092849 -2.4462552768698584 -0.808966499350355
Ni 2.8604589527353035 4.875866400617936 3.9963364478880625 1.741071356624808 -1.0972172456374911 2.4314061276721675
Ni 2.623403146986473 0.04902963334804335 4.736217388480022 -0.18975358395048608 -0.2706903688058693 0.49578839369392036
Ni 8.65216030199095 2.09522006466446 6.571256984416078 1.2841582998398464 1.0099889713464414 -1.0672646651394586
Ni 0.7093587580883239 5.781683580675267 5.40014217658576 0.7107012505188535 -0.3751082675023282 1.159126581547778
Ni 0.22083813057993867 8.907886441475577 5.57093289112636 1.052923308816122 1.4895115380008026 1.8445199494294622
Ni 6.655272544707567 3.5367807294592586 7.439706192933314 0.2688486876114402 -0.9543230452427048 -0.5475603840598893
Ni 6.5045540865922575 1.2040529296363274 6.214462481582836 0.036184420340357036 -0.5220622397887847 -1.3512440377447503
Ni 2.4467740693850724 4.212669407165642 12.416688974399637 0.9532817484623841 0.0803109783459262 0.33875389724301014
Ni 7.206692330841961 2.9183624083455704 3.6018538568495613 1.528676124015406 0.7151078642269814 1.3640265342213993
Ni 4.918554899436953 6.446594139805785 5.445809643429994 -0.3790693090326052 -2.319890955809295 0.549485368996744
Ni 3.188154850705279 7.764570941455808 10.053995430158691 0.3659821368313439 0.41499584772588527 0.437329221115763
Ni -0.008672337067092218 8.884254299429761 11.496206684999452 0.8740220941991076 -0.9364705904423163 -0.6318383174733634
Ni 8.215304621200577 0.5448865816062692 8.072445968734607 1.5006919800976541 -1.9811707400176977 -0.6210031745310725
Ni 8.251487219559968 0.8980468187703147 4.285883854566708 0.7987101117296697 -0.224120234355814 -0.35612632708318664
Ni 8.046452495523418 8.138062352936084 13.093249897102861 -0.8903154320424925 0.044099561422375665 0.5239957093660718
Ni 7.015705079288421 3.2330182598081936 1.3335777814786762 0.5467291464078455 1.1096338741342888 -2.385326816815602
Ni 4.165141497585051 0.41406902334842605 8.870464803318086 -2.7586255419130166 3.1227665117705636 2.531850643543175
Ni 1.5321536810357732 8.455373289680347 2.7443187435751586 1.3532656961604692 1.7365395301927256 2.1104262665831266
Ni 7.2105808068040815 5.611616894709697 8.229911356328019 -0.7063262613796094 0.6926767889169748 0.7753241287055614
Ni 3.0439046322654573 8.080601411539423 0.9631020572881525 0.019718304364533784 1.168500309453194 -0.7870817834621219
Ni 5.11405202989087 4.855388349243573 12.457175258866258 -0.44335948647024287 -1.3980118900279086 -0.5967802974279657
Ni 3.749818370124871 1.8669580520115623 12.380722925549033 -0.4616284599827598 0.08091724447135741 -0.11144215253309195
Ni 4.026060221768 6.715087285112776 2.4688828327125565 0.3355063368399899 -0.7688863435000177 1.612134389741062
Ni 6.796886508257817 2.955185240035287 12.0948691002746 0.2880936518839812 -0.030879463187675846 0.5793351053683248
P 7.859297228755792 4.712211463151649 13.728181530540917 0.5810847410695799 -0.015311947766722015 -0.6847169106399498
P 2.910481889264954 5.669322631203246 10.733188841673075 0.03802841552763128 -0.6789293574238952 -0.07001525284687297
P 9.394859210755941 6.50620174589824 11.57465598139553 -1.0838158846299206 0.535664918173884 1.060152993795342
P 1.626004355104577 3.688977373351937 2.388682309854121 -0.4029317174724996 -0.6575362364600998 0.7270025587820382
P 3.2162874564554382 0.25287427660587286 2.6800760364750715 2.423200966153556 1.208507188863435 -1.6944927375343204
P 8.009610833441632 3.769251334739439 10.287995063274824 2.375461751096064 -1.073391346862487 -1.115344294255505
P 4.758637794796239 8.346401810780636 13.349725486191813 0.5868622669833055 0.8252220419772691 0.3811786420661242
P 7.638849828811273 8.468017897954265 6.198657192000241 0.10363011268784088 0.2308426406813121 0.6447079743471801
Ni 5.523123467184347 6.153743882358346 0.5980711409642007 -0.7482668674774533 0.42634366863853673 0.22213354294308843
Ni 2.2968370725405998 0.8399654159550013 10.360078745632183 -0.17103363894347964 0.2832651201470863 0.25631404547953923
Ni 0.19542180888564334 1.682156584252485 11.281361326695276 0.6939523131952887 1.29092750024288 -0.8671755035909195
Ni 9.27595470004016 4.281889928409004 7.856402055975279 -0.14512180417372428 -0.06699703484583945 -0.448528432265692
Ni 0.8365618225886416 8.686732901828494 9.273325977307413 -1.4786126317001116 -0.2204319868709494 0.3398365887842276
Ni 0.5109485659814287 1.7981800449818057 8.83312131128768 1.038769128802927 0.5170007661054773 -0.04358971166549267
Ni 0.9276792652487202 6.2817717180312584 9.718368171049514 -0.7890481631598733 2.225210339005258 -0.013944635105550177
Ni 4.279225427931329 3.288012419843896 8.23003563691567 0.3421513529603333 -0.9145437084622379 1.1412820971671893
Ni 6.688602338668599 8.304758398721415 4.218650881206162 0.6242347940944927 -0.4801617429002569 0.28759562920164017
Ni 9.037072346260697 7.177919491761478 7.904260438936669 0.8151312334001704 -0.34859685147536096 -2.6927307389924207
Ni 0.7741174179310847 1.4534238117978784 2.1264606266255046 -0.324927275772563 0.8588723830418628 0.8732744173998056
Ni 0.31402503332833215 4.016108359559861 11.75645682617851 -1.9730820494722925 1.2538622199594665 0.23020552131794544
Ni 6.056795608794293 4.2700079510138576 10.074789832119803 -3.070455618181989 -1.138122211381969 -2.1082745103474463
Ni 7.535376824395526 1.274422104795862 10.21693198816757 -0.46763789940163336 0.6835560575626293 0.05847202809396382
Ni 7.678647862447793 6.59557078665477 1.1073051997478034 0.6551628511319169 -1.2733588952314974 0.7282225472320684
Ni 7.465497239429769 5.805918295267272 5.811036395831458 -0.0871053755599403 2.251019586758878 -0.06855615180284323
Ni 5.585649784047402 0.1503616221856144 11.34543832634516 -1.0936845498938843 -0.9435771195801105 -3.492265403505915
Ni 0.6152642304422345 5.435402085733801 0.4091599401361995 -0.8260643353729062 -0.7984141777558056 -0.6105614103724581
Ni 4.167109273556197 1.4768864803150792 6.336058796844793 0.3424902243569908 -0.9299708416505855 0.6684667673296746
Ni 3.8964788787494453 3.8389614461765804 6.064645999247601 0.9581573313871306 1.0508535707712867 -0.82900284917594
Ni 0.5041027769449694 3.605558736489015 4.596032651687764 0.8251526221919144 -0.8502177926906583 -0.8687132803916846
Ni 3.236878490182211 1.8685680505334088 1.1393479364109613 -0.8919308561587285 0.04704013210793834 0.11950127539214259
Ni 5.889073306641237 0.9959959276728014 3.3422919665006035 -1.7208884539190297 -0.8537905976435812 0.4025807618909841
Ni 7.535847584197236 7.761445096372458 9.345147917215023 -0.817541899724192 0.664978551670758 2.10498221274942
P 5.139501304771285 2.7935922305004874 4.35838086402997 -1.048058524524653 -2.254212896885195 0.5744307260881719
P 1.6174930178896696 2.114775426827472 12.841418824217577 0.8463575384043037 -0.14803923493083537 0.28276786879569366
P 5.016350540644082 2.8306504420910583 0.13949554444255596 0.2155468908645062 0.6982833364704748 -0.2977098348175066
P 2.1012175445382386 4.665257880529145 6.8235983609264155 -1.8295810687314424 0.3427853869999064 0.7399696604656676
P 7.996005875172227 1.0180369015888397 12.501381487285986 -0.8934629765325387 -1.621751344005536 0.025244376389085554
P 2.5436470213808513 7.171761953555117 4.315910797758946 0.15485677207330106 -0.8912155752592588 -0.27702222456116804
P 8.021031466231104 3.870323464166466 5.490153333711821 -0.6785010116372251 -0.38814504608162825 0.22109327460403214
P 5.369401561534131 2.0566648369044525 9.979872416340324 -0.7986252653253472 0.1043479646904719 -0.19321351747462853
