# total energy = -340870.9992313572 ev
CRYSTAL
PRIMVEC
9.24896913871421 0.00000000000000 0.00000000000000

0.00000000000000 9.24896913871421 0.00000000000000

0.00000000000000 0.00000000000000 13.53680123463574

PRIMCOORD
 96 1
Ni 2.239711908226489 4.59144733263844 2.7036781291874497 0.3074337469734899 -0.23953836868309714 -0.5037716690097129
Ni 7.312244379106906 8.996962635399374 8.79100196249845 1.2882268134822652 -0.635356357928951 1.827066272729389
Ni 3.901455724772862 2.7645076753895776 4.067131586982123 -0.15959891474397675 -0.264623336676183 -0.06478177236207552
Ni 8.091044590210002 4.551251312052078 11.062694031880362 -0.07891409799839957 -1.0190919620889738 1.448609914690434
Ni 4.945793844535521 3.076540152730144 6.16862597306304 -0.24049353350751485 -1.0671564216963687 2.0795635155659995
Ni 4.233632457253121 7.430788418650257 10.59797586971515 1.1454038326450469 -0.26824293570664126 2.3648220119940304
Ni 6.771096434217934 9.003880864437248 3.546791048331794 0.3574884975380359 0.6126170073499062 -1.3499487159720944
Ni -0.1613945143193792 0.8938231680331863 2.5997567101105132 0.6983805241699715 0.055405216243181996 0.03446846609051483
Ni 2.69001647663151 0.7711050686438558 3.0791751840842756 -0.43926217647241766 1.1697933172330048 -0.1228334250891691
Ni 7.406602363925606 1.8526332939697359 10.669165186432416 0.9106361458777156 -0.6787514370851343 1.9601455439162825
Ni 0.3450485230578099 0.48304684463092545 9.17374188525565 0.07067551213869118 1.08678987965658 0.04715017532324138
Ni 1.9255891638236762 2.811344455934754 9.251727344616002 -2.2913473398436475 -0.9544590565999367 1.384498943143138
Ni 5.536756738084904 7.003671016285275 5.026065649107319 0.00020208870847707131 1.5070770576883916 -0.5763338566481557
Ni 5.1269071614067 0.7875478862688983 11.530972122329901 1.125803799025932 -1.5513447692575155 -0.32581713457668404
Ni 1.01833926705482 2.5805179290654845 6.682306328919021 -1.8399099614612764 -1.2229860992059 -0.23302499304461158
Ni 3.0839300792024185 7.737909693291479 8.672473646202913 0.852738502229983 0.296490874808741 -0.5988045269468462
Ni 4.2922154288118 8.488028850589163 2.762888180864802 -0.520911156903477 -0.5785434627049649 0.5717004716412024
Ni 7.471761352657985 4.8223478512621245 8.351976512157183 0.036951380413368616 0.21987045794052454 1.8775658241408375
Ni 2.5518553731986797 0.7133942748903526 8.251397670585979 -0.509086139244091 0.49485971123206385 1.3319759335437575
Ni 0.21501911343527194 4.3727369555547515 3.8373853397273248 -1.5336221551667717 -0.08607282053036788 1.0531279686277606
Ni 8.621278751322649 6.943672952423395 7.474859757374145 -0.8248008952794506 -1.4560995381992599 0.7707673625728145
Ni 8.409532848123344 8.644780382318954 11.102315691473072 1.1362501911702365 -0.2745051145662692 -0.11947993523590392
Ni 3.0108724706861563 8.915747435958775 12.552743681892682 -1.6387252528557132 0.13605018088975923 -1.1888341359145398
Ni 4.379007756741488 8.513093557397502 6.7308902397653405 0.718866302828149 0.4413810225876334 0.36105281785052656
P 2.8516422151834377 3.3358072602029716 11.096495315091342 2.494342105074756 0.6494922831097008 -0.5601873287952803
P 2.9785380740064684 7.9635660463209454 5.173697697105367 -0.4445990153042988 0.09987501652078282 -0.6929902063923356
P 1.623545573329237 6.475897081006953 8.373499788619798 -1.1796509267533748 -1.3839050183128812 -1.8217389469792045
P 9.09065469442833 7.95354016359761 3.4152947521779633 0.26584538200874214 0.32980465846952234 -1.493365878749886
P 2.433209594993006 4.127648518021845 5.482228514668209 -0.23041146668116447 0.12155070172200358 0.7054770260054367
P 6.59653138761255 7.811938443584448 7.1121003829999925 -0.7159817821915024 -1.834616317162505 -0.8034591963788809
P 7.605825162690043 6.045311315153732 13.035994003848252 0.10009638850296954 -0.817525701774276 -1.304863907818314
P 8.771519008663851 0.8187761062200702 6.371826753524255 0.5819841129553976 0.6195106491459459 0.36642770900919475
Ni 2.760308643326483 1.1970293539688834 5.9401782810982375 1.3630207186647043 -0.528694914613954 -0.5957683112236837
Ni 6.41514060166231 6.154097692083505 10.911731430036676 -0.4678279039252524 0.027006867606147036 0.05705329336956626
Ni 0.9225273442618507 0.325252029163873 4.724858165437778 -0.3579194144278675 -1.1385353876599875 -0.15448627610775975
Ni 4.883603774949074 4.123791697822923 2.4355005646891046 0.10059106875120095 0.16147787693424445 -0.42602073808147917
Ni 1.8766066224004423 8.726670756518597 1.2468054569582263 -0.12131853110653945 -0.7919082583164878 -0.6262520816348376
Ni 0.19644903287077628 6.03121588593753 2.2318391855566517 -0.0008772603986307472 -0.39620288338909826 -0.20796573608313862
Ni 0.717715393348233 4.662867873588254 7.733168671627288 -0.3731053781396864 0.0015179793064231922 -3.8875953973717556
Ni 2.9949919903946736 3.4598729344195998 7.497208966795426 2.111817490503699 1.0917194557477135 -0.8389177942968067
Ni 2.4420886055228976 4.3512146039890665 0.252575478182852 1.7329793236452926 -1.5309204399648924 0.26560112720842
Ni 5.906086580251175 3.687194101923422 11.367528961310136 -0.861921968501464 -0.21751404189320606 0.009457288758157906
Ni 6.0257497450800654 7.683266782655439 1.599129219268966 2.1949312284057423 0.9238040507182412 1.1937403149669055
Ni 7.7242119697552605 6.16618609496118 3.7302008842806527 -1.4598404932989308 -0.03685882069956233 1.2016767962051627
Ni 1.2753866218951744 7.103892847641425 10.388182423935492 -0.3760181809111073 1.4896364936144408 0.07015332108663402
Ni 8.837501155664107 2.203095238759989 13.114629665750533 -2.1667671072667005 0.5363460034013086 0.5710906059713455
Ni 5.046135912492595 9.319538937744188 9.107884599340972 -0.3702982477081945 0.04353134762373148 0.26556744575700714
Ni 4.201362803358546 6.44780796123687 1.0409086019454874 -1.6244875119897764 -0.8240146519327293 -0.6561501547458506
Ni 1.123694276373562 6.392360390271558 5.792058812417976 0.4184154149303955 -0.47701882639590104 -0.7629753773322215
Ni 4.044574275751549 2.361150875161357 12.611886216094131 -1.331738620721971 0.7610701898897085 1.2284748902346134
Ni 8.10681408286986 8.16892091173259 5.257288031862712 -0.3786502192173156 0.04018685663153079 2.0137062507515577
Ni 6.890593117599389 5.325528777166509 1.4014241763669821 0.7568229845775805 0.45328780132754837 0.7436154847483709
Ni 7.969069183055618 2.043800240472157 4.602498926057364 0.16759735956842103 -0.1725747581783544 -0.3539460316024163
Ni 7.499018065190892 0.6109896867789391 0.9446897245032315 -0.9517429432203545 -0.7595658374300404 -0.7604364129604516
Ni 6.177469837509584 3.877186429324493 4.6054632207186454 1.6809985597026276 0.8480390398717846 -2.1620848712996827
Ni 1.993855806241518 7.173389602976429 3.1757473721538667 0.9360679556872589 0.7658832950076359 1.3120660819937082
P 4.476723117416802 8.867245840939242 0.3909548572912086 0.870198092467327 0.32718984655449457 2.297868685901933
P 8.523193431875255 4.870276010184934 5.801534381467845 -0.7299459576810783 0.45673102268114246 -0.20445463760608662
P 0.21623720269234142 0.08208367765805492 13.322418859882454 -0.2951621286949885 0.8243424675857931 0.8298788240229901
P 6.3776545290814255 8.331712020416566 10.901037771729737 -0.9926214266022712 0.8820200248029197 -1.211610767489423
P 9.110336501102923 3.22538381570675 1.8845931073926938 0.20380877649197157 -0.1969408457275447 -0.21938554788430606
P 4.375021450972338 1.4018015343145025 7.5262451810220306 1.4288337605047714 1.371307898374161 -1.0317649295709521
P 5.386645966313927 6.171448758494002 2.9888987694185354 0.7138979030792801 0.11231092829129045 0.5533535937028986
P 1.9109202985107516 6.339326800294062 0.986388702601164 0.13857037620845167 0.5456117449739507 -0.5171331779182835
Ni 6.916471733706301 2.942892546316676 1.5875014150625293 2.394768678954792 -0.17315094239679857 -0.04600526308552077
Ni 1.7947902399552145 1.8354024641601654 0.22886759517111185 0.8821812329711323 0.14010609612668773 1.332766033545221
Ni 6.0762028726223125 5.328358961772913 6.487756109445939 0.5057275071845032 -0.13630703409557168 0.32845611486142784
Ni 3.620869743058994 6.240557057118322 6.6319771375654195 -0.9176272324835681 -0.7850878929605447 0.10156345996679927
Ni 5.005144480546263 0.6828828500600831 4.825206707673363 -0.35542570147173624 0.16342805868207982 -0.1664107954594876
Ni 0.6945892705055868 4.798688987787686 9.817971442808938 1.9123549067955643 0.11108065542861513 2.536247229948974
Ni 6.670893100800389 0.6546660945136327 6.807156315732455 -0.9234880621397192 1.187821121268993 -1.7692840716135982
Ni 4.378240092289424 2.404371308709463 9.773881606146448 -0.1321673008955853 0.6984363171085713 -0.3915964949653385
Ni 4.980135267553735 1.6627797011081944 1.547188857462962 -0.9669181082988961 -1.7288894698466355 -1.5056688644869554
Ni 1.0069445368747927 3.4304149671928243 11.751919825087736 -1.5114034529778873 1.0967048247774467 0.786959913172277
Ni 0.2620371737787674 5.074243530201282 13.474017790814116 -1.0365620938492792 -0.6226409672448115 0.03401415216191562
Ni 6.668062916193987 2.231008628113335 8.628763017281802 -1.4288281040778168 0.4431519984451271 -0.03254528092587298
Ni 1.006898292028283 8.49355048526244 7.0618923531442475 0.9459785299327514 0.6724080113656098 -0.34961526543754623
Ni 1.5760336180250163 2.6145633850660372 4.257364387585046 -0.6657712227753825 -0.8002941683873379 -0.6857852040034641
Ni 3.8283056265635804 5.271644282013231 4.331112894108165 0.4974446983504207 0.8852912393550237 0.73761118753582
Ni 7.5709195525444075 3.1328386288712364 6.79286203367626 1.291677491035027 -0.10953567953899845 -1.8789498489725573
Ni 1.1150187431683138 1.1278563125594485 11.615685281960507 0.22837232476394861 -1.5213736768167216 -1.8509916731967349
Ni 5.328701173637085 6.5475210992814095 8.559874844126867 0.6455114440850818 1.2910928221761506 -0.3340456931340634
Ni 5.394063639694108 4.006903223784624 0.16472691795887906 -0.6770370254971888 -0.08024567232562954 -0.8869210616489628
Ni 2.4472125345161895 5.937523826908572 12.073730312774346 0.4116603555947491 0.025879438869923173 -0.2807325835332197
Ni 0.5986793086380168 7.370392649108393 12.716308929307234 0.7145303944569565 -0.42130250667020347 -0.03516163550279751
Ni 3.56634706902388 5.283538456535565 9.810444631590995 -0.23644507446975405 -1.5601824221538034 -0.15175936409489993
Ni 5.956419471192498 7.532018387660321 12.940180231261422 -0.4205507161058435 -0.08650553719241232 -2.0426504445897335
Ni 8.25492707727161 7.4929507413288 0.9333255159219008 0.024366601769822555 1.497546492490137 0.32868262904993717
P 8.46523939022911 6.309387886663584 9.760724022417465 -0.9154801042335783 1.4639838260433433 0.3260313074700192
P 6.004162650729268 2.0234525080078223 3.326208679861387 0.8015758633132389 -0.32604776253025136 2.421970950401197
P 5.2475229700736925 4.4548678029562465 8.396999569822244 -0.8512832578406951 -1.4670971748613444 -0.08858067455388616
P 3.0213792998131943 -0.03581015934336804 10.353934415507227 -0.9961466661467101 0.9635322225457987 0.17741203166599767
P 6.536505576842764 2.029205366913648 12.929188756142961 -0.3799514545272424 0.8007389692342404 -0.3999862616909305
P 8.822841539320484 2.8904508903745048 9.277460751904874 0.1264666509663822 -0.2780496373844179 -0.07120027429390964
P 3.1470727926269686 2.7386013123747586 1.7897005321483401 -1.1104923654798422 0.16480848396937423 0.16229471640858503
P 4.531569505377485 5.4673154765657115 12.33645283517839 0.74064226105266 0.3906783540264433 -0.7266593165100067
