# total energy = -340897.40763014246 ev
CRYSTAL
PRIMVEC
9.02985781406536 0.00000000000000 0.00000000000000
0.00000000000000 9.02985781406536 0.00000000000000
0.00000000000000 0.00000000000000 13.21610966290819
PRIMCOORD
 96 1
Ni 6.21912483486924 1.9546932872060627 11.291262702259504 0.7005338230675484 0.275916393091499 0.5395868789361095
Ni 4.714533832478964 0.1817665197247399 5.937469126747022 -0.4775484736471259 0.3310459870757912 -0.18153993779144217
Ni 2.7782885444679954 1.5501556641320495 4.674445779406708 0.3207417769363057 0.8823951487541514 1.3948553466767977
Ni 3.326292546010757 4.282148128387981 4.7705397186305705 -0.6325427997395557 0.22357927425067947 0.12097631727577231
Ni 5.138738485531888 4.284875145400667 2.7303688958490406 0.9307534854528808 1.371692278296773 -0.19126205017521253
Ni 7.459881456210932 6.167618526788567 2.6351860692628604 -0.9252757501677612 0.05773309304541025 -0.5108951674283716
Ni 5.045053712331153 4.393423064306308 11.650965276090504 0.7987306805549599 1.5497275453690664 -0.43478434320672216
Ni 5.549894994269144 7.715462547360192 12.408605550033354 -0.2976836095652615 0.4429586514873984 0.058413921162518756
Ni 1.7856182324195042 6.312150428460947 0.5558771344346861 0.6148492391145347 1.2395326907106716 -0.9769423253041174
Ni 2.681876754254575 1.5140362335004414 0.3185146840960089 0.07931030499555372 0.7212558861062482 0.7457212182374641
Ni 0.4310294194707662 9.135597291076111 5.045553966445402 0.37094770836673535 0.43832372381854834 -1.1425015713965874
Ni 8.648770575165637 2.185370030934829 1.3063594402121173 0.5182570071100817 0.17235749996122576 -0.21475756219399147
Ni 6.865265329438081 0.8090454476177551 4.86073986976112 -0.03336340595179415 -0.0393083106813194 -0.9437182731436651
Ni 0.74003656643877 7.284648038501685 2.6353585395441264 0.16192524888430823 0.7010837820337475 -0.42233480458945977
Ni 7.661382729847018 3.917052923563684 3.8280329748290223 -0.1459532989360841 -0.8684109186599174 -0.16676740746795796
Ni 7.552076302898113 3.6803893842077287 12.656632262266012 -0.10296445407938397 0.12668236652161408 -0.295859154762013
Ni 8.031624953536319 8.994054272288496 7.010564769011383 -0.28228630117358483 0.8826268051489832 0.8571561716817043
Ni 6.778903770797905 0.6888056690166626 0.30122250668112643 0.19330453452653804 0.013504719354654162 -0.8547786725884633
Ni 1.8471838019310804 6.391405489124353 9.226641733897674 -0.13034438875423357 0.5194751957878989 -0.4683760631192385
Ni 9.092886064354234 4.667136109632636 1.3365453513767183 0.2646531614728539 0.5145677311839525 0.09070414865479218
Ni 6.249112992151133 1.9606078439719887 6.886452084460816 0.33934293697726076 0.6375549082421665 0.8976618451052347
Ni 3.46538847337308 4.299268738507363 0.4453778632891726 -0.47494188926221437 -0.49513944725601183 -0.11267602494019303
Ni 6.009433480337438 5.710509072430248 4.789015710384404 0.589280903727127 -0.08612012882853555 0.30428208871838563
Ni 5.221777056553956 3.036795309498416 9.197685689346079 0.3109093642269162 -0.2995376320548648 -0.24489063413394602
P 0.25507722509194947 5.611171608335667 12.35160367058208 -0.12280102918933691 -0.36619862371752415 -0.12060633553086325
P 3.948865112092473 6.177253384909548 12.762889306283844 -0.19090003885010348 -0.14029892886378417 -1.406760839865132
P 2.3815798079833836 8.397207770674143 1.547434968019724 0.6679625739997463 -0.19683491627729974 0.1166038992396895
P 6.701987443267895 7.818348745514329 5.856493878199785 -1.6485466098215091 -0.3479723305174846 -0.9938954082186883
P 4.7405940016796695 0.9140383115634798 12.600555943224675 -0.06957302310313179 0.36846042316850736 -0.011719859540089493
P 3.841463985109386 6.271985621598598 8.079827236699966 0.2344766378894736 -0.043667873201595764 0.07397063795019519
P 4.78552657338539 1.1827217261743563 3.7506389678289094 0.5258967830435266 -0.45132142162979694 0.038934986502300685
P 0.2651996955264577 5.371185081361603 3.579834695300863 1.255285325559238 0.1027669933565972 0.21625882932986626
Ni 1.5044284649524335 1.0251777996169387 2.7971501111438215 -0.8949747851913749 -0.21457552809017238 -1.4601806502471693
Ni 1.8293046837684344 6.51994551288459 4.726886677754974 0.037157839997219874 -0.24043954034112783 -0.027936835619584145
Ni 5.865768445000215 5.506750334379687 9.255585136648548 0.13608849032686238 0.6055181915215959 -0.08318392901834706
Ni 8.60755830481497 2.476059208658013 10.379826795673035 0.005601662457493579 -0.6438852213355685 -0.4663950281334678
Ni 2.2067707935840573 5.164825744305567 6.9083639370534815 0.2860887056388105 0.4813531921051968 0.17473705593699582
Ni 0.7963079304055184 0.008725551454830777 9.000633426578043 -1.1016724531953672 -0.08184926936732356 0.18384570310648338
Ni 1.5767034456462816 1.1303666114738398 11.286240295430181 -0.3480132110577491 -0.08308288466410853 0.1010222427513486
Ni 4.132929730591149 6.688180790908964 1.6677803959554138 0.553658269427511 1.4830112749884394 0.1553167424288551
Ni 5.671725833789558 7.86405788497863 7.83521019871893 -0.5658260151382964 0.2220340412507466 0.8309278341127947
Ni 5.23367840894707 3.0406420288606824 4.863065961093795 0.9033954051549022 -0.7068497379832471 -0.44437070134357665
Ni 0.7935366670903083 7.555787574395511 6.937479810085621 0.7115774824762197 -0.8058140697643026 0.14052107217691925
Ni 4.883870753137601 4.716601669882624 6.956828086089208 0.33108506784384273 -0.357102832063843 0.0372398581880649
Ni 8.056321614230681 7.233701581595802 9.042660190089451 0.13604760978659794 0.5927727189304695 0.5299668393478422
Ni 4.574995442091403 0.3370168624370503 10.400192736634665 -0.18818881056652753 -1.0492080647480642 -0.18276532555811104
Ni 8.408567331607783 6.971826679658984 4.819795786182895 -0.6333213297767931 0.7572109640446184 0.03169990220644218
Ni 7.112575070972703 5.994064662603688 7.118619657688903 0.06937864770413858 0.36620016637942093 -1.0016588542141909
Ni 2.5003766153307434 5.101517412266016 2.487588530915622 -1.273798553872077 -0.4583248495308236 1.3897856454633741
Ni 2.338534476528164 5.161620144837012 11.482896147447036 -0.42639869024618826 0.5090082348183039 0.36512827347148086
Ni 1.1362360189514762 3.1971294620721253 3.820063222460158 -0.6325435710705042 0.9131041478022339 0.06419170418656041
Ni 3.656189365684551 2.660403752744084 2.417675760985081 -1.0050971904717787 -1.046968376784268 0.37124492789218
Ni 1.1081712213507167 3.4333505384028435 8.29703414176044 -0.05980720196561958 0.1124176290724838 -0.2508123989350196
Ni 3.7589852652621083 2.570303833033537 6.7652470140760945 0.03370047757623873 -0.20428211658396433 1.0451819743078063
Ni 3.932313383005539 6.856280621068469 5.815035092735059 0.7700556812177705 -0.028307331585125446 0.7229029347913679
Ni 0.6075261142663544 7.574569678323948 11.220542663054347 0.2296984997745399 -0.8101949724408177 0.5969641313039976
P 0.15394643126650936 5.735621106576873 7.9522516017375935 0.20441864216182862 -1.3393514000722222 0.13735784395758924
P 8.698651508867886 1.7378231958362287 8.164397271580814 -1.131680055301051 0.1803394897254378 0.18958851912753152
P 1.9133907182788186 3.2948957309342313 10.354385171721894 -0.4530129503996069 -0.6209160141339048 0.5450741273029258
P 4.138067719598495 6.035340141957959 3.7633665521977226 -0.6145494484859287 0.4602608902112718 -0.06834506423330165
P 6.861021296338867 3.9305074114739584 10.456361160224114 0.21391089792298 0.5099469445824895 -0.19650581507265513
P 6.183204061106106 7.593360812110041 10.124174368648275 -0.6217259116297099 0.21131408373008123 -0.16183551738397936
P 2.471002488369588 8.48942067707664 5.827101691523313 -0.499478698061314 0.8140032904433141 -0.12750871907765138
P 7.014655294530413 4.106833441959812 1.643911773208281 -0.7058855742977649 -0.9637044864576049 -0.5241533179898585
Ni 5.260289399464908 2.826318357350377 0.446482214880734 0.3417062950031147 -0.24540279788367414 -0.30969760330700213
Ni 1.5270301986701624 1.2519446149798334 6.99741458730418 0.11823140754078347 -0.4018701089772047 -0.03139779758499109
Ni 6.8497700936971215 0.7751446530126933 9.190614407814175 -0.13976053986181092 0.2008268110455122 -1.0573088394783274
Ni 2.8320432871054866 1.5908712923115302 9.219280593934952 0.029440416748304138 0.7571222609855541 -0.37674837420891244
Ni 6.484539441007956 1.9958242888378066 2.3588372084861913 -0.46043881055003283 0.3228140860843021 1.5608889613025247
Ni 4.05399071494577 6.7705692121796615 10.444453486930637 0.22839006537576154 0.6478514050721681 0.3098487841728857
Ni 8.116162480929598 7.113432907450204 0.2977469144685999 0.3164032974619519 0.6227962618757532 0.4552318124277967
Ni 7.629859496763282 3.970320053887649 8.244949019803894 0.06706748307245869 -1.335533568988029 -0.06714795860140693
Ni 3.0817549707771104 8.474918725678048 12.41575539132688 -0.0179522136030465 -1.350069557820675 0.038921873876178126
Ni 9.060920368245261 4.838540867694934 10.133782137196283 0.12096911818692072 0.7995691172958552 0.6268881725569396
Ni 8.466638346205752 2.4261963346710775 5.9372840146650345 0.7652762575512563 -0.03065937675706978 -0.08581159644918124
Ni 3.7699384826011437 2.5966981069675845 11.49939008544496 -1.335413498470397 -0.6045961939279587 -0.4072560558794664
Ni 0.9752878360570297 3.2907058769809647 12.497430453842604 0.38604394057822544 0.2582886527074068 0.15817066693788243
Ni 3.0910737838800655 8.437318398390543 8.075650927533186 0.9029097237677353 -0.3848175243702921 -0.5051001580131494
Ni 5.677279196249168 7.884311855705304 3.712101341316515 -0.10607677445612054 0.19851436086225166 -0.5151482862777709
Ni 3.202782152965972 8.520645924857664 3.7163832998178923 0.49163297676465006 -1.6136076318524792 -0.7874687344878954
Ni 3.46061167867205 4.557161473217048 9.420826113873561 0.13042923515855603 -0.5688848565692782 -0.5446491239503652
Ni 7.2699474302346205 6.183637494273685 11.460666443864811 0.2036707082522105 -1.0788914507451095 -0.7414416170255037
Ni 0.7362458321939828 -0.019466567138905298 0.330974984678148 -0.8107750133140037 -0.5121411240203309 -0.15924873049340962
Ni 4.581632387469962 0.33330920288271565 1.599307888321308 -0.2934934827433139 -0.4775978388278227 0.20827966777913162
Ni 6.078078458252809 5.590177189281044 0.37525830961826556 -0.4590023352138224 0.35972227196456114 0.5747500571008037
Ni 7.626671957010042 8.815570105822404 11.169951982540185 0.5814837762802115 0.30953536669752496 1.1404254055938488
Ni -0.03098866551038835 4.863472304688401 5.818471856559657 0.44659444846777285 -0.6395071468725309 0.3386060588112362
Ni 7.887878649480175 8.941184455701478 2.329827887774415 1.0183980213457429 -0.6068993881398387 0.6083165802023395
P 8.461717073782195 1.6599677631097967 3.5427635176721113 0.1413433109678985 -0.23052768054405456 0.9636036992136824
P 1.6653585881315645 3.1384715067263933 1.5711573070727984 1.0353264216699651 -0.45425350767492734 -0.562723979174205
P 4.772433279781432 1.1330575090558948 8.253540026379623 -0.06546285758950016 -0.9306691532691906 -0.820085234971336
P 8.620236224966666 1.4551976810015512 12.3511016104963 -0.5618881135364711 0.11453338986390599 0.12769975204253492
P 6.2942081012946955 7.8022575391679485 1.4060490687553562 -0.2958162173392196 -0.8551509683262175 0.341520918465186
P 1.7892482351979808 3.163529361727072 6.028872054917604 -0.43860500250439305 0.4931589264908732 -0.45318238609793565
P 6.855576292171152 4.023957408375587 5.967720955872525 -0.0258652978025361 -0.19113580900999338 0.8915588175312903
P 2.375701370648089 8.317176142252157 10.231409346250457 0.8769071290563866 0.6254136448939422 0.70260047578859
