# total energy = -340856.23741017445 ev
CRYSTAL
PRIMVEC
9.43009300115830 0.00000000000000 0.00000000000000
0.00000000000000 9.43009300115830 0.00000000000000
0.00000000000000 0.00000000000000 13.80189431560022
PRIMCOORD
 96 1
Ni 6.60319623224331 2.850141848541736 5.2077310846375875 -0.20538152029573015 -1.2489575835689974 1.8494932342743373
Ni 2.588485060795987 2.5463796959895295 3.634093761745592 -1.1515837362035135 -0.32288042054586324 -1.269994863855271
Ni 1.2791355215693383 7.807720858773748 1.640631531894126 0.9223871157660567 1.4184285060110475 0.46427541068730366
Ni 8.074752799473513 9.151263914862257 10.423522069678326 0.6613872347750739 -0.5314475376584267 1.301752615882842
Ni 2.1669316178076192 4.813015686047692 12.569647130507454 3.385484403893918 2.520358840853492 1.5616667200088137
Ni 7.007718927451059 2.8368925680147323 1.193501790937545 -0.28251255825177796 -0.45013177219706996 -0.44579303561239997
Ni 5.4157966544225085 4.70469220888492 12.701096967502556 -0.018978597985031834 0.5910068852792983 0.2533313087021315
Ni 2.976693695283653 5.2227909430017325 9.991825618764802 -0.039435066067170794 -1.3065541510365433 -0.3276876121265195
Ni 7.261378996416097 9.21868907911 12.900465162604164 -1.929737106827754 0.333932821705283 1.1732648207213727
Ni 8.98300276721576 6.678636975457567 2.8476485319785048 0.8495318223672271 -0.21146243638248743 -0.16332444322468
Ni 7.638026337006178 6.687529553063948 9.399696883331838 -0.3528000909234311 0.7571063201459542 -0.03797853612630233
Ni 0.1405234723851969 3.401802283295992 9.846133512460138 -3.0489097736904136 0.5623485981126572 -0.2710312970850558
Ni 2.186546211043326 5.902464888897682 2.7447963947173473 0.13801321815340103 1.1062551874700433 1.18469594537645
Ni 2.1191776273529945 0.17309689928653282 13.713507026391436 -0.531046445565266 1.0900145572414648 0.09819197239140509
Ni 7.768736854717781 5.70646040793414 5.095051847563482 -0.762572742577164 1.0903338882540963 0.2105005866898504
Ni 3.689297525592625 8.411275094766511 1.3123021013141964 -0.26824473547885413 0.37465009691898704 0.24710101152170344
Ni 2.794947514787605 4.8782342085564165 4.952644242616509 -2.696796938641994 -2.0262144105208972 -1.2067356987853088
Ni 8.390500600103886 8.951609987945726 1.8505444568785065 -0.31124823562357357 0.45797389394930804 0.2893051556935792
Ni 8.097253001137165 8.466488288706445 4.246442502378557 0.1724865693399223 -1.5557305570300368 0.6785218375728314
Ni 4.380372453806828 7.305492971010635 7.859115808097751 -0.19650710062423576 -0.8994749870545735 -0.8201626251764906
Ni 1.9619874087731877 8.992149957330488 11.437891701872198 -0.01682581330808715 0.14501947426790507 -2.0785831539306012
Ni 4.0245278981580785 0.5407102108767066 3.010883440108354 -0.3823631492925286 0.8694375601522187 -0.046625670278339054
Ni 0.18200739406942681 4.246634876273753 7.792645912260959 0.8155968601826792 -1.8563650216935061 -2.45713952788253
Ni 8.629958949158839 1.9432498141773464 6.49096209555417 1.0697154406727964 -3.202653000984562 0.4080926928481488
P 2.8372792018237054 6.73209617211777 11.483231588543967 -0.3729539401634867 0.9467927983039307 -0.8782656999668099
P 4.67082874527462 6.961784944926478 0.09449990397804914 0.6429369984896862 -0.9644588481251261 -0.28950801573300466
P 0.11082810983748494 6.083956456885381 8.588118569962921 0.10158814255714761 2.2328717122052573 0.6507382397016599
P 4.016276566869019 3.5067875075715325 11.659923239244659 -0.42484060173044896 -0.3568693758967983 -0.2413741363402553
P 8.541372656439497 7.354076809640616 11.79544404734546 -0.7691519384565786 -0.8245854368345347 0.12101359827161094
P 7.682640106524509 3.616374617183143 7.061891039134636 -0.10936984338509552 -0.3846444891275375 0.3796310950733462
P 0.6139876907792949 0.9089025301710496 10.435777418413483 -0.018995824376212445 0.07678111081579679 -0.7006032428529031
P 5.622447710272162 0.26195006363499485 11.675547017164332 -0.15574174578141564 0.7442384630443505 -1.3749526942155998
Ni 7.852957014423597 4.140961255216383 2.996405418476248 2.303055372309195 -0.8172410806543216 -1.473726507252404
Ni 1.6643831068858446 6.0464246871362874 7.085381400552976 0.7675218590523233 -0.151289623547333 -0.7040276951534198
Ni -0.0007968428502005919 5.462777377259187 10.724278851622737 -0.19004437571802754 1.9511909058261558 1.1517878817945195
Ni 9.027003580695474 3.577513204334899 0.14044520261411214 1.2059430276806844 -0.6027408858867749 -0.05304622909270219
Ni 5.95748948097958 2.048970585699226 7.891467627815895 0.7838015700489533 0.6169925107097827 -2.639583722655796
Ni 3.957366776511586 8.666293097109406 12.662989019077163 1.3044952116249855 -1.5860616039134103 -0.11619663649894182
Ni 6.791892391207971 1.6250501893925113 9.870066145235572 -0.6412087029446699 0.15813235750077925 1.0931191643087175
Ni 4.712321154042462 6.7559543071592785 2.654684312966497 -2.8608736866516664 -1.3096114498056284 -0.507488712849984
Ni 2.005884491230984 7.302522491746572 9.005515228000183 -0.09129473105093953 0.46021718145753004 1.0422249485620116
Ni 1.6842051621653908 8.493081150689472 6.712372189804403 -1.5018199230545104 -0.6504453910515895 0.7828577180784453
Ni 6.3666423518021045 5.069137009260095 7.366512273150196 -0.39504203031177776 0.6767668025549377 1.6231155713429142
Ni 5.922767878915219 4.2957185098275295 3.827610584201644 -3.8908642979310155 1.4880454949782371 -0.405085787701025
Ni 5.422916374563354 5.309387486118799 10.26183275377508 1.5464339622194594 -0.6680114249598108 -0.3651812381966033
Ni 5.853664158130959 0.5399312852030194 1.48863069343817 0.8103291840258368 -0.020107826493468598 -0.1711601372190149
Ni 2.026328932642047 2.7044280530233986 10.571823482688915 2.5402478664679347 -0.4180287210149381 -0.011059857358587406
Ni 3.221225434319766 7.137231823364135 5.238260067397816 0.6292566727891162 0.9850654686318842 -0.14698482552439204
Ni 0.8176399770861823 0.12503548780330992 3.6291118436655805 -1.4492519191498074 -0.0873725131783979 -0.38728989717018464
Ni 6.564966635619485 7.540745498631393 0.9295855529325284 0.005995298351486449 0.07215543911832734 -0.6452093394636307
Ni -0.020313363119728936 9.226798959005533 12.796922742542595 2.0610726558506633 0.8751294683306734 -0.661711450883712
Ni 2.002565098529556 3.621249975213365 1.7369957652388575 -1.104767032960291 1.0084131422188891 -0.7727882496575852
Ni 6.293681723021016 7.204025171387458 11.48933191564213 0.6813945311349361 0.5437623504700377 1.4469924336916693
Ni 0.8001622429020192 6.68468166500761 4.967785199779611 -0.32877673142564023 0.25027195305051736 -0.35334285080077854
Ni 3.474838352820295 1.7945089588375365 7.684356383432634 1.1216779497830167 -0.8405671569747717 -1.4987073455674575
Ni 4.063389311006323 2.2587618624851737 5.148796776038609 2.5595082573594437 0.9680373095050039 1.79850414482098
P 4.281309327873607 4.8586573356923175 8.110573007360934 1.5486078299423267 1.99318396242849 0.17231970474475483
P 3.8061363766457053 4.505707818564415 2.935331421797856 1.022675308564858 -0.02272778061481892 1.4903887983994333
P 2.4641870062575966 8.282497746099773 3.450335199424304 1.2321029739055038 -1.10750062984137 -0.40662356450178994
P 3.6282376740535853 8.956409905232734 6.617579952946398 2.5637994285356296 1.3432620479805382 1.2215568229585414
P 8.753644047658613 1.1946984697267808 0.59634115793219 -0.9576819344126087 1.2446031632550436 -0.2961082946583417
P 0.7207033371023127 3.749244626169254 11.926285643348397 -4.1789350669968615 -2.1627798404841787 -0.3239407434895776
P 5.746217679608053 1.161278220482865 4.260009577036351 0.4320504892153269 -0.2263378108324231 -0.4641728236711683
P 7.179950144209209 3.8856980704580417 10.355919619684032 -0.19363800660655686 -0.523278371584073 0.5653457330677683
Ni 4.83592138170612 3.138202896412476 9.489009293204619 -1.273696481076574 -0.05796552077119049 1.0388820002317076
Ni 6.850274096362905 7.268904210551719 6.9519587881228215 -0.5129823889747036 1.1668643165116679 -0.015827453950559837
Ni 2.607298096135042 0.5642533808152959 4.979268223906111 -0.5290499839605276 -0.7151929677416199 1.17216721678182
Ni 8.425514535048203 2.184009516052747 11.4580155201246 1.8326070000419599 -0.6315125587028284 0.9615041363721764
Ni 2.6165018668071816 0.422349342829278 9.143893354250226 -1.207707575780275 -1.2937991653637204 1.0906905002625666
Ni 3.8736841321011712 5.048852879428361 0.7825289121849769 -0.5300020634611518 0.26086027008932494 -0.20901011818725293
Ni 1.741634427937244 7.482156331432621 13.071774116276519 -0.1954704318296053 -2.5948349576851957 1.2932738889878694
Ni 2.9264501603029576 2.6630770956490837 13.620579118900114 0.7673583368912655 0.3718673919675273 -1.4396287942377464
Ni 4.648469995004494 5.178177173483402 5.914884321249328 1.1609194117821426 0.4519891371207829 0.20008170534937153
Ni 3.6119047531476984 1.3138948440053075 11.635893476512338 1.1024964917585593 0.09499814804445575 -0.544768680247365
Ni 7.713844283936507 5.3187892887418755 12.966492787083862 0.11215691921192943 0.8180548348048686 -2.4732703720061213
Ni 4.625036214143566 2.9238663148478694 1.8056883339725993 -0.06201860779464158 -1.3148685844395096 -0.1953544750770313
Ni 6.809319202890464 6.293445970698471 2.8613400838626024 0.5943991987902989 0.5632173738708557 0.8362235352940952
Ni 8.848190159091882 8.428739626820612 6.509387554074961 -0.7580203473197913 0.4346868983969094 0.4013864844725668
Ni 4.9741665436462466 -0.02897207442214531 9.126889010729732 1.1400065728888755 0.5066497618884566 -0.09242627355222147
Ni 6.534177382295167 2.4679496133254073 12.542332866417441 -1.5013072450841498 -0.3532271511585207 0.34643789615082915
Ni 5.770603899852062 8.472297225933943 3.649455383082595 0.8748859848612996 1.3025532574072665 -0.2175873183333027
Ni 8.76828898193508 3.6303971653280933 5.035703557886117 2.242730864387524 0.30564374495260266 -0.42333419238825154
Ni 4.390396642561423 7.347155121450707 10.208377329152038 -1.0176230908529313 1.2749072135552237 0.023124244722289206
Ni 0.8252840103923669 1.9471821629173898 8.32898810410556 1.0520923282743946 -1.6671333716847612 -0.7659383166152872
Ni 6.158473050995264 0.3568215132733742 6.300799557143281 -0.005913794381273686 -0.6899161954527021 0.0018979883536612472
Ni 8.227897508198456 1.2294200717911428 4.046563196241673 -1.7672948090977112 1.2167077223963563 0.4742790588672348
Ni 9.057161017795375 7.224488472984325 0.2669385827800376 -1.7597434791130144 -1.6417193024870307 -0.5466849234334714
Ni 0.1553334332874458 2.1151886980555403 2.4416104208414398 0.4832272691994581 0.4098089042083071 -0.8251690772521466
P 7.333736099251472 9.129188067379186 8.47227930875743 -0.7556796150017566 -0.742723826172037 -2.162141692679547
P 1.2802482725317486 5.560774902694507 0.8679146313734535 -0.41768779273575163 0.8890658759061074 -2.181132374849437
P 0.4222588139374209 4.761093594530479 3.437899735914724 0.39063258839017245 -0.19110084200699992 1.1800386491100967
P 1.3758882747416232 2.7402906963288762 5.38892183266172 0.24510249303443593 -0.5531108815644733 0.35226453013493525
P 2.622065621619233 3.6261441934293894 8.080111921269596 -2.8504527484286584 -0.08555037236799459 0.4749349472836788
P 7.449349038227321 5.163786851715282 1.1430630530337826 -0.15437469023055994 -0.22477200900719999 0.6353666423415961
P 2.5668147073076915 1.3914384979366619 1.463676781601474 0.4522789004470599 1.0147737943295942 2.4976922524939114
P 5.711232034942442 6.855602098852411 4.959075565975525 0.7992302458991977 -0.9414698434291205 0.8654356380816772
