# total energy = -381164.48833591957 ev
CRYSTAL
PRIMVEC
9.25112995944111 0.00000000000000 0.00000000000000
0.00000000000000 9.25112995944111 0.00000000000000
0.00000000000000 0.00000000000000 13.53996381419378
PRIMCOORD
 96 1
Ni 5.210245629120613 0.18926146638531416 3.187768228839836 0.68087825362015 3.020357673084334 -2.385255597258034
Ni 5.798117931812013 5.133192967912723 -0.017160846024809506 -0.43341137411859554 0.4491411261490265 1.3459799611323335
Ni 4.915236346702742 4.032067976565565 8.60103175455541 0.5533978166772728 0.8430027629994579 2.0861740789039813
Ni 7.1955751171573885 4.236841737621716 9.346393442991904 0.3159412702238688 0.7669395041862921 0.8315412993270775
Ni 9.1692481814792 8.005224757720894 1.4131119474171734 0.21986094485882782 -1.5895148525693334 0.2635131343311397
Ni 1.1287488653256372 2.424332607854194 10.444985474963538 0.8065730594175142 -1.4439757583525323 0.5886018753822314
Ni 4.872671897883256 7.209627583524875 12.912007421891309 -0.42976143607083406 0.21596520934884741 -0.4285100801622362
Ni 5.6223094585745566 7.791958459386699 4.581056855037623 1.635275089523584 -0.051955310021368585 0.6027966788253748
Ni 8.024679883968966 3.2713013065654524 0.5925774273750744 -1.3683557577243723 0.1756901638788845 -0.1156847298595298
Ni 1.1247893817145223 2.946401623335636 4.309039405841024 0.33760795656402504 0.7813456523092932 0.09101756613015292
Ni 4.038839803676164 3.782093194659162 6.361495092668106 -0.6402805347034457 0.6398920410157755 -0.3872536446156105
Ni 6.538171321893231 3.6416517911536994 7.197939705968139 2.0166234243983525 0.3556259904080004 -0.8033182999256423
Ni 6.550410566793944 1.607115543005893 1.985013099393084 -0.7538921840840306 2.9803921884349895 0.5426770878256589
Ni 5.673403449191819 7.501648750974544 2.0132975040487455 0.533901398515558 -1.3910732539265462 -1.3821540970600454
Ni 5.467806337571676 9.17208827836848 0.46008274448163944 0.07375903616002136 1.760468530204497 0.38933983772067793
Ni 5.841690753794143 2.858192099429135 5.290944160634908 0.2655283649889556 -2.5262962893838488 -2.021613678524093
Ni 6.409756387300034 0.6291360426423747 11.51495358581099 1.7482434488932148 0.90441099090361 1.3442961456720073
Ni 4.824593775623992 8.485830208844817 7.167311990100572 -1.3818383655918396 -0.48087908068225566 -0.8781805964521714
Ni 0.5956173486708978 0.4165506274712116 3.637349090622088 -1.0806989362674937 -1.0433613761593 -1.2602485831017847
Ni 3.5500008469123046 5.010374966928694 0.9794023241471388 1.0880432924477068 -0.812385295223917 -0.6700585372968266
Ni 2.547021093019166 5.916763673196477 2.8789618112406172 1.9110706407665023 0.47745925636742936 1.3177693030260724
Ni 6.575434873261389 3.780899798897868 11.987755708836838 1.9673047806688828 0.34492300216819954 -0.6869290877999202
Ni 2.070893188782578 7.746304133169752 5.6293884231989155 -0.8794733471216659 1.8028639644515725 0.08491299589431184
Ni 5.7134238372798665 6.404612759057557 8.76429662071737 -0.42667611227729096 -0.008637621070339965 -0.06100687870067559
P 3.07657427261601 7.817482326870499 11.733718755777069 -1.3689892775433135 -1.7201330638102441 -0.5366211114395661
Ni 3.230106024975977 2.0828086441356533 9.554434703140217 -0.024721671116396133 -0.8536329890197943 0.009823156738008888
P 1.0156445507707472 3.267489841033257 0.380020690706702 -1.1453760647309046 -0.5081944806677571 -1.0142284633490857
Ni 1.4405211951812196 5.684134759913533 4.919962748985263 -0.6229091333045336 -1.9835757499147648 1.5089200244344014
P 0.5425870965587599 7.4197114931622865 3.9533852662635653 -0.8326345323912564 0.6441958105974519 -0.39737196399653496
P 0.5431412392417174 5.531130321959719 8.648597364216412 -0.04167963912697338 -1.138920024692916 -1.2571241785401899
P 8.335138553374133 7.267659921591521 11.51091916804742 2.2166614209939826 -0.6060488672140854 -1.7387270247623474
Ni 0.8815281448001431 0.632860547553204 5.810336824226873 0.4735684059534553 0.5738478570015084 0.4523061541405694
Ni -0.30900531689276795 1.8881926237454012 12.562472904764205 1.4306137352233297 -0.5211497552768445 0.1419670605948265
Ni 1.5493607388372215 6.03485434678499 0.9705323407678464 -0.6482522400550126 -0.34857036911279965 -1.038768614582295
Ni 6.280573608922438 7.800599014743664 10.889420858277328 -0.1822498193742732 -1.7982709457642514 -0.8055867842448449
Ni 8.087744836718901 2.082484854588015 4.497962280870809 -0.7222966686659367 0.9315011622521828 -3.3272453177463666
Ni 5.235732492084684 2.374876067234985 10.788142263115168 -0.16874792823309645 0.15183264053499657 -2.059315306839925
Ni 1.6161816503397548 2.9957934060453164 6.5470598075323885 0.2736941886291996 -0.48985171649451115 -0.019978500004455915
Ni 5.38536026761313 5.5915587026788875 10.94878073348929 1.0186312204024714 -0.6101662318165685 -0.30016652388811527
Ni 0.4585461317998492 8.815540479639541 12.614385620380496 -0.6352198323510867 1.0172713639404674 -0.4016924457487598
Ni 3.5108223116481168 5.384777446427382 12.198830414490022 -1.1480063032649002 0.9341272870211202 1.5496835795050086
Ni 8.952864252357747 4.485160567270198 6.684314196776101 -0.5624797243738829 0.6052615954260996 -0.9014254259127249
Ni 2.188771086382644 1.5260663936671568 12.56178277047124 -1.994137584591011 0.5426097249228332 -0.2476733390854057
Ni 5.175470631704301 1.622925724060556 7.943490117455257 -0.5439166166597148 -0.2419125253422285 -0.8588255889643274
Ni 2.672762451061867 8.034134538759995 8.53599908646883 0.6932169776911609 1.6760568994266358 -0.5010799811101629
Ni 3.0178018441547625 5.94815275705749 9.865190333816216 1.0726367280846496 0.11434749910534499 -0.4494344890197292
Ni 8.80728847173974 0.3769937209927841 10.092012312840522 -0.9381711180731908 -1.5194031833539123 -0.18321578283196832
Ni 1.0593376374420007 0.7527329887667197 1.2410918118870815 0.17758712379128125 0.9408946876519408 -0.9054851978043955
Ni 2.8134628862054396 3.9733510548839126 8.289003168400695 -3.4066139867836815 0.4875197259272249 0.7837694312594372
Ni 7.530947079470809 9.214227175211072 5.098283829112389 0.15974109674879586 -0.8986951714657555 1.104735408391407
Ni 1.098525423836121 7.122463437300747 9.905661251931976 -0.6491366995424949 0.24669400589127188 1.8442271007793916
Ni 4.066260152796128 0.3221604236567998 12.170626494664774 0.7569690232371415 0.40066966091120026 -0.720137713341405
Ni 8.368581388080162 2.2036839078338533 6.529010853034057 0.14521693499069185 -0.89666862795403 3.0392732790419137
Ni 6.89866010197342 7.152501856191614 6.720506467298073 0.23216110238241952 -0.28474170469261284 -0.4083657440038773
Ni 1.5968745421706025 4.0268873438033586 11.992670834169981 1.9954637596016023 -0.6338702603017277 2.1260498320529964
Ni 7.344083505964002 8.839963462661373 2.644381834654907 1.828447983568264 -0.2184452954582238 1.2148043347260562
P 8.268678435938968 4.339603288912056 4.337676278547114 0.7161422190287666 -0.017188081743512332 1.427123205571568
Ni 1.02165778522688 0.9888995341358555 8.243482058454779 1.2826287505691973 0.301209620440649 1.3015273872459132
P 6.19270637682344 2.108434274048711 -0.3499036372114096 -0.14256947006551576 -1.0141266476638986 1.009128680228675
Ni 3.6788228312225324 9.039741613553966 4.560842211022091 -3.5368894699731923 -1.8647763856856527 3.3929984528827757
P 7.014937554095162 2.0100300049565822 8.789399561789242 1.2868211913839902 0.5070675661521654 0.6513645604317492
P 8.90381476145557 9.06491393810033 7.351428903130416 -2.2556894814307213 -1.7568682144477483 -0.6085310102059907
P 3.672532062868424 7.800016193557916 2.7747718854886956 -0.24653665437780123 0.04372186636798276 -0.6316418851918412
Ni 9.319125737515824 4.680562933704714 10.722797831949862 -1.9983878752269326 1.5366030921719667 -2.3438695781120793
Ni 2.9877171696142333 1.1133919896376676 7.1002348222989085 1.0392082732228747 -0.5452708166947642 -0.521044854267864
Ni 9.58019262421131 5.467519552543767 2.736345467088021 -2.727800329002044 -0.5078147287308351 0.8208876762679734
Ni 7.414734385258595 6.634105539293379 3.9756582866890806 3.1586025476325665 0.2234175518618346 -1.0883029738669965
Ni 1.1558269226380995 6.699492525656373 12.535325463977248 1.287050533785977 0.38142341108707856 -2.8786055567137905
Ni 4.673929873543103 2.620077266096212 2.9288568554186267 -0.4273150314128705 1.122316868918596 -0.3246956193777311
Ni 5.990670950227314 5.210994970645146 4.902157099204157 0.7614036619697273 -1.41624666786838 0.2255106869454374
Ni 0.07695552434359992 6.8318391904708875 6.818035579498587 0.2743215378005534 0.9808444885720011 0.2584241498440065
Ni 7.215095001314989 7.9100953886248755 13.069896456449488 -0.009230260349016361 -0.846541886500968 1.9466143421990665
Ni 9.149219485175312 2.4611798583753886 2.43383536852087 -0.5150654967559775 -0.04119190085727745 -0.7021633882511714
Ni 4.037563147745477 6.521954091121538 5.248469447775766 -2.1070622352069 -1.788204048446553 0.3446322104006581
Ni 4.986035244076256 5.531925919133916 2.8146470308368015 -0.7422252892690637 -1.2100873888663612 0.476548828738018
Ni 7.81667747856637 0.612265682097446 0.614316657603484 1.9365291900489228 -0.3160862804421653 -1.5013311563435499
Ni 8.814735631335413 5.1948424977829815 13.028653994097358 -1.011520063278987 -0.07848523799109709 0.514502682273972
Ni 2.1505546686314374 3.3106186087786273 2.053403002532171 1.181822480483397 0.023053796495669975 1.1514240706971974
Ni 2.728713284893699 0.9285821669758783 2.930386992309464 -0.556567472654506 0.301587572605358 -0.7584762039102872
Ni 3.526058922646964 1.236968583276161 0.8527811836478557 0.7776622899204348 0.5725057411513172 0.7129568793222495
Ni 3.400761618841023 2.0517803543420086 4.826631799548124 -0.15617960464978262 1.16906775192089 0.8979135561047246
Ni 4.798052283847615 0.07578988197210343 9.766931307464027 -2.0521696969340786 0.09363212093486455 0.4196433738002257
Ni 1.816255837390189 0.022249892600684277 10.4268689872167 1.7299451648046593 0.695562337994886 0.9218091317753996
Ni 6.522953213154249 8.603957886953062 8.634895515673369 2.3548862409375575 1.7903768877281552 -0.5082078504041957
Ni 8.13035554118805 2.457488657532316 10.649709279918051 -2.1469099633314572 1.1489691813988019 -1.343921278831092
Ni 7.143824296314917 4.288962603661487 2.5610439557708675 -0.763582157678285 0.31915232096199875 -0.41535528794783305
Ni 0.27308873004278394 3.121201723410447 8.51985956518857 -1.0045330904381926 1.9113526907832954 0.31643337936893895
Ni 4.127382368260235 2.9014688852534256 12.79544133451567 0.18331091364893592 1.0913692714971461 0.4093625606995078
P 5.287150272249584 0.666401444236519 5.584612029212565 1.2209839811742067 0.9988638079675571 0.8001789829657122
Ni 2.631567169472392 6.219904698825026 7.258463373325611 -0.1371081898406284 -1.5936849247866232 0.2837456593279306
P 5.27207093045959 5.5580141055436 6.825766748783186 -0.23230816948324506 0.7301979257908844 1.4427675969770444
Ni 2.713680198753367 8.153908917996224 14.287234142008858 0.13283784460004863 0.057088774593192 -0.23089252008264108
P 7.421413701069868 6.070646968493879 1.0461779051130027 0.44662195927159853 0.10336426062096392 0.9191498397756815
P 3.7481970545864387 4.027312895780254 10.622345362690675 -0.2992735797602007 -1.1966600597168615 -0.5433507168539159
P 3.211835043359266 4.380271256095379 4.296568882691998 0.4594941872485764 -1.157413198401097 -0.0509194125576865
Ni 8.145268362639259 7.094071719537869 9.284258228800187 -0.7600409772942459 -0.9170811301721109 -0.30483410456711374
