# total energy = -340895.6320255754 ev
CRYSTAL
PRIMVEC
9.03698731763278 0.00000000000000 0.00000000000000
0.00000000000000 9.03698731763278 0.00000000000000
0.00000000000000 0.00000000000000 13.22654441203880
PRIMCOORD
 96 1
Ni 6.381098038887344 1.7571246923451456 11.251384413953067 -0.10628349115028793 0.4251162239893388 1.2157546144544675
Ni 4.500401582715727 0.12717752174418057 5.852534594593789 -0.5231179347468088 -0.1535020578176195 0.28668674423412566
Ni 2.6665619054998113 1.577324793771834 4.764611460813769 0.1464595491485413 0.22259068508516508 -0.22326097167931228
Ni 3.218911603966809 4.343130893387654 4.734427923357252 0.5869869654866278 -0.9742244121523222 0.013576453132854037
Ni 5.208666422421434 4.496822935759805 2.6334973765040317 0.36209668573400866 0.23387268575688755 -0.434738063349819
Ni 7.392861058814507 6.193002186007121 2.5616641721524265 -0.45579436979948595 -0.12144168694796506 0.017264957728034783
Ni 5.267912910913926 4.476318011661351 11.834291781149247 -0.9596786531276633 -0.11555848869431067 -0.8216479514727657
Ni 5.928091941396242 7.761091178796751 12.431020316664586 -1.760735924933271 1.0203800847727782 -1.047770303860273
Ni 1.8320684277124795 6.605323766842763 0.305890270749822 0.5529977530253767 -0.45536602401281584 0.36203215104466036
Ni 2.860992686450998 1.7560673648354412 0.3699200366003188 -0.15057614242007616 -1.0225608944741809 0.22508722625477365
Ni 0.6906463293388725 9.140912615948173 4.673626169356895 -0.8525472121547832 -0.6022726880011047 0.6848742621534205
Ni 8.708637367237085 2.382140805389345 1.406286254349448 -0.34698502690355076 -0.07823866919792978 -0.015825397068030808
Ni 6.7636698576550645 0.9308910209156751 5.025213773596648 -0.09069412135246316 -0.9342242176103007 -1.2949949854440341
Ni 0.7675483798459749 7.636977195734535 2.4672131960804107 0.7072600860477883 -0.968231684903997 0.25487988413617396
Ni 7.637736302664579 3.9494435802871437 4.023699600923806 -0.2476982787860702 -0.25306288553209316 -1.3865725378427152
Ni 7.5094562684743815 3.5341036457058506 12.546871782272762 0.81673045956649 1.3742374133161301 0.054527698734235124
Ni 7.915235070532023 8.752746902065008 6.946422139967012 0.20959787236992286 0.3545317289025572 -0.167963227548272
Ni 6.764058448107349 0.7687963877869166 0.47689085482570537 0.7197024255761993 0.3989416224765 -0.32900813071015594
Ni 1.8626767035703307 6.239831854001035 9.388320023629177 0.07527135903948971 0.649484569800217 -1.559663830646172
Ni 9.06310415561865 4.903722324237988 1.2251669556358218 0.2985778392447567 -0.16686562360871907 0.41888798369143987
Ni 6.191086344707486 2.0641834455479997 7.020716115950178 0.20414867632989356 0.1431022026405342 -0.3460810270320427
Ni 3.272808195999943 4.197725768335152 0.46750503985494535 0.7154253954674001 1.3949692465468426 -0.1698804991756429
Ni 6.068490575505358 5.6748122993921095 4.684590746002401 0.05496607182323437 0.4623242004982037 1.0502786721044235
Ni 5.184628036303369 2.7577179960159452 9.307069374851393 -0.0072322560823810935 -0.11339079161903054 -0.4351784933213473
P 0.13944523195292957 5.554358296171177 12.369014835960874 0.5503168637591038 -0.811491065544422 -0.39561127255168643
P 4.027387595425604 6.14915472380981 12.562267193773039 0.033330495831329694 0.0987244478561074 0.6318262332885054
P 2.5496052163494394 8.52462623259948 1.3488824075597652 -0.4377735077420331 0.05939171169475579 1.4728636450314765
P 6.2550049556146545 7.816171616161264 5.816690288316085 0.7537284048126568 -0.7631478983543438 -0.9186106794427599
P 4.809710545746926 1.0701419576424624 12.705550434216322 -0.01804348776527215 -0.0607471972813857 -1.0972064470042135
P 3.913629999766133 5.998652737941296 8.285491283058505 -0.37613208078115223 1.2323477429264582 0.4283529857590816
P 4.6253921535424 1.173543165899189 3.92516209921172 1.2135725192014841 -1.254760820514336 -0.4533435942661483
P 0.24870060055825852 5.67247171969114 3.449760539886863 0.80807226967086 0.10956910388009516 0.3437487793544402
Ni 1.4400619942427813 1.0879357855621874 2.6480731332596052 0.6296405384910964 0.4408688588379053 -1.0336942853831812
Ni 2.014181795024973 6.394382410163116 4.864603917475106 -0.7810607740790226 0.8302549764154862 -0.27335763122538725
Ni 5.781403564152474 5.593126971527003 9.294305534041937 0.4924307900755971 0.11451744902430601 0.10370158935572463
Ni 8.483779050173295 2.3210055865590045 10.152536466271494 0.6343693114253334 -0.8017848940002513 0.24801169626143094
Ni 2.440854111633354 4.985958908326103 6.972914971825554 -1.356219893692787 0.3239332872904099 0.3350191127909263
Ni 0.7156345028182183 0.09482872213958532 9.00059712212187 0.13423678183010432 -0.37503370551065085 0.680600574478731
Ni 1.4825448713634657 1.0189835727498449 11.605763543558185 -0.7714530757859295 1.4024043626686493 -1.0204135091138749
Ni 4.320701091002302 6.78139138967669 1.532427233654628 -0.4166554948164953 0.4994676423177205 -0.1732391312352307
Ni 5.64428535641962 7.864076685639406 7.949550318564924 -1.0088350602476561 -0.2897373581349913 0.6883830466376273
Ni 5.177290002646275 3.0591828541033546 4.871812722214347 0.8121626376901497 0.17688212730445668 0.36145031039926134
Ni 0.7691479265914251 7.293960270214471 7.226031948058961 0.7781122329736598 0.29827907705741535 -0.9822148865569664
Ni 4.873195381265499 4.346628207458215 7.2216535277303135 1.3798257060371848 0.04629476930148156 -0.5841399829561359
Ni 8.295384976713413 7.257062251221968 9.140573728925832 -0.1590911218696228 -0.7472718505540356 0.5229814091689445
Ni 4.720660073262939 0.19691143395472338 10.49931006739655 -0.5015404656863491 1.3342827273000633 -0.18516930701391338
Ni 8.189137117469022 7.2519473164314325 4.680530427625391 -0.5096111585096256 0.5478509187171144 0.3873220359597007
Ni 7.220344971974714 6.222336246660969 7.169488422456661 -0.013978316556963024 -1.333991678422206 -0.8946086601012077
Ni 2.345640413836389 5.353258218620318 2.57634566165897 -0.4654393490884178 -0.28280849222564197 -0.502809819317076
Ni 2.4364169508875007 5.103548186584845 11.386348203922555 -0.3228390257849666 -0.048759943012522476 0.7690226119675659
Ni 0.9826096990185632 3.425470021824177 3.7466436454322207 -0.13726811245726037 0.22933134624310827 -0.9595308146958895
Ni 3.7411952458117015 2.65860031972161 2.7242187879328426 -1.0264406891445612 0.840757418608707 -0.7567772189413097
Ni 0.8828413596413336 3.2523213458760134 8.048576721287908 0.8430400439952965 0.17116296543249232 0.00022934240198670177
Ni 3.431036805977834 2.5276995592253084 6.879707485200847 0.9009410300771387 0.1759606439314518 0.4202627525517795
Ni 4.128484371930411 6.607329978015022 6.131310288761415 0.4285579026810361 0.7681186120960577 -0.11890632212062101
Ni 0.9280895548643217 7.330912511130548 11.366574372093632 0.16427523717372353 0.5267845849651186 -0.7124907383191085
P 0.12753357904232032 5.391692525447433 7.929736723992045 0.5324050164756896 0.20204319995111655 1.1399808618572624
P 8.43184348437611 1.534118957670155 8.015709198614449 0.30216118572064093 0.5551009154113086 -0.7277024130625404
P 1.6541030375534411 3.1416272888985057 10.369677196213166 0.8869179763251692 -0.7829567055501548 0.3735015851368406
P 4.11185631536754 6.01889558940914 3.7684941769340505 -0.20304875839749545 1.7182667000254668 -0.4137686601870035
P 6.77945747440253 3.8731533338177075 10.378009298469129 0.3923364584551566 0.12491036222285583 -0.46660945813711896
P 6.446995750004985 7.848560178509813 10.168897931710124 -0.5456330851301893 -1.007347419958536 -0.010191338710705029
P 2.3667508160814266 8.309672453575315 5.936840648765 -0.2804029681079429 0.14244888532725145 -0.2900821430689198
P 7.025399082749569 3.904032719293432 1.5117677770739864 -0.18281700473165288 0.811823509183176 0.5282974220652192
Ni 5.312447184143183 2.9641860440006886 0.5129647005798744 -0.16200443886167584 -0.4198390347507995 0.20468166601522814
Ni 1.5150509145464273 1.1550986748965688 6.866851467121314 -1.1779164605607713 -0.8102988450085334 0.2239130034410144
Ni 6.673787982342933 0.7817825384830288 9.047101458574337 0.4595821189766924 -0.6515054568849876 0.3709245684382838
Ni 2.754112238098235 1.5937269256531448 9.105404485596633 0.2084125938125701 -0.03170581574371314 0.6821298666390639
Ni 6.394011893685357 2.124532446486509 2.792863743178262 0.3780210702737489 -0.29595248580676775 -0.5666621378863467
Ni 4.039461010408211 7.045506379408477 10.50161178805229 -0.010900191852271549 -1.4553032675502098 -0.2889567712152249
Ni 8.190827034087096 7.373305018378608 -0.1628094588212167 0.20034164387897754 -0.1938390668737694 1.3655026045462935
Ni 7.556204603582934 3.6745022798149662 8.168515616234883 -0.4797351968857996 0.6947488409546551 0.5259770014621588
Ni 3.1222790991696425 8.487303475205644 12.514268139627367 1.3092113861537322 -0.5885525102015348 -0.3780814911980392
Ni 0.08102020560259195 4.607110328310503 10.11556886247707 -0.3225667459601864 1.3126222116074941 0.4411599077157628
Ni 8.507835510265886 2.459994450655181 5.827297903964726 0.7822725349989367 -0.28158336156928926 0.4100014798350874
Ni 3.7358363123650804 2.562157591656955 11.372487272859443 -0.36700517877921957 0.20118856526030515 -0.06996254523206662
Ni 1.2310455158500326 3.3602862327002674 12.702363088808864 -1.3540776505388035 0.2402701046427991 -0.669129597724654
Ni 3.0633669792058598 8.358707146461262 8.129390883580916 0.2049590880463309 -0.8411379418765771 -0.14899131443145955
Ni 5.575043960014879 7.904128613186497 3.5276783477622624 -0.24694057468443922 0.3187154905348963 0.4813243957497904
Ni 2.9963306076931526 8.368467092704686 3.6860126904911237 0.8212741130731147 -0.17631031396138666 -0.54713795181049
Ni 3.294316225684527 4.140765637620054 9.271013603071749 -0.05427701617600974 -0.28180961864748244 -0.2716841001777063
Ni 7.297412399348719 5.971975551542602 11.256185765285595 0.021277935542169807 -0.2351551520137369 -0.35590572643194834
Ni 0.5975364421766014 0.0766860665115304 0.4169241184483971 -0.10277984887240364 0.36605001395480186 0.26690930449688227
Ni 4.59333795972256 0.5961971606643093 1.648278699262805 -0.19087998424544544 -1.4977526949636724 0.7763625972724049
Ni 6.351890496055169 5.755404151798462 0.3421014787103799 -0.2878565961725107 -0.9698550794400329 0.9178082381461227
Ni 8.098839540742818 8.883448848841535 11.153878936186349 0.2731948803952779 0.4967926665887187 -0.06384923324547713
Ni 0.02026905873090475 5.191405776750192 5.631532359994878 0.009637523089764047 -0.9519614869890638 0.834251499169389
Ni 7.82482001297141 8.86423621392161 2.606264415388698 0.3660065623113761 0.751407469988964 0.696198428916988
P 8.53380781165811 1.691579423730739 3.557781456032144 -1.0516565262885564 0.04249442171878488 1.2479882776771927
P 1.7989026844593605 3.1419706944144785 1.6846119065514056 0.001925242047170878 0.709374818397946 -0.1213460419103652
P 4.667956363548446 0.8704010429758721 7.972524147583473 -0.42025323947008264 1.084076851600791 0.9365870614155224
P 8.431012081547966 1.6343933683340808 12.445001439658292 0.8813104003304048 -1.1833358318041298 -0.19998811719430074
P 6.445585979992046 7.839794300865257 1.3934690953151434 -0.7261648933720913 -0.8286413520714632 -0.25972487093330104
P 1.6378364604810667 3.2821343668547707 5.768466213187579 -0.3062266140392662 -0.6588331008946524 1.8567707417723573
P 6.938418080348678 4.039280270662962 6.088482198727306 -1.372357679794914 0.7406337764122276 -0.3437564926639241
P 2.494750703666488 8.6516501255602 10.332748451463974 -0.38885569899540773 -0.5475526707504054 -0.7696571602277713
