# total energy = -340865.05352398223 ev
CRYSTAL
PRIMVEC
9.33111001414549 0.00000000000000 0.00000000000000
0.00000000000000 9.33111001414549 0.00000000000000
0.00000000000000 0.00000000000000 13.65702270875593
PRIMCOORD
 96 1
Ni 6.751113909437232 7.449734098350062 12.488486721723687 2.7740277354006997 3.898969186426337 1.2996278562303554
Ni 7.887353815724482 1.5255804616817703 10.676677267002724 -0.712793871381824 0.6488875596461664 -0.5593044119696948
Ni 5.6012505828773405 5.276033413861997 6.67339509611474 0.9378291613527397 0.17056801216097076 0.5791710689866348
Ni 7.836965822935257 8.700009497207148 7.070636302156418 -0.5394251565472645 -0.4500001317152121 -0.6762641518869064
Ni 8.648660400111018 0.3530863945826738 12.65119608221694 -1.3220830999100777 -0.4531299355934454 0.9627914877250321
Ni 3.5802721720895065 2.3871684828286392 12.324055771476806 0.11485503486938282 -0.07290851523426799 -0.1522998099794022
Ni 9.226461379647017 8.415737237887937 3.9272000342201645 -0.8500002773632136 2.5942328053248227 -0.5469602885820452
Ni 4.4056741495258915 0.2094712840236067 0.1318840393489535 0.27913695691132573 0.3112747179861349 -0.6402260273164264
Ni 4.2713248309741765 8.04494692872767 7.850875708278015 1.32679027557776 0.5775787847988504 -0.4509792077990298
Ni 0.06965113581035026 4.037701835517912 10.215234293259755 -1.5732017172316066 -0.2156875302074285 1.575451689608048
Ni 3.548173154460815 5.64572265206872 9.257617022077376 0.46854601303819954 1.9308516800481714 -0.8305185144895181
Ni 1.1677417328902904 6.300029400656359 9.430965713936974 -0.9683468703256225 -0.23215724572767757 0.7314289699845081
Ni 2.1145041240705016 4.5836650684989415 10.726157342810765 -0.7094722632077588 -0.9503260082681697 1.392006821484409
Ni 3.166885346802794 1.0117162463294327 9.963672239259548 -0.4119416342805938 -0.543453046759735 0.6557686030367158
Ni 8.00702529859889 3.3788228431401404 7.3368388673948255 -0.00772487944808347 0.5225834023995775 -0.2611636602623567
Ni 5.303560187700556 2.0807068444626178 1.5113813119359623 -2.119459323319673 -0.7296806198348336 0.8665083023205656
Ni 4.27536520150709 8.175787750003693 10.396244759356247 -0.5213397598004634 0.4733071818722687 -1.475040855188453
Ni 0.7741788503222276 3.1285624789536555 8.424389042872042 0.5273330012694207 -1.7356041628626495 -1.4785493825623441
Ni 7.91793186245972 5.498580382014407 9.017977327037686 -0.18409895676787003 0.4227181560708075 0.3126500010671067
Ni 6.927173288686695 1.2562473091135866 8.364216448371932 -1.4651559919745734 0.5348460218170143 0.4355533601622628
Ni 0.6435853034552649 0.4825676731643634 1.8352715971411904 -0.22518209996142513 -1.2321417975632394 1.3176338058894728
Ni 8.44535418031627 6.267622456405067 3.7521988028192754 -0.370787014419155 -1.3251308855974662 1.0215206261351246
Ni 8.78279510313789 3.8164425605145595 12.99626798661319 -2.015737936469606 -2.1595433358247513 -0.07378140475752455
Ni 6.781076102927269 7.974189123297913 4.605762069558971 1.1411635693114541 1.0863625623111741 -0.39220070420824066
P 8.860971140839395 7.713580558370086 11.101725180176231 -1.4705038865500482 0.4419950020225485 -1.7010251393361997
P 2.7364785772850544 5.779157521862408 12.40636642391996 -0.4423593273405027 -0.9635954716835662 -0.2281897764394973
P 2.3779586774799424 2.830498839385838 1.2629358486008673 0.9780180748667994 0.173781634002262 0.19485696661532245
P 2.343657517944166 9.00802009979595 0.2246455347409841 -0.9551044034934195 0.528614953305638 0.5836658715331948
P 2.514052913559729 8.196493482596154 9.157934642564648 -1.2508730554241554 1.0178575754612407 1.2080551889276807
P 6.04977836757965 5.575272773261563 12.866867888686551 0.16923798049563757 -2.9542576961314673 -0.10130866364351584
P 0.3326615283944638 1.207426942766693 4.552390920974429 -0.18331605585525848 -0.9906666168687454 -0.37444929376209063
P 1.1363425484947827 5.340212786899828 4.080704254919605 0.1565626990208142 0.5719925489603246 -0.033600204552948584
Ni 3.5433489707067354 3.4996980391756254 6.70999544109927 0.8439553567207143 -1.183254070723601 0.37087777436074837
Ni 2.218014124813256 6.982226836363811 7.445576155833973 -0.9600753743454498 0.7480326399794601 0.2421606367972926
Ni 5.705469747963056 4.569509774969079 9.20315320053809 0.32545409481031046 -2.7951760873435405 0.42968610274820834
Ni 2.6440072794070506 5.458755205491368 5.913108402026698 -1.115560266921053 -0.9549663352536586 -0.766087954819274
Ni 2.6199703406246355 4.497221667536093 2.7654516731388585 0.8161627599884783 -0.18230021299623442 -0.24180351056819002
Ni 3.0481469749059626 0.8192546423160998 2.112591246566466 0.4714948112538783 0.06520626149400384 -0.47825501279584726
Ni 1.674999522521374 3.882208222214274 13.166557940688289 2.1352854917186512 1.3799264932811073 -0.7710229302270463
Ni 5.6908385678346285 6.593707418629559 10.932856354119988 -0.5675699944125968 -2.3059375789529963 -2.5592915133629472
Ni 3.69462492239172 7.6028482786608755 12.539441112876302 0.23903417535316898 0.3235885023564814 0.8200916627292392
Ni 4.322599279192101 4.564545624568363 4.761629860364619 1.8445196923191458 -0.27430559696095336 -1.5304062193326353
Ni 5.354955940345564 9.308341867929506 2.482040675251952 -0.400151326513885 -2.177435128503508 0.28508391852338
Ni 1.0352119807448528 9.293272125641618 6.604536171524354 -0.24309189036231035 0.6439628686510394 -0.6935918445320765
Ni 4.920396826977601 7.141695502431933 5.382669336379639 -1.3963491576135048 0.01471185228887789 1.328361219609306
Ni 7.604191958468588 0.7501185837653727 3.0141733373233164 0.7142943671867504 0.774703207292111 -0.3764794368182419
Ni 3.2556055385509333 3.2443242268320125 9.165254898183749 1.0561438726359489 -0.6592804728447162 0.2549135655875868
Ni 0.5816556609843745 0.36662303553440145 10.756284696943835 1.364335580821386 -0.13352252937189907 -0.9458062660209453
Ni 5.4897438210567415 6.81399625821623 0.7903002086818468 -1.1926349977178687 1.6810332695953047 1.1667545304066809
Ni 0.9619721001147367 7.197486207781336 5.41730361653441 0.21474419245755275 -1.0092253537075393 -0.10472823084802609
Ni 5.447473893772447 2.0630057292179584 10.368233700920326 -0.006977459759097661 0.17809568799658362 -0.08805925483277736
Ni 7.892952481589951 1.366354404467819 5.778532337507432 0.13994154552436544 0.6228903642514564 -0.33983556034296314
Ni 0.20527881640134765 4.115056735559149 1.562800392355411 1.0485226086452653 0.46188377052667545 -0.11916086133358832
Ni 3.3252809352467003 2.4393200553654872 4.486236151997065 0.13052230909299456 -0.38224179322331586 -0.579695316921221
Ni 1.409286840546194 2.5084729099138108 5.9623010796536455 0.15516453312170694 -0.7183849923163563 0.531024334078079
Ni 5.683961539929877 0.2367442516762636 6.332337435144027 -0.866029048691302 0.31804726082327806 -0.4371104202367376
P 7.008129997101383 4.381030688608051 5.080385235860234 -0.6594023431345611 -0.7306409268655739 0.6242903299227763
P 5.10243744759334 4.272332590829961 2.3326197481903934 -1.2570599009611578 -2.998058752476817 -0.740484395318557
P 0.09147006979906228 5.927708789492865 0.39712456716947897 0.7658123325603843 -0.4142407147274157 -0.20353135446086884
P 4.759929732163471 1.708712822141276 8.023923938402833 1.1306595844563365 0.7191434677489357 0.8045948526452207
P 5.642690041391591 6.543179459193698 8.746162099269146 0.9876620257144667 1.7233076048834837 -0.8106343739710813
P 5.3869803090960495 0.10179214343303279 11.710418664846912 0.3653887262217191 0.6544023188168085 0.7950851133825726
P 7.3657167859289165 3.6756921006566574 10.710860854555326 -0.7922772116201323 -0.034527087242592146 -0.004436952725431069
P 7.980347655749929 1.8287295560773893 0.932519385218457 0.25745124440777595 -0.9487301245359595 -0.4320461183399527
Ni 2.8245175980195616 1.308856106029448 7.551664342207776 -0.9973118900994049 -0.8947708967106848 -0.41679870526257895
Ni 5.85765081729629 2.8453539661488834 6.418472909484275 -0.0823470349393485 -0.3636177503642254 -0.21231141464634404
Ni 9.016595389679894 7.977884242769123 0.8209799645136419 -1.9642050586976365 -0.1883405056530434 0.023656977297307646
Ni 1.2009418214725243 2.446421029904858 3.0352047256469525 -0.08699533234463727 0.4659085754153524 1.307039061092762
Ni 6.726657070714907 9.146783033271609 0.5913030953815559 1.3155879791040375 0.6156812480975267 -0.05681906587157311
Ni 8.028104275582383 3.749827767825249 3.1687301072054663 -1.6776188445971174 -0.47425977559352517 -0.43000800486400137
Ni 1.0603686527003622 7.879888927903855 12.53628626466111 1.2395167498710717 -0.8294898161146876 0.569895814332296
Ni 8.503934887488631 5.7095101184959685 12.011241513575431 -0.6465763950144865 1.9388107869942481 -1.2299123940120882
Ni 7.332675326212871 8.366842222662838 9.450154208079892 -1.0863674474071807 -0.8739922694024367 1.2281391041617495
Ni 6.6962189906263045 3.5759611993730953 0.9619366418975887 1.9125626519309966 2.22647403620903 -1.158143134588586
Ni 4.292525112384754 4.613086057621984 0.0931888602197614 0.16566286154986953 -1.198146414454401 0.7927940033555508
Ni 4.252205387043598 4.628538375410679 11.30409455654949 2.1496438173228527 -0.37276470697081615 0.8129159709164063
Ni 1.1445912495365742 7.123042613990143 2.400003424325228 0.6117225205600948 -0.5696405037883803 0.990907529234958
Ni 2.358120738096629 9.289511688401978 4.186286695143561 -0.7847335949449195 0.39826439390381735 0.09049794618125705
Ni 0.7830266086116244 1.835214677371558 13.748250926111767 0.08398842719751341 -0.0550300922919504 -1.389282994795343
Ni 5.950831279517254 2.534674666164208 3.9037229620242955 0.20119782123168575 1.3546240099605769 0.030605383590682773
Ni 3.1086685529116873 6.716056930009618 4.0388728897947725 -0.5526678804897837 0.6198400074609067 -1.0650005516956305
Ni 5.960852891416444 1.9274713597247188 12.94319729976343 0.8485931126030418 -0.3365463480687301 -1.1760009887056135
Ni 9.191777644610433 3.873595607891227 5.063464201392831 -0.08164975176200777 0.639989228715272 0.7001568993441037
Ni 9.347999084476582 5.711311022682694 7.109668334348515 1.0999896661763056 -1.356336621776309 0.8494806574143176
Ni 2.660728628125253 6.181085744344461 0.9376328333755857 -0.03821019252113419 0.23931108316363947 -1.1871644615216006
Ni 0.17540806778711301 8.377050456757543 8.712251913232974 1.2598369494856625 -0.3021406168953506 0.2510695092511483
Ni 5.458381961100336 6.020982562811586 3.108953151759849 0.8285256524292054 3.105890819061148 1.5681425575411445
Ni 7.5563140342090485 5.7666351725433085 1.595413554132748 0.3546757106795892 0.11418526249586787 -0.6191620075572756
P 3.0691513030112487 8.432561228813672 5.9543938972296475 0.43403949462089764 -1.0257467484013303 0.7202477565567079
P 4.791692829840235 0.835501970657692 4.266262703920815 -0.6999488970983558 -0.3317337571714351 1.4990032795413215
P 3.7309416016390653 7.660663834831623 2.1788962464112207 0.035436743541055096 0.19069460770751676 0.062207840987312225
P 1.6197126970998632 2.1647708124326415 11.343235762725964 0.03816648376739234 1.0368009493329629 0.07581283336525653
P 2.1692777384543445 4.620224356600457 7.87331422795584 -0.9499583405161058 1.3147544274591485 0.2727757905799883
P 7.974655678786702 6.842614771898554 6.087809171692807 -0.4208039697672301 0.3315234409328419 -1.1294473093157902
P 7.317596252815207 7.819964540923781 2.4354159190353 -0.1357701877554952 0.4666040588204803 -0.2805160966470394
P 8.94439126223489 1.1363892040436616 7.940534609669598 1.5020549218834518 0.8083540625773368 -0.08606819254467758
