# total energy = -340876.4422417492 ev
CRYSTAL
PRIMVEC
9.21080191245756 0.00000000000000 0.00000000000000

0.00000000000000 9.21080191245756 0.00000000000000

0.00000000000000 0.00000000000000 13.48093964100529

PRIMCOORD
 96 1
Ni 4.328072899917546 6.343875310035541 12.05597711463728 -0.6862999388563534 0.9797383999920158 -0.40606743488800384
Ni 0.34957019460311156 2.575865217619067 2.4460629133936234 -0.45838758444795896 -0.22306325384620937 -0.16119685535871595
Ni 1.4069131419218617 0.4626751572047096 3.364236170988556 0.04736666220942165 -0.5052757643590653 -0.6187251771301732
Ni 8.323479268817639 1.064271312482837 9.128025311345136 0.3567485340482178 -0.1715846263509432 1.2299131653430366
Ni 5.024234515800098 3.2768348720760057 1.419057584183027 0.23462319076966692 -2.9007604955442754 -0.6927726910648907
Ni 7.8365133849302255 3.870600003607115 8.920566736582046 -0.7170081665734878 -1.593648415121733 0.538516528690066
Ni 1.431598090924458 1.2848792279907424 0.3941071848688781 0.41616724232616714 -0.5987451344638204 0.9818500470183801
Ni 0.6224678323079348 7.3237388342124845 1.5379460092766888 0.4737923490388034 -0.6653593320489445 -0.42048386742365
Ni 2.9185991550767585 7.80667038688231 5.0191022570000055 -1.7295656699780535 -1.0550848352438151 0.6515319392475489
Ni 8.492681699107825 4.0649202905876285 11.529331096308379 -1.221798506655702 1.5429778853500589 -0.8638238135098671
Ni 0.9336252988064089 7.442788448338813 6.773687247260264 -0.9677462606271463 -0.33995845907407257 -2.0992406822799525
Ni 0.3808915263506224 3.3650559323546876 13.361687492129617 0.3367623207342781 -0.19053622775278153 1.4221702324416667
Ni 3.09951772534131 1.9347289320878256 2.4804385470401122 -0.18412235380663775 -1.1583465088486438 -0.2736921317466706
Ni 4.10319117234352 3.635217961905118 5.463730690107406 0.7742902881244085 -1.0136067706046867 0.8768770471493994
Ni 5.220691708813672 3.8353410540616153 8.082281526817045 -0.25046067202255573 -0.44244983017177997 -0.05607138907227117
Ni 8.502785948755529 5.520604628393351 7.470732179041827 0.46614743089903593 1.675131045178257 0.4612227399039089
Ni 6.412164195074814 0.35878283863012533 11.564906897438092 0.1681740580074975 1.667658648060612 -0.7010444441553797
Ni 3.147128360189974 3.9607921754852584 9.4353501631869 0.28188340930821126 0.115645134870846 -0.13711873136358965
Ni 8.388590427212922 1.356364261277739 4.7750031124114205 0.037604440616335236 -1.7157333920806517 0.8954866918307868
Ni 6.538370602251521 7.618171326681514 12.915171765719743 1.1714197970928342 0.9046758145292226 -2.209298809981324
Ni 7.377235171453933 3.8790647305225576 1.3608333423434327 0.7297099304108723 0.37447063391832924 0.03674517793983349
Ni 8.394752453661702 8.399053898133424 10.927770863157532 0.3117205472743019 -0.5352345155046846 0.39903598196251927
Ni 3.0236299287620594 1.209341441882424 5.4511395239557086 0.02896219156030496 -0.04320764573572559 -1.422516302927176
Ni 5.553431926246057 4.531917156028166 11.073607331272424 1.523345455831112 -0.06946297988782875 -0.8584867175676698
P 8.675737175405436 3.320466440518281 4.32531887015942 -0.0342064706783798 2.104222708875576 -0.5239401735377879
P 5.359286644501011 5.223851013853929 2.11119592181023 0.8063030935855791 2.1601532014946088 0.16603155774319792
P 7.078307807673984 8.004859210646813 9.190280200081572 0.9281181047125628 0.8156732219465694 -0.8413911955379638
P 0.9542298625820836 -0.00018697927789280104 5.369256416441462 0.47693732242568826 0.180719755882992 0.9078935501355718
P 4.197030821760853 5.885628706368312 9.801694149069352 0.41325983887138507 -0.2837176343034727 1.2706101288417664
P 6.885488881397733 2.7035637746981704 10.837246181332004 -0.38458715352704087 -1.269085464667124 -1.3092499527011514
P 6.269875727838952 8.506028151012586 2.7184714575193283 0.7965437002059701 0.6166132729934929 0.40694443817631853
P 4.014859582442438 1.8303613361369229 8.540565894771929 0.2973555368018814 -0.689257993043413 1.056179868080207
Ni 4.3347691528745935 8.899596503972266 3.617582960651249 1.4218596431797834 1.1848586962065595 -0.5831202834423699
Ni 6.330915711809178 3.9608934943057914 3.578798116151199 0.07212072922565 0.1334237990105057 0.5656637785288194
Ni 0.07781193308919182 5.301332279156108 5.09956966426735 1.5544648029437358 -1.2572195664674737 1.476400197429825
Ni 6.545168174029102 2.677699843056644 13.062180768912258 -0.5549407356843604 0.6278461655948349 -2.235254096394505
Ni 7.013445340929102 6.659354484769843 4.022105720270924 -0.7127704743430564 -1.0947032209663856 -0.8884542104640377
Ni 7.074144525230262 1.8655926532768226 2.740270662297106 -1.0510322624409965 -0.8562603993403125 0.6804182832645959
Ni 5.759302558767338 1.5005133104906618 6.197174868705559 -0.17041888817761616 1.121196382160908 -0.9064658165501098
Ni 2.226223178761396 8.909719175223703 12.068676047170818 0.7916586041995269 1.3754448033606699 0.04998713055140423
Ni 7.01281900640217 4.417629526466891 5.853289581014537 -0.40489938272183174 -0.23304684742148252 0.42775289028123753
Ni 2.309046709146227 7.052793886503389 10.73646250838741 -0.4067899148763252 -1.7258167444585824 -1.2736908246496195
Ni 2.4150998818387253 5.5448935129156816 6.484142927341862 0.15269061765991768 -1.006107376903848 -0.41208793005047095
Ni 5.175466671648468 7.937675621831537 10.248762523591227 -0.4555421445793639 -0.6653688451306412 0.18206007196097035
Ni 3.7873067223270858 5.05967768138293 0.551400048345497 -1.6057107456029056 0.5160728549745692 0.1376378370918533
Ni 5.289717458002276 8.853947769921197 7.912300783769129 -0.016249629089642982 0.7395955649557004 0.6534232427329908
Ni 2.671537816607862 2.6989952169723166 7.170686623915267 -0.05187432027178808 0.6729014060622605 0.4099094343419134
Ni 8.905638789996782 1.757245990919531 11.626771248175382 -1.3801560927934104 -0.8408237530702679 0.057481382045920355
Ni 6.622244164049149 8.656458967098558 4.997424634806867 -0.6269899882421266 1.5959852907850256 -1.2852484475802317
Ni 5.057605250962936 7.552829898239566 1.1365466325699913 -1.6593982078240326 0.16937759139729539 0.48451256366978496
Ni 3.8137417236843434 4.157525692554832 3.2190730124901163 -1.6239933459621771 0.08105762670396363 -0.5145160520104107
Ni 1.483933867130709 4.677189923068819 1.805151371427928 1.5751508705381774 0.2193603510733254 0.6567019134842625
Ni 3.1601984880387373 9.110404126294066 9.633317927706605 -0.4611396932717994 0.8544086908435542 0.23071228575103492
Ni 2.7024124244648404 8.915089072711954 7.3469500549164195 0.15866688984801064 1.286904752236732 -0.6635603311669926
Ni 3.7798459728151066 6.973129661158816 7.972816673113144 -0.1386732203349031 -0.9598082367269922 0.43703123025936985
Ni 0.4326387323175951 7.303281643266677 3.9997943949093604 0.4604766057665037 1.1623610293246758 0.15921530615231289
P 3.120020970296452 8.81346629571731 1.8685926114447873 -1.8228470924417188 1.1412700129823312 -1.3985191686816303
P 2.787041272015533 3.1131312905002044 0.6873109563688967 -0.43807226992937454 0.1340210662748724 -0.9393767083455177
P 1.11004899776004 0.6795029596265457 10.340905543304721 -0.4611193815568252 -0.8265263626109896 -1.595846451214316
P 4.614390675942064 8.917041762707683 5.813533917997744 -0.2862640548744102 -1.2006095312829128 1.2036218357466755
P 1.3522009788340172 4.208286421641887 10.849176932989863 0.40457799482667095 -0.24480244529551387 0.0648758747377786
P 4.742687935142499 2.0670973657133156 3.911670048050278 0.7928109726364152 0.8658344161819927 0.05917136815383357
P 4.578054062578167 8.549899200303395 12.389145634356465 -0.5014317080226267 0.5751994859333965 0.2062981185727286
P 4.759405540530451 5.293678102804931 6.657036125940009 -0.3966785374739362 0.6718292560440042 -0.04369332712289249
Ni 6.249464590902477 1.746432509528095 8.58315203720234 -0.5992693823984067 0.7767968565963461 1.1508692266349922
Ni 3.455856017156029 3.874109319118305 11.800891325582167 -0.5360459556623864 1.063834042191355 1.6858294054323675
Ni 8.515413958114692 5.288483210552146 2.9767939223503794 0.338763667435023 -1.0977425220133419 -0.9480989187098641
Ni 6.1472431117865005 6.063737982063539 8.5735267492517 0.25664186113260323 -1.1719605000876527 2.465270127409464
Ni 6.149527390649427 0.59600151422433 0.47029064818804794 -0.46003180491960133 -1.1595091616981772 1.5697381841630385
Ni 2.0767318644658217 2.0632288289293266 11.580140642645329 0.3306567220571725 0.7494068946191674 0.07169701142467007
Ni 4.5791409371984315 1.8727402355253355 10.821339126508315 0.3360256996785697 0.34943348844404337 -0.6068163415077292
Ni 1.1517094546028548 2.7207419201794547 9.076163891435016 -0.6036466855304958 0.042043450224295335 1.489366527782506
Ni 2.6142466289973583 7.239404732321526 0.23217668265240574 1.1577160743534964 1.213972068632748 0.33047545928430183
Ni 0.5161180717953308 8.245058501725063 8.87473194433327 0.28346566619366664 0.8423797847034782 1.2275063556737569
Ni 3.9095524847011376 1.2884438083131322 13.341021215981435 -0.045717813752089005 0.03837962821946293 -0.07926376802833446
Ni 7.360582041679047 7.055511073054049 1.5177789585896793 0.49424676023841335 -2.0667604502640597 0.15225301590186682
Ni 3.281219213764526 6.81629733777553 2.6143313683745313 -0.36596568177111166 -0.7008117593192833 -0.4605977047254003
Ni 1.9144835895849501 3.2077170148687353 4.4616111053801 -1.1838765347989482 0.7930657689596987 0.13344488205642824
Ni 1.480811405297918 5.523929727867208 12.786469231237175 -0.8274840985385684 -0.5281410989930131 -0.9199142287455319
Ni 0.670262683193932 1.1641348263209528 7.404702703700441 0.24042514216342464 -0.6921278583920403 -2.012997397609991
Ni 0.38004505365907815 3.535326815661403 6.947752980936035 -0.38559554018689723 -0.35810016298010583 -0.795243750447624
Ni 8.474195619761476 0.023600837622892817 13.309771728488485 0.4162824277477927 -2.3567199517121864 -0.9292463047797352
Ni 8.350734031541029 8.919731316852742 2.30557792116325 0.27286423652873654 2.2725584892719186 1.1042646394025755
Ni 7.904783848365764 8.893406845117884 6.9240535877331695 0.06903232010831337 0.20338891534573358 1.4422022113918775
Ni 8.783825935310462 5.988596260435486 10.017996014704602 -0.10263560998505548 0.12877858692901045 -0.12444113589592116
Ni 6.042718932203865 7.033073559706913 6.637125135544893 -0.43106035738791565 0.4151745393955947 -2.0902325652440714
Ni 6.02680266657831 5.46136075078712 13.453815774560127 0.9321285114235366 -1.5663993495977926 -0.07085394669808444
Ni 4.593684793345856 5.891569673572295 4.549425969296463 0.4722010932922835 0.789421487338892 0.49207340673617833
P 8.038100994583518 6.93522721147759 5.850161592700626 0.815286270920796 0.22704666397398962 0.005825605542841579
P 7.687031281436517 2.2654243515058177 6.962878038681246 0.8801037816168132 0.16183474605303094 0.6697985987672207
P 7.408690059828509 6.098398229487707 11.729576692129703 -0.5108730559411847 -1.0082647895664831 -0.25803539904602013
P 1.2065045149074987 6.213542463622579 8.563456579570904 0.8174501113413342 -0.4281367559832175 -0.5600700864911258
P 0.5545823803904213 7.6416496606395805 12.552264330013735 1.3602156451157412 -0.7035376428908787 0.5049790590542529
P 8.005246064325211 1.6892702731437246 0.8160402021768769 1.5013627809124337 2.45436942133656 1.3210083787886604
P 8.90057284897013 5.344945425994651 0.8466394070580433 -0.23064749395137052 0.19233574285536553 -0.6428794057788735
P 2.225458682206465 5.643937265387667 3.9806654015927214 -1.2925570654265028 -0.7674259569044073 1.5731590369191295
