# total energy = -340848.31714764156 ev
CRYSTAL
PRIMVEC
9.47972269191087 0.00000000000000 0.00000000000000
0.00000000000000 9.47972269191087 0.00000000000000
0.00000000000000 0.00000000000000 13.87453238465927
PRIMCOORD
 96 1
Ni 0.1122892130391166 2.2776550889859513 12.78416084191121 -1.5587140651383928 -0.48556311642148636 1.4943261857806263
Ni 5.166145599187966 1.1576447943395503 1.5616203394462638 1.0878100933909782 -1.1852410192466427 1.0511129950802607
Ni 5.5687020297848395 0.8928410603147324 5.873741499451371 0.42920427801578337 -0.04825137880722013 1.3854363673557428
Ni 8.702347652471625 4.997065262531288 2.2528494982184286 -0.353303770032727 -0.18965665336130563 -0.5347550047651047
Ni 5.436222903031247 2.88083089414356 13.087860826739796 -0.254456166335194 -1.7237398073248957 0.7014799890309015
Ni 4.191867083831939 0.033744969410000956 4.053666944341617 0.7978328513310389 -1.0226652812625292 -1.205496684171885
Ni 8.618129794720002 2.3096396738637055 2.3222363295796393 -0.9643634601978426 1.0609580061951407 1.188293175809405
Ni 4.346225410910919 4.956738521550265 2.077350441223657 1.2493252513210613 0.6785097533879734 0.22691810881592533
Ni 0.6858039133881878 6.254683213990222 3.758721483560039 0.7482938640606468 -0.7405486728975891 -0.04346989825817675
Ni 7.825482769066933 0.8646132896003015 9.19105959616956 1.7013606682987474 1.8016141512048716 -2.7135954982565718
Ni 9.291104799182563 4.978105816842044 11.962136155162655 0.7755208180973998 -0.8883086860251087 2.751533668063242
Ni 7.385889061316121 0.8419700236136374 1.1024026574347998 0.12427118597696019 -0.5501374007584461 -0.9252006739554518
Ni 7.26303185324982 4.8080775079009035 13.62022594616493 -1.2093906199096527 -0.6043244283238108 -1.3417273565035666
Ni 6.787737509266162 5.715723051382081 7.558803945863448 -1.8202063123847618 -1.7290740750536155 0.46641868228255157
Ni 0.8900236866853108 2.1752740822640333 8.063448459746342 -0.50370147789341 -0.4832874330134322 -0.6556783573157546
Ni 6.110297555343784 3.226774419912351 1.5125039994437082 1.333788561272464 1.36563167392499 0.6240892696555639
Ni 5.618499013887639 7.0387131715775295 11.09035809103639 0.7804298253632431 0.2371770675397722 0.061471734152236064
Ni 2.2066424851568875 6.6008447733844395 5.893152179948019 0.5555971383214366 -3.6265700624594768 -0.4667691236434348
Ni 7.940585563846334 8.458301667559676 13.314279267022169 -5.624153953727875 2.446438853635574 0.21519876349646808
Ni 7.958947786996366 3.3785258232090603 6.693046453715801 0.23145559167496269 0.4656602068499722 0.6628602197761746
Ni 0.9275254702586355 3.1062207844972933 3.9714597358053396 0.6248179202914724 1.5387700179162982 -3.740231334131075
Ni 3.6153672187590966 2.6147161144493314 7.159466829144608 -3.6637749536445483 -2.5752590924357968 -1.252639403295959
Ni 5.393308197713643 4.517950590241247 11.633268454153882 -0.34027316210101394 0.14873523255659546 -1.3076792657799219
Ni 1.679721570561418 4.322033158211444 9.082560376323723 -2.8307061619293505 -2.7281438283843915 -0.3541818017623061
P 1.6591600517114329 8.429853019302964 5.623569717637228 -1.1432178807373214 3.276204549119467 -0.2803949976881429
P 7.590632115314267 1.121858840601102 12.805527189230702 -0.1129544754125603 1.1319302236386442 0.08787567806706155
P 3.976231828285322 2.8320577201079797 1.0691828646703911 -0.050040866607475115 2.49456630527042 -2.555920797118501
P 0.7956283984877027 2.256771259559249 5.6704659065495715 -0.5892256250091594 -0.7603978464130323 4.060619584382704
P 5.787266519690443 8.465098628839268 7.092064103774778 -0.9160367480679966 0.30811174687712095 -0.34310420379190587
P 2.6407853522720415 0.8268726170112923 8.22188117170394 -0.7592688750149117 -0.5345724564406535 0.16362989028024075
P 7.72448580188033 3.3480485142636005 8.91275010100801 -0.8945060730850724 -0.6560465392884508 0.7345757431436059
P 8.625021553228041 5.533655494428272 6.697694361826519 5.424796013918406 -5.038713506792761 1.9247393965028465
Ni 4.983177468563916 5.509918268425338 9.245932971855654 -2.468259291944775 1.2966762298011991 0.028609950427208795
Ni 8.6625517759699 4.701307389501926 4.53006283211982 -0.8498179861490783 -0.7516771787105828 1.4860531471385567
Ni 3.1762948957647392 2.0601618077617885 2.7530404383089175 -0.4646281660410321 0.7825291310944329 2.7056970693451015
Ni 5.588922278612419 2.7173720331337425 7.783779572328871 4.931238309327218 -0.03791657254011534 -0.5511766406562378
Ni 3.4365512067409916 8.158202081467476 7.232155447972601 0.2672854568893784 1.0667257619168533 -0.023955482374332936
Ni 3.5354152362875544 7.944936756632015 9.795642192197311 -0.06083847144361135 -0.5167932780803616 -1.397416936756387
Ni 0.5986691449172757 6.912405344395785 7.747816347773229 0.71773656009908 -0.7442837144599891 0.5318550575094905
Ni 2.1018346693867467 7.3949042777413565 13.621849822688215 -2.322592156790542 -0.6297765498483283 -1.5340931812659193
Ni 4.612662501181865 0.5231091180396471 8.74776784853706 1.109917723923295 -0.2571416835871571 -0.6124971939425903
Ni 4.584071657082485 6.262219593651697 5.724784718449256 0.45989065135604673 -0.3491658366049535 -0.2823060986679267
Ni 0.7575521437099939 2.4728615418024074 10.697694699200163 0.5485448594603456 0.3317432702531319 -1.481048494835114
Ni 6.538051089261662 9.056718651849284 10.364719434282815 -1.2696829890418069 -0.8789323870165314 0.30649580854025277
Ni 8.722217151553952 0.17135167825024955 11.213993584348234 1.3861897005819996 0.6827132499463596 1.265926093102536
Ni 9.015927404448876 0.08880225171928112 3.251107920482211 -3.60954961664208 1.7285894221077132 -0.5608473309767825
Ni 1.2524230633400812 8.389905467235726 3.162422269353919 3.053425659282896 -1.8215358298294628 0.8491543844231505
Ni 4.215357837040912 0.18996227013881145 11.151100363135589 1.4367458162629967 1.2852785294872189 1.1143423353535518
Ni 8.105381065777243 8.185788074945325 7.576494056663798 -1.2921369471699489 1.2099680896796774 2.335519663485487
Ni 1.6176293859291437 4.162261909388184 6.576084685286571 -2.916965644549228 -0.6173079850676724 -1.417795500412739
Ni 0.1917463539781693 0.0842832678392498 0.7344007645788582 1.3411483440716452 0.793630383213917 -0.2996096229433808
Ni 3.580861027604672 6.829277654771295 11.826554315122017 -0.4302661436213944 1.7469825799029202 0.7300619144336523
Ni 4.234478438018515 5.290367887343892 13.391241344908517 -0.3741507886850653 -0.19131141535590923 1.9465593205914153
Ni 2.044463386731094 0.15851139365720904 10.848829920511971 -2.535687500790762 -0.4929303554198349 -1.8722932628879885
Ni 6.137798231316032 8.151917025221492 4.9838296734956264 -0.6172547632322337 1.3069999803247103 -0.8851912234420497
Ni 5.665234047511626 6.841174706941295 3.036913582807977 0.5535327995932402 -1.14463455857919 1.591405127613511
P 9.327440576846 8.539249020929903 9.53854736878974 0.6701652380780201 -0.9349436122748287 -0.7633052498678145
P 3.7406607155964653 2.61198595427008 11.575633635203149 0.18647954118490462 0.4557018100856797 -0.3314355092047259
P 8.228446827746126 1.098187972658081 6.8389100011537165 -0.26885485825902733 -0.6283778697285888 2.9994268364689374
P 6.220888002049144 6.865338520472237 13.086874935563953 0.14437721269821588 -0.12360501314787102 1.016520858927688
P 4.93670786717958 3.8642099434304242 5.909843127960544 -0.1885582780908043 0.5551664785419214 -0.47746722678722936
P 6.30601591319385 7.087808656189827 9.050454450993557 1.0136900743471122 2.233490576736179 0.2032999551763531
P 9.057657144410902 4.018283878824065 0.4023279692763181 1.72965025927206 -1.1005918185366788 -0.3174739048183113
P 6.220973319554746 4.681854998224761 3.1966781958252453 1.1593916622837064 -0.08955640820359416 -0.06056850561167633
Ni 8.90382968181122 9.001546664893583 5.572470219615576 1.019045939342387 -0.8628388238887784 -1.0024831498876994
Ni 7.69689980840248 2.971694037609262 11.635973967053738 -0.9667610138957414 0.43251611599783574 -0.46729851378434356
Ni 0.9720223413190068 2.402038532430236 1.0805746476127733 1.589313792302121 -0.1523687155441247 0.23513175497496924
Ni 9.00920628095204 7.468751318700962 1.5089386756818457 1.8632668910196617 -0.3702342272394785 0.31091579198481933
Ni 8.136626232273116 1.7404012764898436 4.9218104827292555 -0.4723797849619929 1.1184658706036223 -2.3835635542675915
Ni 4.60024406425541 8.367495402431041 1.805396152257141 0.4395375416209914 -0.11288531273752173 -0.9221207494785474
Ni 5.949312901996413 2.040586180087644 10.136428748738629 0.22288404795586778 0.22557830695857922 0.9016560538662922
Ni 5.799789233568189 9.351670748436852 13.058210149626385 -1.135111706690419 -0.3734259947038988 0.49621545392900995
Ni 8.41480869914855 6.9677858852540675 10.984300847795327 -0.7265135349607618 2.2002644676931977 0.8823792079145512
Ni 2.6494403392291814 7.064990963302821 1.7692111021869341 -0.454656656650617 -1.6987060042847193 0.6896058633011349
Ni 2.805334381408991 4.929569635877579 11.275389009351429 -0.24184027734339641 -3.2301296091382756 0.12519395490154567
Ni 3.1593356715957097 0.4940054209343731 0.9285739276052507 -2.3920008864016675 -0.5193031889864088 -0.7567941882221741
Ni 3.3931340761126223 4.7717132910689335 7.5318312904536455 2.224629269690807 3.2061219333697686 0.20061135260059645
Ni 6.986650533714866 5.2283325810486865 10.226071851874226 2.1972459925818484 -1.6824172944270253 -0.8016067165511743
Ni 4.322497664630831 3.467711055731264 9.34578763243948 -2.71560661514933 -1.2051292735301375 2.3132983901934416
Ni 1.3453243472173766 6.9629986252175335 10.565387155430058 -1.9802765103382023 1.726231720508814 1.5420150072161574
Ni 3.016428849713033 4.556732136398596 4.233827181059089 0.18464660174122394 0.21753563915976082 0.2663467471251929
Ni 5.201334330387202 2.3257457229767184 4.129865904538973 0.4413990203097624 1.339646819825454 -0.5865591339205899
Ni 7.056279098008614 6.508275279806705 1.253583381416263 -1.7434974495677973 0.13967697900906914 -0.10857897205268396
Ni 7.7388949806041545 6.8497728155613675 5.793088965461611 -1.7445058362276538 3.452162621947758 -5.1296171730528695
Ni 2.4684060720654353 1.0662318269488602 5.076330913068879 -0.29075474365591214 -0.22260611170413278 0.4110116662671567
Ni 1.9577049632571137 3.71972948755554 13.247431105438748 0.6538788422131706 0.6499545674581 -0.5221625128120749
Ni 2.188649971197795 1.340906796371783 12.756259173662633 1.0726560113583592 0.07812631198978158 0.12751668949745135
Ni 2.2770863056152737 4.4149534015344285 1.6392896046568206 -1.3234619825354756 -0.2905706526695641 0.21914617817999033
P 9.181566601712955 5.2195827968631 9.98412752151693 0.9184900947044955 -0.5945681202679953 -2.1747079593803322
P -0.03470716127873009 7.450872561416005 13.22123673527449 5.95186316312095 -4.033307269720996 -1.3753841253260635
P 1.4800691277308338 0.8857132567078612 2.6252281791117325 -0.7216850032238668 0.9007458833471971 -0.6865933017270562
P 3.572310317598823 7.283536493762737 3.5716789680573715 0.8112293272426029 0.07347827169480893 2.077351595516345
P 3.62755814233728 8.604687547726328 13.07648326338168 1.203585068971469 2.2174412365828005 -0.2754127139822031
P 8.302056875634616 7.474894179104277 3.496382477474823 -0.9381191817893326 -0.8785724325739513 1.5782624195839656
P 2.601634096923753 5.974301451414836 9.417061876619055 4.416595501930955 2.0986508712147534 -2.1837158193058976
P 6.80180541796758 0.8097901564452835 3.242173281701155 -0.679470831749662 0.6009439418873522 0.6777600197061424
