# total energy = -381169.6417608597 ev
CRYSTAL
PRIMVEC
9.23957558056171 0.00000000000000 0.00000000000000

0.00000000000000 9.23957558056171 0.00000000000000

0.00000000000000 0.00000000000000 13.52305281276250

PRIMCOORD
 96 1
Ni 6.561428996049035 8.765224789367894 11.203565354984914 0.7885930779003257 0.34152143268581825 0.2714385598258035
Ni 3.3767691233440664 6.897065810146566 5.879944713136712 0.786452120297923 0.2609993667703505 1.6726126496317775
Ni 4.799016956687484 6.219888093304024 10.05901480664574 -0.9740554906746256 0.4935497341713887 -0.8748798142137126
Ni 4.190424607654389 7.094718805994565 2.8903766259932304 -1.109311972018496 0.8911075889264847 0.8207979447676444
Ni 4.157356167483298 7.939955158844924 8.875774460493648 -1.2665686117825414 0.29046857987406105 -0.8942970423980598
Ni 8.388952322889121 3.7902585993252567 4.928286931426161 -0.43263670073610005 -0.2078551786472033 -1.1301121965932988
Ni 1.9903154048994496 3.59789064057641 -0.36114543371875196 0.6361929948976334 0.01394772042934372 1.0730342206333843
Ni 5.113772330498157 5.96650197895588 7.66294622220412 0.24411827474429573 0.1360532662135528 0.0524024248611162
Ni 1.3093217434381148 4.634099776298044 2.963522648194533 0.01473010712132302 -0.6935275669530443 0.2652306312428787
Ni 3.936271608552347 0.380466309729305 10.468586702679307 0.1625932214856103 -0.09383626652587065 1.5948331794584534
Ni 9.066324070813975 7.292316364390474 8.53959158749304 0.904062863535572 -0.7823082733328784 -0.313036437872248
Ni 8.757297233719166 5.542257637269423 6.485682957344758 -1.2854186546095088 -0.6329505767009357 1.864611063752382
Ni 7.071139409706042 3.74819081276505 11.731559040340874 -1.9649666194540096 2.8221757558608362 -0.27299459145901367
Ni 4.709679502646052 4.1607286124853795 13.356083353036514 0.4769200960345077 -1.0857110447701044 0.2184902897635463
Ni 0.3222486694180366 4.963583033213695 8.861845800656285 -0.3186131606290771 -2.4783994657025703 -1.2140777409726768
Ni 4.015805873149373 4.9373795975262915 2.1655541149103286 -0.04737540396017002 -1.159864488155067 -0.5144150076561721
Ni 4.413541873161938 1.6989084379935961 5.339171771116702 -0.9326507024755939 -0.7585435668131129 -0.547056190729961
Ni 1.090288370234457 6.095689721473958 5.074119768933961 0.8409800761424743 0.0045364544177728325 -0.9193244176803329
Ni 5.287716576002757 8.643650456936706 6.955351823315411 1.3440336360392402 -0.0787012106566451 -1.2148950946676496
Ni 0.3644726048016271 8.19258362801452 0.8343549049628227 0.4155815450260262 -0.21813007821065017 -0.6188239074915666
Ni 5.502093203230939 3.7901569639964268 4.0709661379779325 -0.13425066578717526 0.8769657502084638 -0.6356409790489054
Ni 9.217797669071832 3.1969577474933795 11.742269556084471 0.8773678707428889 0.04552883766973449 0.3355269056652802
Ni 6.941813073557741 5.1036087976151725 9.215433261740236 0.014438544022833196 0.22802779694033629 0.38643089160399896
Ni 6.563646494132596 2.1322168030966053 5.3186571419711655 1.4799578328740963 1.551859761220721 -0.2967765243699599
P 2.9447635383651485 7.767923505437394 10.816480737433716 -0.2913944341224401 -0.12928149470735797 0.8425872727285939
Ni 3.9116389006741326 2.5449671130499425 1.5803582185738638 -0.8357231986189091 -0.919026941044572 -0.820197335069168
P 8.346247005629891 7.442468703373543 11.911010072752983 -0.8321290535097475 0.03217092830558975 0.3878359994816417
Ni 0.7346192328245639 8.1881486318474 10.430059521392517 0.0370933053078716 -0.23068580338847366 1.6813744549848078
P 6.9463035071769506 4.080372025682367 7.282434638555609 0.04792639136763359 -0.11877236764591804 -0.44384542496772594
P 7.796252043454876 7.497305583064917 6.821040736266775 -1.6457181392337787 0.3213400726419369 -1.300147219068935
P 1.783663062662336 2.489058442618181 1.8520497796017976 0.46592143093115884 2.472862595044741 2.116398425006161
Ni 1.9584850678250125 6.345028901819605 9.652497514222276 0.8177943820546302 1.497354431083989 -1.5549286299540317
Ni 5.439578236425238 2.9876351679806454 8.757460774202828 -0.17359651457464942 2.115527592365434 -1.1979042165366078
Ni 4.662687022425272 4.1379253405261025 6.19354421607133 0.2690587467397173 -0.22437400223783294 0.9576513382849895
Ni 2.000589812686612 5.54176793977597 7.230694864520941 -0.8417742899089954 0.28698679197304766 -1.1488547673081246
Ni 5.804957243568521 0.694338380136693 2.4013425340503534 0.3601303060362572 -0.023065880680528016 0.8710141606107193
Ni 2.3064012775602585 8.503864921494282 4.786606359079826 -0.5364185085104568 -0.6644535324052234 -0.5815632233678952
Ni 1.747573281352394 4.648458076389095 10.985587141286016 0.46218201849338464 -1.718400911610486 0.28856467798312885
Ni 3.321562660638766 5.755848900593009 12.526376878431352 0.9987103131088284 -0.04528509709004459 -0.34363899324945335
Ni 2.7747738311095635 2.7284927981905924 7.238335993333875 -0.06117939972279787 -0.29381152820436496 0.3898969957757285
Ni -0.21345174573582992 0.26779985189128575 12.240675349302993 -0.9262933927989982 0.21768682002564446 -0.3308215297698109
Ni 9.287343952717489 8.174843643346037 5.216855500785057 -1.2950119547248988 0.761010797406683 0.2938367250153455
Ni 1.7584944594139278 1.7373081131405799 11.599046898612526 0.8236328431132783 -0.2923796808538448 -0.8646676495674013
Ni 7.191946857383331 2.4360694779964405 0.10716059488804625 0.7825461003752974 0.6707784461819867 -0.6871396611488295
Ni 8.840453411852673 5.647173015347865 13.192954954434477 -0.10504627630907715 0.3393377947709382 -0.05088753087848655
Ni 0.8328821166523248 1.0573400445428918 3.410189591335923 1.0991358028164424 -0.7575662905015081 -0.716524799179166
Ni 1.36354881115651 6.836980851657434 12.422248712172575 -0.08626642459841272 1.0462592665323853 -1.079069885304503
Ni 1.9281145836555862 5.880342938834219 1.0043418403458033 -0.49398193661280076 -0.027184016613959635 -0.4565659578581879
Ni 3.338896103991928 5.218946416686347 4.430787540549292 0.09351127908628412 -0.06184737232409994 -0.3893305817492972
Ni 7.716496029049495 6.357095787224312 4.2945019562487525 0.8509055627863022 -0.31197457226663694 0.010684476297039662
Ni 1.9835982336213318 1.30773253647823 5.45651068220829 -1.4406430944348738 2.4296228105194992 -0.46748389032227233
Ni 6.955709394881385 7.66418155342817 8.970003345724399 -2.0263481078852843 -0.6323335119422271 -0.35591806772712253
Ni 4.727807549479158 8.466851182649522 0.9143908785012538 -4.334951920816534 -0.46305670778885416 2.7024919321442424
Ni 0.14848089980258594 2.984022494019512 7.072746171859087 -0.5124794811963561 0.042066847263063034 1.0339688792008064
Ni 5.722346200380556 6.824516664512755 5.3071085967434914 -0.09671641628714311 -0.5138084844204248 -0.03621270247513118
Ni 2.4188561491228047 -0.20059118080871563 12.764138870865747 -0.051626208816724 -0.13971477422554004 0.6868714950891074
P 3.8955712791436694 2.3135804276057845 12.177739057861416 -1.175150724890176 0.10354192384940879 0.5592077384908304
Ni 6.857594344259195 4.948753514779885 0.5939189794226697 -0.1875385785770383 -0.16770380323929826 0.27119816168022326
P 1.626350052784437 7.729283601331358 7.552638627952487 1.5251683679724637 0.38537211132218147 -0.5892135408243013
Ni 4.636945565505279 4.200846848647123 10.829395815855385 -0.2953593323074591 -0.6240550739835188 0.7489559231246778
P 1.0817325234620538 2.8167584614916366 9.34998734962053 0.001249556136384945 -0.11234872350776134 -0.002231974654312285
P 7.671480817953222 4.453475317816717 2.64702931026087 -0.796855575019434 -0.01786968119156922 2.0803685279657977
P 7.606332572173294 1.7541333798495928 11.2759943861392 0.8144275224649263 -2.8265949679744544 1.8548354724228573
Ni 8.170824428069585 2.071161689195915 2.617806381349686 -0.4249737848742036 0.3572200743679977 0.5663338080126504
Ni 6.623278713429667 7.810850572504981 13.738204470710675 3.1360462595986056 -1.356987882207063 -2.5846598169244066
Ni 1.5452727791042675 3.7716500945740474 5.365487005665818 0.030440575878044353 0.5691638212622778 0.6738979656475749
Ni 3.0381109681076848 0.11348970400154096 7.064023088772883 0.013925094721524405 -0.2976707540494551 0.23909073962271726
Ni 2.996662233095805 3.010346044186441 3.8506623231639017 0.5887695113083473 -1.158881041195875 -1.4293050437142352
Ni 7.63553886984885 2.7053384223680847 9.505813711824908 1.4904209371889494 0.9143673307853737 -2.075215780120265
Ni 1.916389562538762 0.443409992831161 9.140582537887196 -0.11990545280909672 0.7049718042342439 0.3399306911599307
Ni 4.511823236140395 7.864412390798306 12.234629895152686 0.3501953063107323 -0.21850803037535915 -0.36579084675614426
Ni 7.6683116436088 0.45746708276586295 0.936746031056145 0.42582430579995695 -0.5252954020141017 0.1776290327728102
Ni 8.78919224782104 5.621366881400433 10.841268670177781 -0.9721302486274548 0.34630317034517777 0.4628109103266351
Ni 3.282784162902507 2.454105129076064 9.755042941223913 -0.7897526454260656 0.5833069455318793 0.02867217112371191
Ni 3.567206010845146 0.5284362610151373 3.3245341080707362 -0.6199477366833646 0.5171372916833417 -1.6574300283540682
Ni 7.358037463841989 1.3435728492537715 7.314740813760476 0.06869164893944299 0.024272499394119487 0.5997283243126962
Ni 5.806851356514895 0.4314124042415655 8.994655456710845 0.31078080906885186 1.1247370483243146 0.38534357207709113
Ni 6.03830271898649 2.8820914987785287 2.0259967969790025 0.5600898839854676 1.8258550260301072 -0.05180490048643337
Ni 6.339965614528809 7.619046227852372 2.4986408062117658 0.17444035063218344 -1.057307553926747 0.8497804480429237
Ni 9.04008367682518 3.9483569731077504 1.1856038295261524 1.5792618073827578 -1.3466052534211583 -0.6901517085022759
Ni 6.895495082337377 9.163274934942296 4.852707205078151 0.05285056814212834 -1.3843567611383192 0.09619473945571819
Ni 6.078531830052411 6.160339030185086 11.777226565456726 2.2051742462899893 -0.7297109588521368 1.4452955056052206
Ni 8.697452504189085 6.449491540705986 2.1644860200000804 0.09233654205189258 -2.000776430063767 -0.6888520158542459
Ni 0.46728690344589535 0.5715204008636422 7.245611234963022 -0.1420778751410779 -0.7495256795852189 -0.8865883608998925
Ni 5.542331553872208 2.069581721811378 10.83575171973739 0.6246898793540403 -1.093610245012523 0.8843013646379286
Ni 0.828323310175539 1.3968390011359573 0.4955267415400344 -1.2399700353584064 -0.3667763505978651 -0.6659000350437628
Ni 8.586235735723195 0.39776002290847 9.303968720641446 -1.2374662950999462 0.7712571577250394 0.5894989332752041
Ni 3.2189756555480624 4.541371398103834 8.707006225099091 1.4984908586812773 0.0010253559407208145 1.224071361850279
P 2.3727414285601007 8.367719778739033 1.6034821037977225 1.1663488103278299 0.3527101023127861 -0.5877904352245297
Ni 1.7582911887562682 6.992076363451773 3.0851357868421827 -0.6910166276057326 0.2648976733834922 -0.19140628906256066
P 4.534377039565272 8.572708997413477 4.774259514542069 1.112311420966452 -0.13226114616097223 0.27906342336091294
Ni 8.300862211519693 8.51093319663563 2.9352051976674693 1.2400854778903483 1.642495261421107 0.5543264991391291
P 8.779370579225938 1.4514633705943232 5.180545817581828 -0.23833174996950565 -0.046880980822254746 0.5703781532853531
P 5.202148868703379 6.268645332416304 0.8142163265339569 -1.2817949418139925 -0.03642430426530501 -0.02052434520559691
P 4.733175742756442 1.6054408937715339 7.424980959112067 -0.21234715298028592 -0.8667942089921008 -0.2923197741501869
Ni 5.371611920164119 0.792061672764121 13.140593356978878 0.32117500781898234 2.19541485291038 -1.2482811263272633
