# total energy = -381172.35123359 ev
CRYSTAL
PRIMVEC
9.20534826002389 0.00000000000000 0.00000000000000

0.00000000000000 9.20534826002389 0.00000000000000

0.00000000000000 0.00000000000000 13.47295766940151

PRIMCOORD
 96 1
Ni 4.1595654438310605 6.96697570620607 8.556850719244274 -0.09184828956156439 1.5954445877902073 -0.8914575160667356
Ni 7.172218148922591 6.065109335654275 1.0689443603055229 0.2401695745091928 -1.9749355577412633 -0.529660620961333
Ni 2.93855885770073 2.2425240721480986 9.085677719634033 -1.60970649702586 0.6663746606873362 -3.0674368859603236
Ni 0.20238326157605693 8.544717149826232 11.745872371993807 0.0032817560750653158 -0.6708866896250768 0.5684007178440081
Ni 2.1676845915558265 0.04836029659182072 9.826204714478992 -0.8336151511369708 -0.8575955732119682 0.332415356619492
Ni 6.719775286547414 1.4958230502879808 10.228305368802138 -0.5989670206666394 -0.5767974265481357 0.8110614342061709
Ni 4.131479926575585 2.4496352005423834 1.834410484402707 -0.15435874939095998 0.6814719213400909 0.3751473482703797
Ni 3.820247105071928 7.855853330495173 3.9119268495996864 -1.5502628490472463 0.05704583717039853 0.6135906841170853
Ni 3.46827141258409 0.2576043041562443 1.983111837611987 -1.3439511036277627 -1.3323672554449053 0.07457021920740707
Ni 2.612579068434611 4.990044339352958 1.6140740322978542 0.9380572182031458 1.0998454272889573 0.6798675529674485
Ni 5.151662637109234 4.611391547879093 8.151368020004819 -0.2796784312370925 0.885341890087301 2.1526424949398604
Ni 4.621545046906556 1.8448070046217613 6.4594747359132505 -0.03812328923428273 -1.821913781994172 -1.7919069512194363
Ni 6.901599323528787 6.834050478684248 8.359269887806592 -0.6861127625462119 -0.5002957946459706 -0.7417023268860581
Ni 4.902529094335648 0.07368697100184762 13.433858906323586 0.10515554819343179 -0.20259110203478659 0.35888923454030447
Ni 0.12320345932335953 2.155754460332261 4.954154527922067 0.20869875759442125 -1.2338143001696558 -0.1590625826245325
Ni 5.011124586653857 7.442708099442065 1.8696016099077741 -0.5362701558580506 1.7015871824872568 -1.5216333582360115
Ni 1.3006512584654277 4.066177186683631 12.677298956577328 -0.4060093279565588 0.1446762319958734 -0.025311996402227376
Ni 1.9601224011013918 3.5434514910585166 5.591775856150426 0.9308203341350745 1.7201094096611602 0.37876334775641224
Ni 7.697567368775109 9.226520467113716 7.733841043224537 -0.8323805073989212 0.12559170456059662 -0.6408091535134061
Ni 1.5985547358242367 6.536966277312243 12.816797723224726 -0.998649635074222 -0.3775269042461498 -0.22591203614891417
Ni 6.693917463548189 6.730996605962171 3.2299799288808084 1.6963873834538719 0.10804366837450426 0.8217813917268362
Ni 1.2230225573787572 8.995107219560316 3.906631933334413 0.40011918772436894 0.1766422433795087 1.445954222235142
Ni 9.052474949332892 5.782063290235925 9.705743528374382 0.10594847640837238 -0.5690704902175232 -1.6684968276911911
Ni 6.2242145733611425 7.079796453332626 12.765034209415813 -0.8603767355015312 -0.1225817140896792 0.09457314469189519
P 2.5596391111300405 0.5606784255800813 5.678905397079568 0.3766617280323771 0.22753928733969198 -2.7430811664205144
Ni 1.490935010411659 3.1060041408462937 1.4372006315603343 -0.9420416567721904 -0.3835093470818298 -1.3006814943058502
P 1.593003910879939 7.1089313802790635 8.192824305471891 1.5334552905716041 0.32570220626537455 2.425078899902559
Ni 8.177930052138768 3.828126883102307 0.1905645150653044 0.2396982912997291 -0.5268846008780925 0.504367393612183
P 7.115955060929974 5.17746522801946 10.317631305803765 -1.6146486715224835 -1.0677431474377739 -0.7026074177671254
P 2.99481274034518 7.692053365223477 0.45845119312334054 1.5226900816353002 0.17034329774467438 2.083158432006109
P 3.46571232579385 3.357890082721613 7.17076646551676 -0.8786148557761125 1.3557887196926393 0.6672892020818056
Ni 2.3439209822002365 2.012583680301313 11.212101179103913 0.3591807976387943 0.018889123595019083 1.8382906806902986
Ni 1.9796653552585126 7.289871703836468 2.462789643072071 1.2981404730515513 -1.0328954436309694 -0.7981408694897609
Ni 4.345136057516131 3.556292951750548 4.358717628200735 0.4493637836827938 -0.026967272617463234 1.0418120293943092
Ni 4.61686873003806 1.0370469083743687 3.868126882489466 -0.24897483150564864 -0.18805691297435354 1.5265876169174935
Ni 4.798830847241928 7.890815242830899 10.938451953093754 -0.6230379455729141 0.799380655434133 0.00845944362126285
Ni 9.361194710787139 1.222709575541102 10.477932318237439 -1.3451060431678126 0.1464394945438833 -1.5653156296153106
Ni 3.663157838613487 3.650776645329771 13.276467704445288 -0.13636668368891353 -0.23492786649427927 -0.7729391734131527
Ni 8.60739636549078 2.479764305090785 2.622982952932199 0.048638329832993654 -0.629653908227535 -0.22104133832017417
Ni 0.7804653183994039 3.475718539250652 10.093912808782601 0.45684517966150356 0.91641572867397 0.1766872376848312
Ni 5.084122997612863 5.7883229269890295 6.401203961485558 0.13764015108469843 1.8197239734317048 -2.021684383861028
Ni 4.357719768459504 5.637263163579536 10.283382807950929 0.15610221444462793 -0.16860651755922576 0.9975692575258496
Ni 3.871705001321719 6.19052299907237 12.538136185137997 -0.42571066304022814 0.4761801325446896 -0.2039321894437133
Ni 1.0674613787159268 8.977994477319108 0.6186850065154005 -0.8314027168666842 -0.3216432057046525 0.6730245619036861
Ni 4.814829742355012 8.54055633245505 6.776681828376856 0.4825623819219496 0.3604792047352437 1.015590890914251
Ni 6.210406551111646 3.2521850697276324 1.2465413014089166 -0.03146438915686839 0.7309366037291218 0.6785462630528637
Ni 7.03702840575185 7.354520864008612 10.635566541307327 1.3924616496336406 -0.5328261631735082 1.4880791764296502
Ni 5.742544730557865 7.758727701992213 4.971736742919759 0.768545158110515 0.6695715703580791 -0.27239732419464696
Ni 7.955878643670528 0.21852207798126871 3.3565580688419447 -0.4993228892097401 0.25822463223869074 -0.09504519923230728
Ni 5.47717295361887 2.4978712249339585 8.472563789828895 1.499242392135321 -1.158123337094244 -0.7488829037948973
Ni 0.7655103097683824 6.706372299617236 4.703625454366465 0.7211281022791323 -1.2155011036827648 0.0020121453340223414
Ni 2.6369732410753888 4.998513259665983 8.377390615672015 -0.3420222835816367 -0.06925934851745491 0.5497921016038855
Ni 7.704609460122352 3.1961705261355076 11.40250091843704 0.750455647598656 1.1512345803942108 -0.5323535944124639
Ni 0.3819897301841607 5.54090157897438 1.1982739788335757 -0.04533780470485095 -0.558698917175212 -0.25219282422231404
Ni 2.592934855447661 1.4595171571199708 0.07601960622719593 0.3391465046957385 0.7489055295027167 0.11994684756999342
Ni 4.801813380047819 5.317368109451362 0.9878912697009771 1.3676864995714897 -0.7205519180606881 -0.4406441444216089
P 5.997376383846411 0.8606319339755321 2.227834177544268 -0.003069382953943101 0.3675335404788638 -0.6520230199513545
Ni 7.935912243497755 4.667516555649214 7.6958211142279564 -0.29857963901696966 1.785865887231679 -0.559558694072346
P 2.638004240070018 4.354875315876108 11.019572242739914 0.09661202949879491 0.5589331446732051 -0.11634858869577382
Ni 0.460926511245267 1.0341656343983072 8.139417637015288 1.0791930411459285 0.2680141075252868 0.2993309153606974
P 2.6467861422206975 5.594872535273581 4.249882796830202 0.9502779286390538 -0.0753286946399864 -0.19280214096882278
P 4.3346971926955105 0.950268091210365 11.476413420468962 0.0065737965627757754 0.7011511449365732 0.6612108570982096
P 8.050076971456594 2.556813069242977 6.654482672538443 0.47877694673758836 -0.9001748413350754 0.11004810039904273
Ni 0.9298414236292762 3.1717119160575655 7.569821990666482 -0.23322193954676607 0.7390564046227788 0.30485390206145563
Ni 0.5404597988675516 8.247881492854718 6.761322704961333 0.6907978267267071 1.2438382600645612 0.13912676293255394
Ni 0.8298667398688366 4.517110371959529 3.51692720085205 1.4723440250825803 0.6194743965913718 -0.5135976539611994
Ni 2.340376923156199 2.7757622753791633 3.56146819848966 0.4444946285159506 -1.8382824531601822 -0.9997053300322462
Ni 7.286594599889254 8.304871803352475 1.1076224716959964 -0.14852363076642164 1.4237272925161417 0.5644558742636473
Ni 7.350525742904425 6.417361188587103 5.922941018038641 1.0890344527163822 -0.18241385575596328 -0.05659795099970253
Ni 4.455950038742425 3.3944353149419477 10.29257158649056 1.0015853206637784 -0.8839159562740518 1.9816291677113547
Ni 4.466278439385048 0.5957867029516517 9.354139731952465 1.046115027645037 -1.2239368931549437 -0.15804879664803748
Ni 4.742558553901145 5.6034611251127675 3.2229875464136635 -1.9085517309993905 -0.3450821534538831 1.1348620525734585
Ni 5.8307595820358165 2.3205946299467533 12.529702245148007 -0.7974106761919558 -0.7833094609038832 -0.25390672158962724
Ni 8.451356508723302 5.528925421009983 11.959256945163448 0.4610221938573286 0.6273800245916937 1.4311336122825418
Ni 6.574689794097869 2.453225286327253 4.121418481029784 0.38808591070891874 0.16975477223105606 -0.9366927337554513
Ni 8.477370822641355 4.34350671089069 5.176876085736816 -0.4591247197242996 0.17819184725481568 0.7955137162795589
Ni 7.954378171919416 4.5850458414270525 2.708522730233014 -1.6083407270265848 0.9448228190617534 0.031127317532423805
Ni -0.2482314186532859 8.118030851620452 9.359650053364831 1.1663295270541203 0.47209259273887727 -0.23328878822895951
Ni 0.6601919213973876 5.817439443239135 6.9014953030945065 -0.7366321114520024 -1.876057100805795 -0.16449455227338122
Ni 6.270425421156125 3.701240363977599 6.230905940943249 -0.4558429636492343 -0.6611851460665967 0.19390591555596284
Ni 6.81307149021318 0.6144164865706727 5.715444185556185 0.20457547945466706 0.28871097375300603 -0.5945182408666664
Ni 1.6541274227043776 6.933827247459112 10.485652843744539 1.4906086277197232 -0.15539516107527432 -0.5932658565168041
Ni 7.623952199488959 1.4648470537082765 0.6761806906274882 -0.18050866831345042 -0.11907447226736911 0.7217621363187053
Ni 8.068809854975077 2.8561801969602323 8.81941118285327 -0.6329294936550132 -1.7731150153239141 1.4314673414728767
Ni 7.068676392747697 0.10145306267595229 12.388357806193259 0.4214390322480677 0.11839878635658319 -1.4358240757796754
Ni 2.985644213571514 6.850914676524967 6.421413382849922 -0.7115152617797166 0.14222057136652924 -0.914197895087045
Ni 2.738729159706013 8.740947556687914 12.130687223530217 -0.3644078503656885 0.05783002363459073 -0.88422423154309
Ni 2.7936298561700124 0.19216532511142936 7.613891674477975 -0.6095301408944664 -0.7247281609255648 1.0509988380998996
P 1.157029416374329 1.2398131124341452 2.4412592542458387 0.2306600923568608 -0.05607678838890987 -1.2182025617743277
Ni 5.625912969290448 4.700407264647515 12.299301585892902 1.8139109662943533 -0.16523708686636057 -0.8145900161847196
P 8.849552254354288 7.223639223779716 -0.06819874242508099 -1.3101894337962856 0.5012833553702206 0.5782431578557267
Ni -0.2957549490967871 7.273228434351742 2.6422626341317628 -0.7157434409284511 0.059771977852309956 -0.20241086770318045
P 6.4191930528722025 8.831574209385444 9.309678820843901 -0.8292283349231848 -0.8061405998657858 -0.5150521270195387
P 8.555800389018495 8.202443894305707 5.060671452624317 -2.659432124840291 0.739738518291468 -0.8270444398979886
P 6.424403279934347 4.719066505380668 4.335489773172632 -0.25137727029955415 0.6086071148595648 -0.2227351810828293
Ni 0.16720778516287232 1.8406738032950785 12.602160302169649 0.6378012199250176 -0.10864684917614191 1.0598406047612456
