# total energy = -381180.52720299363 ev
CRYSTAL
PRIMVEC
9.08434667117190 0.00000000000000 0.00000000000000
0.00000000000000 9.08434667117190 0.00000000000000
0.00000000000000 0.00000000000000 13.29585961310489
PRIMCOORD
 96 1
Ni 5.826027607222963 6.833726912079498 5.260041024694552 1.1556689620164806 2.2319581992520527 0.3624131885331629
Ni 7.5499277062557075 8.358134761843356 6.668578034776052 0.958952059374284 -0.760521002254458 0.7049270670392376
Ni 8.352348033119119 5.112688382196104 0.9738074249124382 1.3478537811162787 0.3898512301394576 -0.03159911496251977
Ni 1.7791056727489092 5.5447762394012585 6.565973974730864 0.24524544637020346 -1.0960247679912867 -0.4368929049092927
Ni 0.13089453193376574 7.248745282200125 8.373811618608535 0.8951233949540971 1.4509732727162883 -1.804758353260808
Ni 3.6832664594976112 3.6475558933830405 5.8184012983312865 -1.2895804992966824 -0.42202061578315064 -0.72038376791394
Ni 2.6224964023537907 0.6880075247952442 10.813455569188243 1.4571032968734259 0.11571404043556845 -1.0131550277792487
Ni 4.463094016600927 1.7553773596755795 4.422442474421813 -1.5057477973540068 -0.073392396849222 -0.5595131855463912
Ni 1.0054100495370553 2.167815775388539 1.6895312908970888 -0.15521981183967462 0.9838048567519055 0.614186151609239
Ni 2.032795133271808 8.925343188976807 0.9757060533321648 0.42416260182681786 0.7921638259707197 0.010867795952439347
Ni 1.3395777357554477 7.377079845288537 4.852323743860692 1.1596302606570739 0.9109156247913474 0.05263459547658032
Ni 5.375889153510648 4.7079080705875915 4.556876267754266 -0.4964522525301644 -1.3078229904466379 1.0119931462606637
Ni 1.0211804750712439 0.2145359270826031 3.082059865565946 -0.20988609303430306 -0.6310320195219843 -0.37917446715190184
Ni 3.75564144810987 0.7336572744218867 12.835542983233582 0.16276265718393904 -1.5776867495861537 0.5707013409527268
Ni 3.405303625111031 4.510432546243011 10.071613298564566 0.7833518841060445 -0.1142081453140033 -0.9460160680389064
Ni 5.787155688524351 5.060271702857239 9.396410160169346 0.2335674958116429 0.4812130669829068 0.23853409578829887
Ni 6.274031239506401 0.6984545232769935 5.462563811957795 -0.947087189615898 -0.38017848293638395 -0.30825418599225624
Ni 6.312439856533215 7.5085212548819555 9.14470562935798 0.9292483616622642 0.34598795309760416 -0.6459472460709198
Ni 3.2971908173446836 7.533703063396225 12.48489175028029 1.0667383603223435 -0.7454723354514516 -0.6523863168280442
Ni 3.7378542976513787 5.734693587452957 0.9011998770296293 -0.274116877988915 -0.3817525122917232 0.1891709719741387
Ni 7.463662751835975 0.19194224888785621 11.820085646461035 -1.34323736539019 -0.008757948698288144 0.11747910275579122
Ni 7.420257744230933 5.629760300963663 4.166922518077983 1.100050858431544 -1.432920014759003 -1.2406220671201085
Ni 1.8946131385710339 7.594586353678559 9.98399386808081 0.6525657798287019 0.598078447414099 1.126513423498447
Ni 1.59105970007742 2.93975811972476 10.687291256480083 -0.41528689660374285 1.0840542258929717 -0.587311181595266
P 3.3637245711536683 0.8973653743695019 2.524990477567696 -0.3435819147592728 -0.18201507765564784 0.34029758758104617
Ni 7.467196562626757 2.3311523255640645 1.208658676086116 0.6309142629971973 0.8128948878704839 -0.4636259500287628
P 7.452834210800979 7.06163499721874 2.34975070816553 -0.872047229860924 -1.1121923788900845 -2.041259220669162
Ni 4.43265237145976 8.110668078676978 1.349343408249257 0.2877336974414012 1.5023806806539868 -0.9706729473556381
P 5.8434786368607385 2.765329582465569 6.117876773678415 -0.07741797306884732 0.041835190868231176 -0.48988205551181446
P 4.883581163318087 3.8686688873358923 0.6006724343571206 -0.11627068426998684 -0.16447938276472965 -0.045860509977540376
P 0.9542560943625068 4.695453431528045 4.493309461514098 0.26936290824369735 0.9270572675482163 -0.10350901372894432
Ni 1.3150136628035778 6.739840190941342 0.4761841835792936 -0.03201331968180293 -0.7373407074832528 0.4478501752517448
Ni 8.107370460895348 7.806197121186273 4.151738032893422 -0.14061928831768042 2.47194882498122 1.789154842395596
Ni 2.356443146236404 5.371565004573854 11.989607728172407 1.4272162795060064 -0.4897203331229695 0.10330615368951886
Ni 8.62650452631974 7.499155293634405 10.768994960519217 1.55727244759586 0.6143298762759549 -0.15701855561131023
Ni 5.64817427133106 1.129738415816379 8.053235931632225 1.20528251127855 -0.15174959390288703 0.2328848679223215
Ni 6.527975061731464 9.011998770296293 1.0276067417894956 0.4372369185122728 -0.23190527761787158 -0.3366139680818719
Ni 8.272523880372047 2.4384475421448837 12.088980486165458 0.16490412900697407 0.10674860371216455 0.8599463328323319
Ni 6.078063716681795 6.5800374515566 0.5264923860941457 -0.9287346552506391 -1.066485363771273 0.0688662268440943
Ni 1.341367352017104 2.469570513273991 6.303354601592696 -0.672884436781396 0.20215632849021314 1.1247748435407856
Ni 7.84160790386615 4.03301379997357 10.492640055464175 0.2256014468870308 0.3219694786958197 -0.9031516645752123
Ni 1.5954928611722843 4.7002953882156735 2.2766235356625857 0.876134255446104 -0.47234198974552205 -1.2049675511412925
Ni 2.1223667898196767 0.6681100806434394 5.069405104834241 0.4119223510068842 -0.8441137366754494 0.3750185360019993
Ni 3.1154584654947732 2.6158920824440233 0.7988856076379781 0.5088187445153172 0.44278433069306317 2.9547847722795306
Ni 7.969551840054809 0.23982493088564133 9.039775068172638 -0.7417681471269871 0.05204709840422649 -0.38623111688836714
Ni 5.8514819461324095 8.664658781644391 3.3593849788278147 -0.0920758321913382 0.7444526359376856 0.19049046211651066
Ni 5.55774868621164 3.0127417595529122 10.70155822266755 -0.9424265509154351 1.1099532051469208 -0.16434080030433632
Ni 6.838250916639421 6.250575456828248 11.305894373970487 -1.0806022627886294 -0.32003832311137786 0.6581088211341182
Ni 3.8405164975142045 8.010576748875314 4.965179488937754 0.1224197345905182 0.5781994491019848 -0.4063343153961454
Ni 8.710280369796864 1.1405669568513748 4.825425902291466 0.06033684921684448 -0.042205686833772474 -0.8062118194233534
Ni 2.8646850802002586 7.30890182476199 2.5577640744569194 -1.9659984031526334 -0.5629386662881725 1.910068424754233
Ni 3.5788691494521645 2.8006676903733996 11.966392680676659 0.5807507547689288 1.5508207784332453 -1.6980881681950626
Ni 6.709816425739445 4.1400183174662 12.753308753358505 0.40641376248382916 0.03187473722140962 0.19601524858948177
Ni 3.655241250527005 1.2166211057985103 6.877588862313785 -0.7787773773614846 0.16337535106727347 -0.08788441981780994
Ni 8.664695119030414 3.6705847117754185 2.9365631550586464 0.39500963441194553 0.22061942029140713 0.5836841263656398
Ni 0.9820541946704661 5.377397155030622 9.787706576259197 0.009348273984119384 -1.3412930971796253 0.24917614888317727
P 5.465351797900446 7.987202725315713 7.139251653764885 -1.3979710094876439 0.17391378870475208 0.16299688468193219
Ni 1.450325004008497 1.739370741132238 12.710508763230752 -0.07757352481010511 -1.6459999321402554 -0.24781912063465064
P 8.05047519872909 5.868996566195724 9.27408761759852 -3.0564521048140456 -1.0419889212918056 0.37217643856751387
Ni 5.082710038726737 6.515084374039636 3.126255211316999 -0.056296874819515945 -0.9567807627545779 -1.8195720212348725
P 0.6268898583730586 8.988633831083197 6.6509080723874865 0.2281182997716136 0.16071708750882 -0.6439510415764973
P 7.128940920480724 1.902525604377646 10.011689315273253 1.0276681337937592 -0.4140257705031321 -0.23284295894079257
P 2.6435175801683712 6.106906516837928 8.63458414410206 1.279898753232544 -0.1834944904146517 -0.8593794045852685
Ni 3.1096081463449936 5.644958412667982 4.310265330028741 -0.9628624501722837 -0.04308191879113871 0.3487099800144575
Ni 8.43278992142859 3.644167432136351 5.457338495847619 -0.40046088733450386 0.4330997564154476 0.10086771945135532
Ni 7.847576319520506 1.7289055739574768 6.876446051523348 1.3676723585041024 -0.9395335456383561 0.3571884497991139
Ni 3.91714296029121 8.635797812795245 8.904556387302078 -0.9410785215279727 0.573747069757586 -2.55517440587078
Ni 4.730319153417571 5.15905488676206 11.91310299563858 0.048005324234685065 0.034605762999327494 0.4180107232928091
Ni 5.35725715882711 1.880450642368384 2.1738196199942683 -1.376670962458287 0.03418513052214112 -0.7708835764357046
Ni 2.557016432739486 7.782477892459449 7.009949607773599 -0.6688514043626029 0.8804483094404256 0.6009714526911779
Ni 8.787315628166635 0.4603483507502627 0.7737710232878525 0.5249367331231024 -0.4617930105850821 -0.36872961766949397
Ni 5.176605844211398 0.5782722527429487 10.402480641697377 1.0649686700164307 0.2080351558684933 1.7935231466666208
Ni 6.629501718281056 5.812355665731631 7.137522902624818 0.4341431100782975 -0.4014772444141602 0.8770197433748508
Ni 4.726712667854741 3.543776318899993 7.827750641706097 -1.1393324296399863 0.05328894123112758 1.3555020416901558
Ni 4.378745859293933 6.937415643097487 10.235245998436184 -0.724102611526424 -1.1962222008484946 1.4518855001179125
Ni 4.089918146486333 5.92983443474553 6.5398074230553584 0.6907880565346941 0.03539817699363581 1.2559543266018047
Ni 8.063029765600202 7.342168701666482 -0.0724785501624255 1.5517432902475146 0.1998276803570365 -0.10843884693039389
Ni 0.3673273678341155 0.8417137592398977 10.81961203081527 -0.7143671294062149 -0.8691691369821807 0.11761434278207486
Ni 7.0101358368769695 3.3508338834618403 8.045151771676652 -1.3715143579580122 0.3034058567610194 1.4165330887605474
Ni 0.20828407981726405 2.5297543088753733 8.77384445073308 -1.8919236355244062 0.1950901656720511 0.5719318709257183
Ni 2.00407042962025 2.8333531691015166 4.052577848608609 -0.1904873767927171 -0.13579846989026934 -0.6759509915218617
Ni 0.5540697367820123 6.630437405971161 2.8387456371874 -0.8747713136603064 0.0214154895612986 -0.6839530358907318
Ni 1.1687284310195687 0.543440142935495 8.669126463255978 2.5139097427940382 -1.2600848038304104 -1.3605876837431794
Ni 8.798425783943312 6.379636767637129 6.078627854599809 -1.4936399583468793 -0.6589557425154458 -0.1528605675788787
Ni 8.815377174523263 4.480390612348102 7.6454114555095956 1.6531260016620757 1.6761810837093263 -0.06432900109537308
Ni 0.1888372192521502 5.411572466585701 12.022222348997778 -2.5390620736899496 -0.5440950512191081 0.4979866868968198
Ni 6.470334883151725 4.405090464160954 2.0081402168548794 -1.5164525853660207 0.31615595733783614 0.7354141798845012
Ni 6.702957744127514 2.86292271697812 3.8972155377959354 -0.038556520116959404 -0.8304323825336151 0.9270639524164357
P 1.2787126141661251 3.7583849207546427 13.090119075975455 -0.4663423205186614 1.1484199937635513 0.6725057132857386
Ni 5.751408785023756 1.6776698596643755 12.821369585815125 1.131376150907387 1.409717865610927 -0.1470521884272177
P 1.2905676863562843 8.309996809708757 12.236019718709453 -1.0693835112546746 0.45595146420264054 -0.6990364125864155
Ni 3.8031889177215885 3.9351844724518656 2.900199424430303 1.5280570023741682 -0.49529474188695344 -0.8526965932484539
P 3.3222454450078702 2.0392722723304924 9.016520957986915 0.04379719969060845 -0.3858562500474516 0.14121167048604066
P 5.5272888723774605 8.337522379621541 12.23604606331432 -0.7066540770326734 -0.5442778566538755 0.5059378234230965
P 7.4944768551838825 1.0031026255245645 2.9035233868168007 0.6932478309290964 -0.1878136866152959 0.3716159380783535
Ni 2.0604842214216967 3.705023469379168 8.22497822762963 1.166479165258107 0.2530178912267707 -0.3015482347269903
