# total energy = -381174.75155887654 ev
CRYSTAL
PRIMVEC
9.16952891252770 0.00000000000000 0.00000000000000
0.00000000000000 9.16952891252770 0.00000000000000
0.00000000000000 0.00000000000000 13.42053243367249
PRIMCOORD
 96 1
Ni 0.9476066034390803 2.499870267772269 12.709002525882921 0.7498496385835408 -0.4720064607829742 0.37172418152144365
Ni 4.276824063131954 8.189086004595957 11.724969052768854 0.4319216769469465 -0.9056857438509757 0.4126967672790634
Ni 2.9611434085365484 8.9136438226441 4.286839939320341 0.7002754271998392 -1.5120171753024862 -0.5639663362217384
Ni 3.5702660299028204 2.527754804519395 1.4858680240397768 -1.2884929226594584 -1.446500067436283 0.969157796262692
Ni -0.14636676781277522 1.4680782214277746 6.136766677902973 1.2409622240683469 -0.26769554784360344 -0.11228161771525179
Ni 7.798161487943467 7.281531902475998 3.5995608401625105 0.6239699704688803 -1.4318375803281018 -1.9959047037937627
Ni 1.7043219586040175 4.238972248698499 0.7224167330989638 3.856614632719526 -0.27890067253080353 2.201190064831261
Ni 3.0004806866178275 2.0137568737860345 8.437286807184318 0.34977056006848795 1.523963034810453 -0.639251579218299
Ni 4.298995983505039 4.783807304417254 10.87245596356514 -0.8240048817407163 0.2785661720095203 -0.46740110080047886
Ni 7.727446082684067 6.3605536103534766 12.375247269755688 -1.2084853344865638 -0.31131045632007676 -0.8767153247605546
Ni 5.893301936883137 2.5264710705027564 0.6424932871287896 -0.7421453279607476 -0.8373527638025321 -0.05106596543787979
Ni 3.8940695965424985 6.828566354705107 2.241550890274189 -1.1213542478950107 0.39772960444626987 -0.2720476541647121
Ni 3.2300123287927893 4.448844421361511 3.021566017841115 0.8931086785169134 -0.14433736059921595 0.20405868771924857
Ni 3.060201826977588 0.7059959411204195 6.505804446524645 0.4161538725897284 -0.13462141886303264 -0.07304555503276453
Ni 8.554583418190315 8.149482810182661 6.641807813011671 -0.9106042641985157 0.10154340536214126 -0.9328854441942191
Ni 6.1469311004561416 7.810677894605693 7.82658610993045 0.7710157311381947 0.5994717282171999 -2.6808255029144026
Ni 2.942217501319821 7.844440099243284 8.39169774444201 0.37474831305974815 0.7866848051340194 0.6635955552803023
Ni 8.303952690499033 9.010556571371616 8.924345579578521 0.3471567765947247 0.4043072576637876 -0.46982770796410056
Ni 6.322564252989667 8.312975506730263 1.442640114935214 0.5787553216054548 -0.24472968307604948 -0.23566988686662638
Ni 7.533519720413444 -0.056568656396043984 4.763858994751561 0.24545139173342242 1.693166562523729 0.4029432874367253
Ni 8.774111104564188 2.1625783244291963 3.8436399396045933 0.020481922003435696 -0.09722729448529062 -0.3193744642751339
Ni 1.4871875192183075 5.493262908712514 7.1617329270904255 0.47870906961413046 -1.1410519834342543 -0.4846228639954041
Ni 2.2342932083158367 6.147316220661133 10.364368711025529 0.11491057069766661 3.121229249190431 -0.7694314173702104
Ni 3.6551942046321466 6.3325773783194474 6.488250300799983 0.3602575756427408 0.19873444729285775 1.1900119582727249
P 7.7081809029057995 5.966630657819266 6.92786684870357 -0.460523142733723 0.09036707703034759 1.0381363803149348
Ni 0.9064042432221989 7.10713663631566 12.44916742529234 2.5081838960538545 -1.0337750180224452 1.1556589347141515
P 1.7896811011817866 6.509375060996637 1.1119062185114261 0.21691677462883932 -0.27609714164373744 -0.6628321947517165
Ni 8.63312960095121 3.320964883871626 1.708071378885471 -1.1411643406424024 -0.15151485218426164 -0.09800582452252798
P 4.778745724580222 0.3779780590946912 8.071738961182165 -0.5466185889719103 0.14942454531413624 0.45834259014263645
P 2.8523744592125073 2.790819413114692 10.715167370129377 1.1710382453836994 -0.6625784268696976 0.6573554879078614
P 4.299958784017518 0.646607654652116 13.36772221098202 -0.22954911868086916 0.28219528412167527 -0.4151709398511689
Ni 4.254569617000657 0.2208297594478907 2.1098416140728187 -1.0208927627431386 -0.20118393727461478 -0.5787321816770032
Ni 7.047287122554235 5.157163004099178 1.074679765934648 0.8690956034317678 -0.8988247550650842 0.9843620148069564
Ni 8.635385305009018 4.5216138010475335 8.408674209859186 -0.29917202118532993 0.9551578824391744 -0.7898943132102525
Ni 7.798473251918937 2.7183617974041394 12.841462786484025 -0.16633906168128773 0.4090563423129987 -0.9479562224844126
Ni 8.547000217963458 7.221691558243265 0.9620110160586332 0.08753243579502991 1.0908491373276181 0.24285174932704626
Ni 8.026803685835473 0.992023800414772 10.977257257824899 -1.4149099513348278 1.763303171439815 0.3151064330273992
Ni 4.613969294015981 4.466926731938734 0.9900349296418514 0.25315724501811243 2.1742582734374234 1.2639273175049524
Ni 7.528118868014871 4.547664432056604 3.7529441313290843 1.4499625720635867 -0.5096569241458964 -0.7201881069633661
Ni 8.802564152090111 0.16304705745325432 2.5105656060366055 -0.5569809060428408 -0.1892776727553321 -0.3626749268349818
Ni 8.676978287148106 3.493984720728424 10.765708895317305 -0.9606888395597325 -1.6892083492069294 0.24749053365063828
Ni 5.617289953777173 3.1064712687487157 2.9458605550684673 -0.5222561009671457 3.6452151883644897 -0.8834397879685818
Ni 5.469266252130065 6.468543149738844 0.13476456316097038 -0.8574677893848524 2.577801399241677 -0.09123636700917835
Ni 4.8187615477845815 6.640196726820791 9.108985043191634 -0.24775818548972814 -0.7739994963568669 1.6580280669493832
Ni 4.800147404543323 2.2983240271600263 6.679747654920552 0.34797130207622007 -0.041113996431490475 -0.020139708172668542
Ni 6.803496863265896 3.1213442442843413 7.530421336669 0.26579036040109066 0.8940432745160409 1.4865599115716461
Ni 9.005476652477205 6.067522981998361 5.249736731850455 0.19266175873621658 0.12366029186583864 -0.6574956130301515
Ni 1.5704468397260039 4.47182326025934 11.593407405979397 1.2612310016197117 -1.6405515074311745 1.870382933239153
Ni 8.622914745990244 8.069029365454188 11.21731001721908 -0.03957441985851248 -0.13093959913607128 -2.936154558772853
Ni 8.237418590322397 3.845223517209404 5.826725656874528 1.4085678111668838 0.6201901917114738 0.6458012074113588
Ni 0.6369127119678883 7.303529601803968 8.185464040763298 -0.013168161950841839 -0.6603027434616434 2.4285056661959206
Ni 6.261220106051728 1.1687848049772014 2.7970941215974467 2.455637746526022 -2.3047746689931468 -0.059028157707749954
Ni 5.830985819904029 5.834094290130033 3.0535465830541866 -0.13678757327641602 0.13166207912439262 -1.0310640468491856
Ni 4.305084550555381 1.6471224386340826 4.139804712866045 0.519523532527331 0.29072980395524767 0.9853048383361999
Ni 5.6492274222054 5.1348627103244295 7.471371405809367 -0.018662095185877536 0.3375691329062896 -0.8512302931155726
Ni 0.12586186775558247 5.612145848181928 2.3895259934192388 0.5572868673190338 -0.2980728745838802 0.4183835332511956
P 5.783551847989237 6.5541682086486315 11.047956157932656 0.6078589238396305 0.450849624199701 1.0741230828221888
Ni 2.114355773047041 6.168855443554589 4.467829013561857 0.7067126981847507 -0.15777548838199276 0.3170735840560991
P 3.2326623225842788 5.24029395120521 8.72556028405492 0.6897701567931411 -0.3208137678248216 -1.8025124946494246
Ni 3.194443727003213 5.819056263077981 12.711914768194951 -0.007760617782025344 0.6926461927893555 1.654042599939074
P 1.0100510938198524 3.282581236774135 6.78861471820158 0.446764912607366 -0.13442884323625234 0.33040321128546973
P 7.6795994819782125 1.3166709636939553 0.9795110615640228 -0.011763825404147481 -1.3566726649594893 0.6225113836454828
P 6.970758236105201 2.3692778401653736 9.803832671330419 -0.7696057381645456 0.8004065255954861 -1.0660742443757834
Ni 9.147356769901828 0.3185650148989239 12.96685058960632 -2.0795902550388767 -0.39780030978320524 1.0116894989773157
Ni 6.821744225359543 2.233706358479659 5.142680650485757 -1.8413438656943253 -0.21383325060750913 -0.8503553467097872
Ni 1.027913335708508 1.430373119453364 10.528394157190036 1.5544686595984776 -0.23852252582407307 -0.4388855098592893
Ni 4.870028382691909 3.323578199548354 9.11353404637488 -1.048044383457266 -1.3856132592532393 -0.6759947002756035
Ni 5.447965436982557 4.250131565114564 4.843161663629403 -1.100016662759499 0.29114657977769215 1.9065904935079614
Ni 9.047940739841867 2.099189372593326 8.518508658417035 -1.8746620202304811 1.819808048505079 -0.027059832331269528
Ni 6.987501795493643 1.0088590550901166 7.116183293321485 -0.10744742955140206 -2.1855551865074814 1.122476277314596
Ni 3.9974927106401092 3.1860169301368506 12.705512603263402 -1.5934396415450365 -0.5462956584148527 -2.01464650317764
Ni 3.6231008542161844 0.6925800036936783 10.18219768453584 -0.3053727506794031 -0.528334960171374 -0.29521612186137547
Ni 1.595974807599729 0.6215968481965222 1.1793856970960281 0.9746185622669471 0.6910767914197066 1.5581718194816778
Ni 6.201627339093632 6.755705279732183 5.423934853143953 0.7120613640911736 -0.30218663964193765 1.2079348612997325
Ni 5.397542198714734 1.7348473196139427 11.422523152354565 0.9210575983213556 -0.15139838121105537 0.1436660455638042
Ni 1.1394423131683218 4.051061097248695 3.9642375809390895 -0.8804961319592256 0.035062648031087995 0.7099049798698032
Ni 2.161918118363497 0.2700343673527749 12.41362999990031 2.1939835197804927 0.29167982657334285 -0.044578557941323226
Ni 6.0458003685311 4.696256644482509 12.371999422693593 0.733514134648311 -2.2554665667866387 -0.6000054892334827
Ni 1.5919677235620788 3.7944610063800424 9.274715104739663 0.16141385646552844 0.38505637985397556 -1.1690253287187284
Ni 5.295136902301744 9.086471099398402 5.932197243681546 -0.5617443888697551 0.16770046080518858 -0.8447495704872355
Ni 5.62489149306141 8.219354618802555 3.718051323803981 -1.5303267722449516 -0.07051121864668503 -0.21163752850777098
Ni 1.3989949922752436 7.721907687355141 2.8791742407155736 -0.24061566090767594 0.31176374180741145 -0.3922503264992535
Ni 1.3482416509745718 0.5339801676552073 8.19807947833538 0.010410653810362717 -2.5330955716938695 -0.5611764321814271
Ni 6.681193689595009 8.706705899161976 12.420581419600406 -0.7426001561099791 0.1379273433078141 0.8401524380348563
Ni 9.11704230805178 4.7391241911095445 13.237073849250116 -2.981943077861877 1.2355639358709107 -1.3145798495544974
Ni 6.5520408779924875 4.608531763502649 9.728691134572223 0.8819603752095779 0.46683108722962185 1.220984238284523
Ni 7.566823448616522 6.735156365937278 9.272929797503666 0.8692771233149545 -0.6314619079705512 0.8421008200104787
Ni 3.109827316249356 3.8520639856123493 6.083044243212389 -0.7393690507671912 -0.13353461355675714 -0.2556069921101856
P 1.7535348190847229 8.47462512801112 10.574332578975445 0.10822544536800716 -1.0592808756030339 -1.1121746382782716
Ni 2.0499398339978594 1.8536935809685957 4.660990637139712 -1.1934011864599319 0.8513390507792951 -0.1691238235152765
P 1.3707345048518162 2.627014952591621 2.2448253289694864 1.4815979395806806 -0.6993598573641051 0.8919249426214575
Ni 1.857737343121007 7.958839139183155 6.214927740458875 -1.3036997123068839 -0.5813454509301343 -0.35240439814690927
P 4.303067254243521 6.243495407093426 4.520464859102641 -0.47085306390482135 -0.26195941669077466 -1.4081011559431105
P 0.7450819741155854 9.089817977370354 4.623011366257462 -0.5652773417236782 0.45962119974474397 -0.05965190733467791
P 0.13735495501597306 5.375737059489261 10.383062629166393 -1.1177665305437523 2.9496099129468103 -0.9007440835749843
Ni 6.252692444369773 8.78426177282432 9.943473589848875 -1.3776271557239694 0.15342363917120028 0.8907887721344852
