# total energy = -381163.58526804973 ev
CRYSTAL
PRIMVEC
9.25811040297886 0.00000000000000 0.00000000000000

0.00000000000000 9.25811040297886 0.00000000000000

0.00000000000000 0.00000000000000 13.55018039890545

PRIMCOORD
 96 1
Ni 4.454613840090182 7.152853057226596 2.728071625985322 -0.7551597379425447 -0.07719917218982189 0.4421711225890965
Ni 5.212927139285262 0.16705611984990223 3.773155817814792 0.5177967796442114 -0.9163887320907766 -0.8925209243342436
Ni 4.69750962215887 8.196399476933731 7.9919915110418955 -0.4744304968434346 3.143944688510076 -1.3559129039753293
Ni 7.40354416817552 7.422875102500852 9.032252227400342 -0.3256276442736973 -1.172546968718742 0.1152088186643758
Ni 0.5271984624946803 7.678426721362036 11.98497190003518 -0.4129273952326308 -2.708391071237497 2.992242917125989
Ni 1.4793256719549295 0.9393556462888908 3.9568283940474083 -2.8539386500947304 -0.03935767586201609 0.4795912151087676
Ni 2.2663854036596636 2.2099109307743534 2.1828661389395063 -0.9778722933175547 1.2148174473521787 -1.1920613846025858
Ni 3.886693579401069 5.67329593251394 11.166974341110636 0.18176028133236438 -0.34538657206817935 0.3029574563696912
Ni 6.66258982580994 1.3794028873891664 1.1188074500316032 0.7614836232780434 1.3349704973957073 -0.21666557784998172
Ni 8.53863478261871 3.560011899035322 7.087110290110879 0.4112533499643175 -0.0029971349551109676 -0.2956429249861489
Ni 5.374120097876433 5.496669704037555 1.237559379343947 0.023188522301321356 1.9419241358122494 0.35761808113736476
Ni 6.18437139590538 8.503546544547346 1.6497073050278486 0.6171202945368984 -1.2776444099807285 0.48088036623383634
Ni 3.824367980800428 1.7453482135756677 8.126760896999958 0.9201762241576669 -0.729351261519873 2.760145835212285
Ni 4.695287675684694 4.058653720281684 8.634160890598697 -1.2808932559353294 -0.3262997306400574 0.6599175922080828
Ni 3.7032256074062837 0.8430453763657259 11.865811688058207 0.5772998201058509 -0.17528675779287875 0.37084949222597424
Ni 3.7543303763123346 4.469075008392944 2.564873360701208 -1.5758633232241699 0.6675452839566697 1.9834227692766682
Ni 2.7224584337049347 0.16793749195132546 9.89939553908954 0.36798451197335336 -0.25205655575476593 -0.6836923260301774
Ni 4.80173742801835 6.444765006458206 9.01459608522992 0.35412472327212563 -3.0653674050258046 1.8857280482366554
Ni 4.917982261058998 0.3151025618021967 5.930412172017356 -0.2810740260330385 0.3086822746686103 1.363184240825762
Ni 0.19807078938527756 7.817761281513498 7.592084658808644 0.35127722652100146 0.7538939838562436 1.1567344271665174
Ni 8.60762622064188 6.636935602143515 5.721102962527903 0.19798214250786547 0.6412053605105602 -0.4122853907732577
Ni 2.8110863236936354 9.295050169200431 2.4948052044490945 -0.8092058690546708 -2.9216501945090907 -1.3639715126137477
Ni 1.3560076426381535 4.609937156745403 2.099708866332433 0.4508339404704171 -0.2559520341544302 0.38674739440315326
Ni 7.271958646352746 1.8515665131515964 3.629036666255604 -0.4950291469303927 -0.19575248184639835 0.6160538009455971
P 8.947408127094956 3.3749978226189223 3.8860834699317017 0.20556535417176214 0.102178724953295 0.11161827309964004
Ni 0.20856300579854345 3.1911039775499193 9.214081513870422 1.4326500489270682 -0.7653695885960109 1.2272021941697768
P 2.242092122208671 2.164527674039306 10.439140592675068 -3.7551013092643712 -1.7069759576029957 -1.8624899036443214
Ni 3.8441710787515233 5.065982412459746 5.596848012447849 0.5335764110759714 0.46896947372886333 0.4562355711019626
P 1.0913182689019207 1.1059923737417923 0.5692543543846492 0.6082273629226428 0.4624908079830551 0.41441966350744114
P 0.37994173735174924 8.06181432737082 10.037539506255255 -1.0729452604640037 0.9024099013131814 -2.823180028755635
P 3.065202935456914 1.3419538311889894 5.164366499092143 1.298199351313945 -0.05090784259346071 0.4474133448246424
Ni 0.05377388210815533 5.51657464120205 3.896530321604453 -0.07360656974255711 -0.46082139070043215 -0.8276093112625231
Ni 8.270964297362958 5.069435687605029 12.231842188859552 0.17420818001671934 -0.015755463062043833 -1.1178426351973265
Ni 0.3494816286238871 5.866614533877574 10.414776949585727 0.36596568177111166 -0.19089309687156802 0.854364210758864
Ni 7.431920276272811 7.659753112868647 11.575132947062361 0.20360463090096545 -0.37467349395775473 -0.20932122166976855
Ni 7.073862860069634 2.6229430059927705 8.734161443291056 0.12097837415830132 -0.12760050746050927 0.20790608648979678
Ni 8.63560422999588 0.2009667262899538 2.507230514294894 -0.9517995074899028 -1.238089530506242 0.7169320619199138
Ni 6.311800026199382 3.7547377331659333 10.703937360490885 0.08230795417129697 -1.5464437324114721 0.6292103929322131
Ni 3.1522106561415275 8.37833986072752 4.5546893834760445 1.3833995394313723 0.36956059821122156 -0.01982243404256586
Ni 5.921135545487671 9.210356976093085 12.977468173687088 -0.5864616891107771 -0.7400118265575126 -0.26776213941548077
Ni 1.0890778062071265 1.91882668454697 6.144139351746297 0.03448414981979868 1.6758692088958622 -0.7487790312271814
Ni 0.34717913659002203 3.468162186659066 0.2332932700561239 2.4661846688039333 0.38844406537928583 -1.654716743187963
Ni 8.894831318649764 2.3034919097784052 1.9812124608646198 0.4620429218123592 1.3320651508234544 -0.1227282669698725
Ni 7.022535896516166 6.472872629356535 0.07640903600279386 0.8847369095134504 0.7609748019624248 0.7013871722067792
Ni 5.065047343318532 2.8067813023999193 4.029973020355225 -0.19060847575161366 0.5537048063947303 0.4277251223670956
Ni 4.450410658009865 1.3636085512018976 2.122486595125831 1.6475760183781236 0.8065607181223399 -1.0090695448559652
Ni 5.299027565159588 4.48936878619042 12.714675786753181 0.5077643351088739 0.6709368261367219 0.07184819229055368
Ni 2.5795317267535545 0.1990123392037097 7.012963936267621 1.2673743955132883 -3.0206926878262492 -1.9690263913456798
Ni 0.7151899471864763 7.759749962316882 3.506176913399127 0.36268906790236893 0.08779391698653266 1.0990864376357459
Ni 5.892185434551218 4.511125345416728 6.981865943739464 -0.9064272500026905 -1.1920387588947663 -1.197998318912311
Ni 2.4934868495410836 5.112874741175173 9.575749593094136 -0.7427950457296046 -1.5225293876877197 -1.102728148153391
Ni 7.461953586115425 3.6000161936808013 0.23627623319770538 -2.1985395145822912 -0.6928076580678842 -0.11263694417214151
Ni 2.422403078588065 3.3213378152675683 4.254892329636797 -0.45313739179261314 -0.08113090314406028 0.48305063441227775
Ni 1.2454565474375814 4.761946069909978 5.863365862970122 -0.4839386934441859 0.5315537242189877 -0.184374836137076
Ni 7.705330789920185 4.726543056088105 9.28921755970572 -1.2507933512261555 2.0855274464589177 0.014754789711671363
Ni 8.800704111137478 9.447901570403133 5.5755469522487475 1.5810633793678706 -2.2102496039303676 -2.648907056939251
P 5.5612450234433 5.082156331169688 3.6925593385192066 0.3177523552906786 0.31773384334791727 0.03384985866990945
Ni 2.873643375052003 7.792588479583144 11.720946332808108 0.32672679087514694 -0.12487693788175912 -0.02669422146173467
P 8.370433434523576 1.4129265048182988 7.043654571942179 -0.7187621731501169 1.2127451382041823 3.186088154647345
Ni 1.2830537334027035 1.1997955473932616 8.286463299831368 -2.365724469203642 1.3335108821310453 2.6513295503378145
P 5.4943181440190525 1.6093095406942337 9.897187479780825 0.2950968226746918 -0.9299692989886887 0.09140760247972
P 6.05305435928157 5.819768495713693 10.884452921108108 1.0214139253539312 1.770933948512195 -0.047711447143350086
P 3.405632909631626 7.017888325141014 6.758911205465475 0.8035548414164806 -0.2576281363052724 0.3476123760749045
Ni 7.131003916897198 8.287249313396607 6.789819406732296 0.0016020543797972409 -2.017639781478009 -1.1233414535283686
Ni 3.2339412539499732 4.461344486284874 0.33432332461485126 -1.001718760917849 2.300955809467689 0.07012272495901471
Ni 3.9849961946627452 3.103772223004488 10.502975263256085 1.7089104556215473 0.6326266177026137 0.9638142725625916
Ni 6.608587268377151 2.297427847525966 6.030968211328259 -0.14157059648735618 -0.3149987038049414 -0.3247575829639181
Ni 3.9569626366468893 8.550124097512263 0.5615266097096707 -1.1350798250112193 0.041127109057613034 0.34266531648227433
Ni 7.43739181946547 4.456817270343739 5.280179904192389 -0.09619448234540208 0.5420281413877504 -2.5617399749034395
Ni 8.65407416006247 9.231076626964777 13.428350181282063 -0.7692411557362752 -0.5715724307037705 1.2596849972888307
Ni 2.243999292932339 7.385092754329548 9.03904027387895 0.11350186327559808 -0.5247624123287672 -1.2150614450421848
Ni 4.942803254797607 7.056800162770024 12.747088430945228 0.6732593036223115 -0.7055950396405397 -0.3350183414599779
Ni 2.4481869157988174 5.966731738759828 3.959715072841775 -0.3752280809096441 0.48379342611557324 -0.7941566880310322
Ni 4.198534508941382 2.7762387964903064 6.279546621504653 0.4763382553891086 0.831606091126742 -0.908511900445861
Ni 0.25488688654099234 5.304850916543991 8.230691517518515 2.0876221242044175 1.8445243203048363 -2.375632472345973
Ni 1.6495823205386762 7.415089031730926 5.730520312334285 -2.357585385036275 -1.1885955375411725 1.2862900014708687
Ni 5.527823245227567 2.2624044162267647 12.432059934025503 0.39802939507487584 -0.4457277295921033 0.2281404112588006
Ni 1.220644811809281 0.4845398676235911 11.909686798623909 0.9057983581694401 2.3611792730351207 0.021633261999059517
Ni 5.986516320490304 7.036774870171511 5.044718384701881 -0.7010395590593734 -0.7277877736874949 -0.4333522387458859
Ni 3.5426159097645846 2.254201730492931 0.24046275067946557 0.1381363739948266 -1.0329412092672403 -0.45603399661411786
Ni 2.2859292745221045 3.3798583305311825 12.088292411084371 -1.4455081358366588 1.0428620679253782 0.5569557092318601
Ni 5.398376346886188 8.35093585421268 10.69732521810815 -1.1115994825010922 0.9411440846585857 -0.9279671809569955
Ni 7.5238255373109215 1.0962528416966535 11.968115658595464 -1.0637715643845358 0.3928303673724396 -1.057797606189288
Ni 7.491996154068348 4.705758598444249 2.3127990880721105 0.1519902491587834 0.2940321288556033 0.9137541226814071
Ni 0.8376275302128597 7.9697239041265275 1.2524853047842253 2.111211995709216 1.7402840848368222 -0.8008724094883111
Ni 2.308046900050466 3.5577066295683646 7.472910559666206 -0.15570112235146732 0.49873436369612173 1.1773996688253527
Ni 9.05050644349673 2.5169931916158057 11.53087825397399 1.1677886280981502 1.6503723501763385 -0.5252303531041213
Ni 5.398320798224335 3.3956341504978327 1.7153176811661464 1.8921810029508508 -2.207534261881734 -1.4934180721440602
P 7.278698550657748 5.878900046257706 7.1379910127474515 1.934464079989778 2.4376050573940278 1.6412639601171668
Ni 7.830833733269901 0.36404833938417347 9.757078015796495 0.7812165829305965 0.14705784485417253 0.0491396949494444
P 1.9594234982522298 5.714309361183109 12.280081572624947 -0.8029285206863913 -0.14093964777157664 -0.3129351364076933
Ni 0.0022099109307743537 5.990543598474749 0.7456380203709366 -0.5813063701620826 -1.340776048333891 -0.803043963218333
P 8.094106616128846 7.391397527450024 2.0756572215605074 -0.023613782764198045 -1.3255450903167492 -0.6638256690132375
P 2.596631456494402 6.678698937747717 1.5048697241086768 0.6173897461482012 -0.5900980003117837 0.790047293848349
P 7.141660001862935 8.808443891355857 4.41535297170252 -0.19953868836170796 0.0741668131214013 -0.07845104231905198
Ni 6.355322402762306 0.6918391413649468 7.806191421060256 -1.3245755273146285 0.747730535358009 1.7294923935379567
