# total energy = -340879.047193241 ev
CRYSTAL
PRIMVEC
9.19755064793942 0.00000000000000 0.00000000000000

0.00000000000000 9.19755064793942 0.00000000000000

0.00000000000000 0.00000000000000 13.46154507592323

PRIMCOORD
 96 1
Ni 1.0210385027673152 8.171987042434587 4.1955326715123755 0.9876391428963314 1.0519807423971947 -0.3772489679944149
Ni 8.455188827275041 7.688977665314767 8.049936463867658 0.005353808112745618 -0.6724128964616162 0.7520685006117305
Ni 6.080381226164163 7.324221198061261 5.108090662074803 0.8336179793504482 1.0987704490572239 -0.46905560568476634
Ni 2.172728213798689 2.618229979000113 1.7640414849449284 1.4312886498031674 0.6050816182048095 -0.33880274820307454
Ni 5.220649368277881 5.472726641413612 1.3341323275133081 -0.9681530091472617 0.5734467649083478 0.3323549356952018
Ni 6.67446022602223 3.8227780141352214 0.4506303194941403 -0.667038005302948 -1.6996249165545632 0.08709380559571452
Ni 7.239493360642852 6.385445589113991 9.92215494184305 0.5522896712147586 0.7488461370196909 -1.0955228886542034
Ni 4.382752495848752 2.4755851645708775 12.41766935935772 1.3921927122429698 0.17628357448850931 -0.6286172394329045
Ni 0.0564315725662889 1.3067236263076134 5.173890859825024 -0.022839880712650987 -0.07876086024998694 -1.6959816633750213
Ni 4.780877677187581 7.508310176125685 0.07541899631428771 1.9207282184609245 1.5989004075492914 -0.6146129547340125
Ni 3.7230857616625617 1.889241304885291 3.624979166937506 -0.012898710339539076 -0.5416051949177189 0.6367735499914516
Ni 8.837034343803776 6.63738489898862 5.6073797040047175 -0.530314709605564 0.2394689488977424 -0.4893709202033507
Ni 6.567980181103327 4.815221331651361 5.200787257454492 0.06768300516927053 -0.46466853236066424 0.4969212217467829
Ni 1.7253225555940512 3.344542165849547 4.762411754566549 -0.06468766998637246 -0.3217159679241169 -0.32264953548197983
Ni 1.8648677954238508 8.231863097753068 12.936746931705102 0.20129809425497588 0.5190450502290157 0.07860839383252269
Ni 0.8444114976183881 5.083771418162729 2.066495582994697 -1.8638914119775385 0.17484761337293112 0.6240306485034866
Ni 2.3990983326156563 5.6814006726065 5.180392608443248 -0.639379105935099 -0.09983207909798936 -0.8343599997227953
Ni 0.8124895582644938 7.446631400862132 1.623233421398504 0.37949405527484964 1.7913027419765344 -0.07010935522257604
Ni 7.267012432457428 5.1373287561227166 2.853470215750896 -0.3789230132627281 -1.1165226308343221 -0.6077589079266565
Ni 5.069496819413991 5.7246291610852795 8.594618177965515 -1.2613140482518213 0.5260860162361972 1.4516682419007838
Ni 7.863547178363119 2.6119204591923593 6.658928322087311 0.9694763559443754 0.715319208906839 -0.4681760312932905
Ni 4.64792708123848 5.8267679620548245 3.86964229442159 -0.07367393264538279 0.00016532193327068302 -0.3526620226836701
Ni 7.5817986065396115 3.5800638476529794 9.93091836818828 0.861290248454736 -0.8444371814531392 -0.8304784052802019
Ni 2.5939392474953347 1.0855133334558793 5.663757011021639 0.12301005987634944 0.9151013807379209 0.579945228148498
P 6.48614037461733 2.9798500814512225 11.687932924367722 0.09631043909797607 -0.8039770165555638 1.8778774418439852
P 1.2890275386835337 6.882674379678109 7.177117411033193 0.5295984002648298 0.24728304562552247 -0.02473864039726062
P 2.0420770055346305 6.326480091318787 11.941655639330868 0.6274319608755516 -0.44371532714776485 -1.4853841460959902
P 3.66485606792657 0.08541397470362619 9.412406445211419 0.704363995446916 1.2782848717782047 0.42021595847424403
P 5.979971564733771 6.940609751790415 7.2497421914326186 1.6610483418329456 2.1474144137717017 -0.4512486594103325
P 2.554748483791487 6.847236216676249 3.2382819423933342 0.050302862019610144 -0.3323557070261502 -0.6781762813079545
P 6.5628203551380935 1.984721079118955 2.2980071326754175 0.21380702535526405 0.01049215778057548 -0.7671580479550014
P 1.0153912066128532 2.357598983676027 6.776986243877935 0.3528211739693537 0.04967782684110154 1.2599451929287526
Ni 4.4304601915379935 5.86975731421436 6.219462909436659 0.3340078979175925 -0.7561812372285235 0.8525855215918865
Ni 5.187703741526605 3.574858033934045 2.7719477247654347 0.654901369940414 -0.007618692887522362 0.5304329803509832
Ni 3.57068234589801 6.9869838026223325 10.267484342423177 -0.6658830657628984 -0.39448564358767546 1.0090111808142042
Ni 0.9334962148224146 6.137010546071365 9.455160340072007 -0.3909884290676944 0.18776303588301857 0.22076571606128434
Ni 6.226245183352457 8.52150316811164 8.812842945846992 0.26246875222702537 0.725690524838834 0.5832740354114149
Ni 8.774077108987338 1.2061943967175983 8.482765843659282 -0.21546821510777087 -0.9491433008139782 0.2558515040208239
Ni 0.1343752965587522 6.6075296492860405 12.935548490843658 -1.0472679103025577 -0.39284090889540085 -0.13236861827311397
Ni 0.731367160736229 4.7794612543735955 6.636770502599178 -1.1752049751668792 -1.1430682425333347 0.2042252952040999
Ni 8.36203603337864 0.528263166271586 2.6684283714297914 -0.3421791208744752 -0.10748239655439554 0.5210741648439026
Ni 2.9540049638713555 3.7885355327295835 11.386703940076544 -0.940339072258787 1.5080764454871833 -3.034292795108187
Ni 2.50228565436958 0.4003684639643548 11.146105210264539 0.7454142285200066 1.4930792007474025 1.0157364153531796
Ni 7.164836841284924 1.1256146546830035 10.736215441773963 1.3885548583800669 -0.8081843697686921 -0.46584764027042996
Ni 0.5635265758093827 3.4829009216338647 8.791452202090586 -0.3881946683726411 1.1330211427099777 0.2559605187948624
Ni 4.373508957354885 1.7519678600883124 1.1406342550416946 0.29304405391072114 0.08851562564390561 1.2915777322323692
Ni 1.7308318884874108 4.673625038006504 13.354027851970473 0.3114156144393734 -0.5203159465216394 0.4690298946531535
Ni 6.367160858242541 4.16773215464515 7.664169111703317 0.25776954697914317 -0.8227928637104861 -0.26504756869779517
Ni 5.06222155677852 9.044475903197482 11.083227074384467 -0.2007118827342027 -1.2655993058907364 0.8054379173718065
Ni 0.3520454521305963 4.535891715672517 11.352066883744152 1.798534226727967 0.025273686965124217 -1.2208250869988393
Ni 2.8634826694866415 6.695228295593525 0.8956749664237776 -0.013680582810886117 -1.841952960033234 1.4494614640574521
Ni 3.483241231011251 3.3176669225867816 6.988843547381993 -0.6565985551371789 -0.512093301501531 -0.28571975233516594
Ni 2.8722571328927593 9.077495110354677 1.507248627544714 -0.17107529081469247 0.10059749650910417 0.21135856381477147
Ni 2.9553018185257187 7.991981776898798 5.690424389637677 0.5217776186688304 -0.5938986050047965 0.2689803280932981
Ni 4.253260178977954 8.415473803179005 3.338234485551941 -1.1539553217594836 -1.0183725674244462 0.5109692151994167
Ni 6.356712440601713 0.7400910376132765 4.223277083320086 1.1605080352763368 -1.0591204387657696 -1.1884777810163853
P 8.590521588865844 4.617023310751522 0.3227512530231674 1.3292608486054398 0.5486286774234036 0.6758869710531457
P 3.8940498348207684 0.2345338648539386 12.963656205905604 0.0015285208293844643 0.5724705170380076 0.09971972188984117
P 3.682460180043248 3.80882532966239 0.6412247251970835 0.7401313828545124 0.6485384038368638 0.16541012210911513
P 8.719756374315919 8.590907885996932 10.199771973874075 -0.8407885289569585 -0.043462184948692896 -0.6677031496907727
P 1.207022176284213 2.390590598181003 10.995053834458792 -0.9216654071086837 0.3585650184316663 -1.5975608628022615
P 1.6576009894942085 1.0233286929016165 3.0442743256107154 -0.7673382822866075 -0.4164804026912117 1.2140371175427285
P 4.620545972685005 0.20680049010711585 5.153254315229313 -1.4598214671355374 0.621700200598097 2.345572419735799
P 8.246146894052547 5.121564154154072 8.496025032806305 0.8781170902040878 -0.3146852863295806 -1.023307028611586
Ni 4.178373720851522 5.462526557642768 12.546389081966344 -0.810879657212668 -0.43583155352431396 -0.18930569777979012
Ni 6.113032531291753 1.1175943904375787 13.09724879089637 2.0097238690650423 -0.8448400733185127 -0.010150458170440583
Ni 5.599082593482014 2.2555429606631447 5.801912500934599 -0.267374674169075 0.6917887298850667 0.4108918528598407
Ni 8.384781576359071 7.095606876863694 3.0366146053543055 -1.6001671900768573 0.26417185096106116 1.539119430835917
Ni 5.08158240108657 1.9906259066941416 10.07221114265871 -0.7399956286075965 0.6999545535253107 -1.567726295939332
Ni 5.85806722722361 9.141730804723997 1.8743725443587385 1.0890827894558148 0.1073911223921699 -1.5152143420835453
Ni 4.0176925094208205 7.836579959592952 8.062859942412667 -0.9265561595420817 -1.5311981191063113 -2.157794214344129
Ni 7.231436306194467 6.933573625474188 0.8504873996373419 -0.3303250497493666 -1.0460672051262372 0.10733712922578287
Ni 7.583592128933945 2.745395315533649 4.125021488273041 0.021489280222027507 0.7475981235452027 -0.19842771468571632
Ni 1.5781893364036146 8.589215536660742 9.320006930720636 -1.0428690099039135 -0.7887303748091384 -1.431130012738116
Ni 2.0824542532839594 2.2542645011102618 12.86860411778136 -0.2538038774631758 -1.3568066194341923 1.4007071774718844
Ni 0.6320170571511032 0.9338365241998007 0.8926434536998189 0.4532384361468516 -0.4383895440594772 0.020830306481789934
Ni 0.2561370720324406 0.5383492004132521 12.06785799230191 -0.8415842853853763 -1.8459427979189178 -1.4805761831843856
Ni 7.300224788180168 7.837067429782181 11.884309830221008 0.06789872072450243 0.8995567481351023 0.3800522417711648
Ni 5.480268633020549 4.443217194414604 10.446347272157038 -1.0875853789746819 -0.3088349981963907 0.9913623573841894
Ni 3.012188669853646 4.677405231360712 2.6372247607887043 0.25014262656150466 0.3579932050885964 0.09108132948855283
Ni 0.825572154437306 8.968761665504434 6.749740339320342 0.28613447127508146 -0.3999134994714661 0.08583087972289088
Ni 7.109899870713911 0.08007295698881176 6.6182070859403 -0.024334720090622607 0.2625224882830963 -0.5248793975226057
Ni 4.439906076148144 1.1542006423834394 7.6584749080400805 0.33615168373347265 -0.44249765269057983 -0.10411219453058199
Ni 8.762810109330635 2.612196385714564 12.568640716472027 -1.385286729151756 1.439974093392307 0.7602381809067166
Ni 2.704806524117296 5.327340956863806 7.97412105311647 0.023023971698999054 0.8724241535843684 0.4836607571924509
Ni 2.2618984682245995 2.0251535121727247 9.013015680890742 1.3075242282592965 -0.9589016657523229 0.02769977990811358
Ni 0.08650296471126184 2.819601154905309 2.2636662374768592 -2.4492213014767175 0.603409115598393 0.7338455498458006
Ni 7.473157137196771 5.168352094769296 11.869730792542772 -1.6418571136164755 -0.22470490321469044 1.5143607358339983
P 6.576800632263146 1.8821959810183235 8.230510138039191 -0.08225138990174866 -0.6867737931689785 0.3596394824427677
P 8.734518443253885 4.5597777549447285 4.5136833096553115 0.5495817853652922 0.6023001988049304 -0.06563666416320309
P 5.977239892163942 7.158426148419028 2.703522546033969 0.7970635772651822 -1.3089437343146426 -0.16702503200471883
P 8.120315202376336 8.624865243329625 4.643237250116069 -0.2779095122621278 -0.45759568467428285 0.8855660902829653
P 5.5450653779850185 6.463744338565025 11.254713568424716 0.10187044968425682 1.8320164176458125 0.5088735090126526
P 8.242394293350559 8.718321556400452 0.4638122492149463 0.34726939091318904 0.5218470384541851 -0.5476632281863407
P 4.215531825841793 3.7670592517512955 5.011841052844186 -0.24636953267231765 1.0285027138799125 -1.5085353874014729
P 3.8584461159055854 3.7566476243134277 9.129350901427735 -0.4360300426883652 0.052210877675600405 0.09648141745820159
