# total energy = -340858.8402326476 ev
CRYSTAL
PRIMVEC
9.35916350777525 0.00000000000000 0.00000000000000

0.00000000000000 9.35916350777525 0.00000000000000

0.00000000000000 0.00000000000000 13.69808183237573

PRIMCOORD
 96 1
Ni 3.899561018212958 3.6226888821350953 12.798446545334441 -0.29116020662444697 0.46931194466994663 -0.1576908990879865
Ni 6.027245188159651 6.083297218818148 5.850615309482174 1.5271231777059895 1.1478620643775521 0.00017354946338679787
Ni 6.2966767891943505 1.0721951384651998 8.189123998148736 0.3675011445790316 -0.06386440275412872 -0.9091078821586472
Ni 3.205944046409339 7.670639438850387 5.385250554893864 -0.5286622616038057 0.43632083445590664 -1.619369731147237
Ni 6.854417424197158 7.48453247113554 10.121663056114944 -0.9346350798954742 -0.8977058109692927 -3.305676333326339
Ni 0.38806648669523963 4.032854225866709 8.64237986690202 -0.3405881222382715 0.4890927268412997 0.20569133822666508
Ni 4.344944894482212 4.712161036562156 5.774563682177467 -1.1374987188653571 -1.2773803576860647 0.5498049571196918
Ni 8.519272236968362 8.94336401610152 8.637640386466979 0.8053625840491808 -0.8206976717443544 0.03262472801355672
Ni 1.6111987279882425 4.664981492973998 10.814279533332257 0.5741247648119789 -1.643161691360512 1.426103763168118
Ni 2.096368408620373 1.2847323841195342 5.838300522048469 0.6687663008479643 -0.3138193387848595 -0.5224049678401842
Ni 3.8883393810849673 6.730502098446865 7.124002515514508 0.9480256422697674 -1.2491157064134166 1.9143883922858254
Ni 1.6119942568922285 8.684760967324607 3.8621327871549527 -0.766153517949887 0.7196456041963348 1.0694853269398614
Ni 7.09670745086057 1.828219012995628 0.5172987532732315 0.6813811613984975 0.16154986782276048 1.6917118323550737
Ni 2.572001101568248 8.951440974267872 1.690083374107496 -0.12091255391737242 -0.7691280271971787 -1.398243032202108
Ni 8.661175875112315 9.217475198924372 13.527896946722663 0.2606059879866737 0.7316950791617012 1.6357628277932796
Ni 8.699670114901663 5.759067715044178 10.087487134399705 2.694948829689662 1.4692070221154956 -0.031614541581487486
Ni 9.313135209837798 0.8839018701389284 10.593932065673496 0.06738090054781945 -0.10414356198914967 0.7323764214994419
Ni 2.387691093260052 7.556064558349247 11.380777537693413 0.015470841942089485 0.9170960425704463 -1.1076806070626601
Ni 4.853203631657089 2.412343130120042 6.315158329508482 -0.04023647892254361 -0.6438713373784976 -0.11669183096780548
Ni 7.123296834580855 1.0366864718566946 5.411139873178641 -0.3775302466802595 0.5391081395274779 0.5930388281076625
Ni 2.132391829225575 6.114266691092145 9.31228446186871 1.211120972337198 -0.3769610044403508 -1.1259305544117837
Ni 0.4342015476282828 3.1774641116466396 6.186218068834071 -0.5224918711270357 -1.0075435951297422 1.03461216921176
Ni 5.704438277249279 4.121223448354191 7.784921377531588 -1.7204513663816112 -0.10236975791817854 1.9485547537548893
Ni 7.221062657298948 4.933430381833185 0.6260438107826893 -0.7054050351169207 -3.09293888688617 0.6543951197279568
P 4.765124543240473 5.508017511273343 3.612320800725264 2.3292934800701177 2.452499200897041 0.05276675017907041
P 3.480850758136177 4.829169299593135 8.071895794773715 1.4712330514065888 0.9130835789769435 -0.7918077281828816
P 0.465124224084398 6.251191254213503 0.687703852256109 -0.8673238562433256 -0.5770535084229997 0.028542073303750845
P 0.9276625112726626 8.757753084056219 12.186005342893557 -3.294192501056456 0.9650252621515573 0.037816813737457454
P 8.370424099450792 2.4708659799626838 8.054308054581119 -0.6009058895605651 -0.8382986726555692 -1.5645710381398021
P 1.3887407689430236 2.6086422269694856 10.081103248924306 0.03156311951826177 -0.25499789777127696 1.666989132797413
P 5.691241856606687 7.7326345383798385 7.718006165710072 -0.12723052571560023 -0.9108618887352765 1.3935186301432452
P 8.675879121090693 3.1880961214693238 13.207964234946575 -1.5418609981367961 0.14947211072262 0.2060142687837226
Ni 9.063039640751747 0.46551730895460286 6.465179170222165 1.03752702886571 0.5145427914832881 -0.21766830808288318
Ni 0.5415165249432811 5.839818578380545 3.203803605699438 0.5024817465536959 -0.2970251500456562 -1.450896910952398
Ni 2.7294971062303257 5.472003449831717 4.249788406569192 -0.9348135144548675 -0.023408865842243554 -0.3379280589076051
Ni 7.9849388700698976 8.064604070431415 11.773240959436801 1.817831127284366 0.5528519714761319 0.47139505245122043
Ni 4.010888268953119 4.529460804389085 1.3395050171171503 3.4515941510387975 -0.17689729681310826 1.1537642887945998
Ni 2.242380719574324 5.060284484946437 0.20717912450689932 -1.9938254526672303 1.009648300177571 -1.4542002642940182
Ni 1.2486808860236034 2.6947746093622302 12.438378932394079 1.0718509989585605 -0.2608337877267637 -0.25937674356526297
Ni 5.087669397570708 7.406018447893909 11.672765658863367 -1.6132407354313636 -1.6176648326409884 0.12051351870674085
Ni 0.35625001011758717 3.6133110002316373 3.9112000740364525 -0.7693414287595653 -1.3185326635546581 0.14069050787524803
Ni 6.0275072447397875 8.075095692800454 4.471136368814261 0.592201934028664 0.34155717101976013 -1.0482894095885364
Ni 3.9965500303542183 7.121902319207986 0.4733303387081032 -0.3135830544043373 1.3759065734884368 -1.00801924921458
Ni 4.451143323582556 4.104957222058571 10.149675968615187 -0.82847088793187 1.33242407682477 0.5470525911855353
Ni 8.955493492096412 3.168554187921996 1.6047848931894 -0.022592797698851416 0.8526953076968733 0.3493234452287403
Ni 6.8921067759189425 6.530000737151661 2.536419433483847 -0.5459806982775952 -0.2003223606052679 0.6773722973494204
Ni 8.389469997328575 3.2016481903278144 11.06741963832968 0.6303864155181852 0.6531820732564622 -0.887676965978381
Ni 6.063820799415855 8.586873475480022 13.310439588776266 3.2281444603874467 -2.427407805146052 -2.577383852088284
Ni 6.395556352378025 3.377179303201435 12.520061032506291 -0.7709923340994269 1.1956570723736442 -0.4441143623583964
Ni 4.004037361215262 2.1082171097079767 11.000217100186372 -1.5152390246738936 -1.9971038663081864 1.4008730136257872
Ni 1.8337970744871062 7.829267902305198 7.647598114041879 -1.30387994663849 1.2943246988498869 -2.754095258142831
Ni 1.604572440176218 5.088034404950184 6.829246889675041 1.4878030399501279 0.7660712426487258 -0.17816279378909317
Ni 3.078425442682169 2.888939816916276 8.568848662348415 0.568808237695072 -0.3429373391967384 0.4891058394674221
Ni 0.2119242204400865 7.881772809968275 2.073930749862537 -0.730279172650781 0.71400151853668 -1.306487559464666
Ni 4.43608442938828 7.8227445652925125 2.681125205202546 0.23147796027246587 -1.111179364244538 1.2145312835703277
Ni 4.320433245075866 3.513589112326096 3.6135262609938925 0.19861437677522567 -1.5313665263633756 -0.38277272602612145
P 4.766060459598103 0.745225271596086 12.947166462311019 -0.43051502640740696 2.0521108186716854 -1.7906710219298065
P 0.9671291681575878 7.782425288605786 9.5554121336722 -1.7604813857203034 1.9098380539109818 0.07458204628194898
P 5.589947629220326 2.667782781608164 1.7953252966903426 -0.6140041175054199 0.0737847471916342 0.7180440640371698
P 0.2808975123320317 1.4086196323790978 4.337058863252816 -0.15710803000132298 -1.1075710780679893 0.6669593295462126
P 6.9477002075622005 4.772331099194228 10.139306951288997 -2.776703739570966 -1.7308882454442192 -1.7951054035520762
P 1.1812668307834706 6.846742910064587 5.19975099689512 -0.2509664080143807 0.6693126602697376 0.20707382039648853
P 7.112683543085325 0.2824024658351017 10.156853511161856 1.1736162905235208 0.35414734897994493 -0.7816341300839894
P 3.3998659157104005 5.8713121638148165 11.526168400185897 1.7558824534957116 -3.5941723628550615 -0.22674841600728046
Ni 5.33593992975938 0.14346100296304998 1.2307796138512026 -1.439565545099979 2.5015321950652916 4.574723745666676
Ni 7.282795700248263 8.199226279313 6.511013802004409 1.0966770568633049 -0.1888786375447005 -0.011387158791019097
Ni 2.3533148854442794 0.3861356912494477 10.34779167911479 -0.6441808981991164 0.7748600445849494 -0.051633150795259465
Ni 5.070925853932697 9.260415041412465 10.168730289740187 -0.33913879138625463 1.247781303872709 0.8929970926397137
Ni 7.089716155669069 1.2407068786565905 12.027491061234375 -0.09581215930531886 -1.3043229477131792 -0.5611190965809304
Ni 7.127658204807413 5.769325358323808 11.949918569848519 -1.149091051688647 0.3772209429699568 0.8179915856671008
Ni 8.452017287509028 7.4478726274071505 4.19711971354353 -0.1612405641124578 1.409717865610927 0.7064280770647963
Ni 6.003210856095698 2.452185089464377 10.150497703177185 2.2808520967392782 0.1717535478286397 -0.6147026862343413
Ni 3.4883287298336456 8.301409627239112 8.942354162351636 1.28459307338442 -0.7908692755290121 0.20691184089732753
Ni 2.6615027828484625 0.13555906115557476 12.955070275951208 1.1031462095274165 1.192725500549146 0.8989607664223163
Ni 1.195258780330048 1.7495271656460463 8.172973825481462 -1.4421163365462903 -2.1103563325771395 -0.9854526767679738
Ni 5.601281576311234 1.4173423728322148 3.6321144957727935 -2.667386860910993 -0.7195170490382705 0.13212924856879824
Ni 8.857737028541896 5.467679516259464 5.439001167228947 -1.0943774621958509 -2.042693124902211 -0.9902763234088623
Ni 0.4270399156596934 0.9172813270338239 1.6590708496810482 0.45844569137940405 0.2287780448427995 0.6513306218700202
Ni 7.726551082055239 6.915944565547794 0.23221769482259094 1.6838324296069969 2.4654251649300893 0.03207014106166735
Ni 2.048702188526246 3.851473635757898 2.3497827371105817 -0.3508707351112022 -0.2356727150801038 -0.3228287413723214
Ni 7.431054210460528 5.726497825798631 7.99250201015591 -1.0058086147165064 0.15772303787750255 0.09927312127072581
Ni 9.272675545697425 6.726019059093815 7.12408487615398 -0.177480680120404 1.8390643256315296 1.3413833429005866
Ni 4.99513534729177 6.167829184239345 9.44843034258052 0.0209640038461768 1.1719473874615298 -0.8284282076193927
Ni 2.60541331553566 1.4226209410892516 3.0059340412018902 0.7039125097317942 1.0464680401090816 0.9141367028318063
Ni 0.09561040734646992 5.1601841969599285 12.456515119572247 -0.5067965718789659 0.35027038252304193 1.2785255270341014
Ni 5.026993940105517 -0.06647626704978676 6.189820410894591 -0.3804296797152416 0.5364213367239342 2.011455764154484
Ni 7.148472984601118 3.880533838662328 6.145561862258598 0.7762533253880503 -0.9860766835052179 -0.9002761427996301
Ni 7.702310848392607 1.6577605667803654 3.2288571506768515 2.2786463473372107 0.5921209442790833 -1.0375856500177874
P 2.602175044938258 6.708339599098173 2.000550227842509 -1.1828331811360984 -0.49956457290690093 0.8811592194645211
P 5.069512620232675 5.595366584931007 13.331178559345 2.314102374151976 -1.899713306772154 -0.6497321670346489
P 3.6941835326944976 0.9173430975134277 8.151057472134827 0.8554841832959201 -0.5694751818551096 -0.9048208247475192
P 2.116556124454465 2.318133789560945 0.8078483710015076 -0.45906738412380294 -0.4540586180553019 0.040515700725859256
P 7.933547702872401 4.646384834947877 3.4843267514884175 -1.246981433679233 1.2311969171514667 -0.7019769832719781
P 4.053940421404127 -0.028625001798132117 4.331963734601875 -1.346202618666101 0.7191200707101679 -1.6563805040436312
P 2.353960667731045 3.1394284708725317 4.523722701200453 0.8300174064833833 0.06414825254313469 1.1674566986800279
P 7.498814554752983 8.935811171095441 2.5573081506698045 -0.15041159181775388 -0.8188773307061638 0.015518407350573273
