# total energy = -340887.5009720982 ev
CRYSTAL
PRIMVEC
9.09386118134578 0.00000000000000 0.00000000000000

0.00000000000000 9.09386118134578 0.00000000000000

0.00000000000000 0.00000000000000 13.30978506047968

PRIMCOORD
 96 1
Ni 6.498136677827811 1.7526234766858109 11.196950174000975 0.4804162821132242 0.5380192773386734 0.8973479134092417
Ni 4.6460627360203475 0.4216723365197051 5.609595515061389 1.1566624362780016 1.0549519092103767 0.06439893510136006
Ni 2.821379503882452 1.8707436386705558 4.437003053528739 -0.8349845206806717 1.4242348282801793 0.7363842571072544
Ni 3.8074905212925536 4.201954934751041 4.5452254570791 -0.3291927359171363 1.1493013679272401 0.38084105622104736
Ni 4.115408658547421 3.1136016368578776 2.299239099182651 -0.5089254452965106 -0.5245410403465804 0.012107324786495278
Ni 5.666557642295205 5.019338453087698 2.883910711661304 -0.07968311495394019 -0.2326195300760768 -0.4766365033558178
Ni 5.645050660765147 2.9909618259004307 0.2532212908240684 0.20721445973941088 -0.5072115479291974 -0.8898788587257062
Ni 5.424324463852857 8.387040757139182 12.488624018637916 1.0957440035260742 -0.28195308620388215 -0.4457500981896065
Ni 2.1230891906695315 6.736977846075356 0.4995839915974097 0.40057504431486496 -0.777386667661545 -0.9795327117391132
Ni 0.8491010871233539 0.20809937075817353 13.283378372983286 -0.0687870368667267 -1.4470744518825143 0.8578897074136194
Ni 8.20061660434164 -0.080968101797473 6.890076635441587 0.10158685700556698 0.5064291612372182 -0.33686079398535534
Ni 8.60315636646765 2.4220680624512285 1.3341067099719957 1.3964322042456143 0.9428803506234018 -0.8027583136571143
Ni 7.025798874994866 0.9651587614078804 4.74933080403685 0.24244551502756306 -0.5089056478021687 -0.3218257540291038
Ni 0.7735347388264535 7.68182092175886 2.3112839182255946 1.1569599129137624 -1.3101552381242403 0.029905272199864625
Ni 7.907203175560533 4.3271592145420925 3.67501751831462 -0.4529234760095942 -0.1461268483994709 -0.10621689957841061
Ni 8.079077150578755 3.9146162051928 12.418654941855499 -0.3610566745052685 -0.3390539449819322 0.01406470562318223
Ni 8.381984570360869 7.5506601629393995 9.22515827881137 -0.27633316891394344 -1.0322300421328288 1.0659264059440092
Ni 7.259483823991863 0.9005050464454702 0.2428160949396319 -0.9512138101897617 -0.5499299127333304 -0.43718909599347283
Ni 2.323736142246359 6.511049960606959 9.06082220526895 0.4739497005522741 1.3995833482800863 0.7698893308432354
Ni 0.2624542880111584 5.041663882117843 1.083255279353734 0.0893967426972783 -0.2626780400243541 0.7982660822137155
Ni 6.798625130554114 2.2119271198733945 6.871269621275705 1.3263655293355159 -0.2739055333090573 1.042487458194779
Ni 3.8299068889338193 4.417333941329431 0.30098043061246504 -0.6950715144013965 0.7467617436868365 -0.7763883083040177
Ni 6.134736893928174 5.815524181172109 5.371709202230612 -0.1551917868152166 0.7357666781279134 -2.0706808683643887
Ni 5.503095488805653 2.701058627508585 9.23311722605666 0.18620417603633094 1.9321480302620915 0.2476368294205154
P 0.5903843760292584 5.84869858650896 12.372962836697877 -1.4416841341048783 -0.344152185440446 -0.37019128981668503
P 4.11430830135286 6.4520035204062545 12.846817567050891 0.2664922715641217 0.3791395001489083 -1.2417520669594937
P 2.4875529563192824 8.658383385001283 1.3286203835630808 0.9227828085425784 1.4008614436615616 0.790990888708541
P 6.561784611751227 7.98199108934624 5.7450222041285235 -0.16279582441471963 0.6462771186065128 0.10646783924695212
P 4.713984784666437 1.3489651696430154 12.358428118482445 0.5626931259362696 -1.9230725503233845 0.9972581540433342
P 4.375274833686083 6.042979835307335 7.85928125565823 -0.6978567904560175 1.1513255974461203 -0.2978291340041903
P 4.724806479389806 1.4867371654909551 3.5443823846674367 1.8997724421448636 0.25834316009442604 0.5321070256192965
P 0.6544351679999378 5.7314332474687495 3.380898405911216 -0.4257091203783314 0.6966565995003292 -1.4662160578079715
Ni 0.8258880972486706 0.11947696606266678 4.142591118797525 -1.0824969087081808 0.7583898148440681 0.4077641058641364
Ni 2.077283412248008 6.948964842458942 4.548272809937758 -0.010741811897536339 -0.28643529034495185 -0.13916995746566355
Ni 6.328718045309851 5.948676495575115 8.915266773695185 -0.9046596165793066 0.291374379517782 1.6564910614795667
Ni 8.641014110277219 2.653343138253526 10.168117106472453 0.5418242529070605 -0.9850423287034327 0.3921747360663117
Ni 2.279112565769406 5.636966218236513 6.8555908953323765 0.5772591966759025 -0.7924551319588934 -0.5534566949396662
Ni 0.8504169688262712 9.120960818189214 8.888647223447917 1.0393597111990744 0.5221077483147395 0.34210764420659145
Ni 1.5834685661400993 1.2788515004689154 10.930420926825494 0.5182832323623268 -0.23189550742585865 0.3069832896996326
Ni 4.452308931166472 7.073941775722192 1.7513412422690082 -0.5353306747629167 0.7037734130507687 -1.1734519970315147
Ni 5.708052930549604 7.995395440625439 7.892476576875638 -0.554002025920175 0.34897660341228287 -1.223531687296725
Ni 5.91009124287658 3.1570157298069246 4.935108383309325 -0.918632533819631 -0.014940166249600076 -1.2206386820196462
Ni 1.2243610846853608 7.83694400460864 6.812014931655534 -0.11190597954338792 -0.3864432328991732 0.05154856150125316
Ni 5.6464783969597425 4.456546670444699 7.121760025607816 -0.5865493637285769 -0.8354437197052774 0.6843266171800666
Ni 1.2108567009339288 7.607442231723198 11.188831174800113 -1.1546217516988888 0.13169241814169577 -0.6444968867776384
Ni 4.844936384680319 0.3566848768544819 9.92060766981288 -0.09570443008286098 0.1485531984527764 0.5901476226027965
Ni 8.38746816861145 7.3509680667793385 4.636729706361024 0.32966710445039354 0.6074784005717603 0.7523523504007366
Ni 7.813800128078408 6.540250348637833 7.0849717198650275 0.09015444679890926 -0.3905626543841854 -1.4188792203952207
Ni 2.846887784301823 5.237336491666366 2.4335208711357765 -1.2010401910624284 1.3276055723902038 1.0859049059484653
Ni 2.4543785509824323 5.386403063015503 11.443899428816044 1.081841534512369 0.4804211672092307 -0.40441781509972285
Ni 1.0473581719999283 3.481802979424691 3.3608137042590864 0.34521456526668937 0.5493347023514927 0.7524701069255234
Ni 1.6223993855608936 1.460592314793739 2.276904576291394 0.07149903648125105 -0.43333115569996344 -0.46301479880732516
Ni 1.1471814854271782 3.759265775815219 8.16716392685476 0.28856030710775465 -0.0030845524625946878 0.3527964913790053
Ni 3.765458695232542 2.990779948678189 6.798677874948565 0.3885034578623115 -0.20118239461271803 0.16392710980568545
Ni 4.094574622739657 7.156795944314309 5.891642526838512 0.3343765941109209 -0.008908872453855625 0.3074445456067673
Ni 8.44181308261721 7.384424381810665 0.14713048831837633 1.2423197665375056 0.6295747182501673 0.04506321088722561
P 0.4106978649296527 6.024464734083149 8.307554954702978 0.6396683550407436 -0.9888725010828001 -1.2866319581913195
P 8.876654239413313 1.8786734855602854 8.16573982820461 -0.5947038745149112 -0.8236811798527104 -0.018782165703509587
P 2.0563948132735717 3.5194697521509073 10.206954259123792 -0.8200142725240845 -0.2909807436237892 0.28741899441445984
P 4.179693162748681 6.406243211290293 3.7304400548621626 -0.016740709793448588 -0.0712061878311806 1.9251679993998327
P 6.896347762064475 4.028535003343767 10.409169901742453 -0.6183608518122189 0.3802808128422031 0.2734283365623226
P 6.364002226424703 7.905120681365867 10.051296457240625 0.6402208851101039 -1.4283380518152757 1.7337557968000015
P 2.3727247720571087 9.185800047918312 5.549022215579966 1.0321428817356613 -1.4045360642996714 0.8713018670544672
P 7.1931895764848335 4.309808127540253 1.122618966563463 -0.3832504369934884 0.8032000291802232 0.7288918053849511
Ni 2.8508618016078002 1.5410093286078201 0.16698147773992536 0.06938661812393856 1.28232973127154 -0.08941731152256858
Ni 1.7119466359314983 1.486246096990903 7.121360805104997 1.1874742794525357 -0.28318695861098325 -0.16320462981736408
Ni 7.228019064544082 0.48972897431025375 9.065467349524997 0.006579967210362861 2.4670364752812675 -0.7632142328159048
Ni 3.1162570443026034 1.9854081334327123 9.052370370751387 -0.1378934047460851 -0.3187645986052768 0.27363351059459323
Ni 6.4981275839667 2.610447395387867 2.416697228078437 0.05753357544009446 -0.8972887780365322 1.437300403214886
Ni 4.486720101614565 6.710751150628131 10.29055321494099 -0.6067782891809421 0.9342658694815136 0.8626367351803015
Ni 7.43278553520468 6.2223744334652435 11.42853989739775 0.08194542862555565 1.5044889852462413 -0.3299584104385672
Ni 7.785399999825397 4.418534330996224 8.35593611459144 0.5635529028334035 -2.427788585524238 -2.182319710289319
Ni 3.0425422061281218 8.567253802797177 12.221098084284554 0.5970312370965073 -0.1242156501486764 -0.13012661631647265
Ni 8.921086844806913 4.981944496194846 10.191209147994346 2.879361975263841 1.199377715758341 1.2686540335566603
Ni 9.141785760135868 2.5232372673230654 6.154125005819118 -1.5776456119355733 1.6415884333361213 -2.4863372324924082
Ni 3.899775023857893 2.9182564063093897 11.40777679370666 -0.3638499209796895 1.6489883253446183 -0.967039978588741
Ni 1.4938121894361496 3.3465863585492452 12.357230456973985 -0.7886820380697062 -0.02511042191438256 0.7768721899189718
Ni 3.4646428635062057 0.0032510553475668946 7.6347056273371985 -0.8160799704666849 -1.0979142717045156 0.6419224411822428
Ni 5.710135424744269 8.283470772933757 3.61775893120855 0.8766011677801935 -0.7031206099581181 -0.1499937875540449
Ni 3.430750043141501 8.84513491679886 3.4749589395517435 -1.493051175722945 -1.0176549725321313 -0.6823196140523669
Ni 3.6951540549750885 4.505535300255448 9.177882023048026 0.735703686100462 -0.6262343410230247 0.05278834744562522
Ni 5.541662553781963 4.9856002283619 11.964045549773967 -0.41316239406157235 -1.1620913206030565 -0.7752199990275295
Ni 8.049140159797803 8.931799413196938 2.3763423100074923 -0.6609953986532938 2.002483385452545 0.3814594065313366
Ni 4.772440123894857 0.7705219426400229 1.407429602732547 0.3640594658873343 -0.6737629827316073 -0.006782313029156062
Ni 6.429678091376109 6.444455615683232 0.293526192658897 -1.2909385559864734 -2.4115317573457435 0.6851290584767039
Ni 7.979908595151574 8.84728106802131 11.368712294527517 0.21866512477851374 -0.6332269702907739 0.032071169502931866
Ni 0.3591093002269612 5.215911354886317 5.377872111906266 -0.1617247028377279 -0.529260814419753 1.5913544768812335
Ni 7.642144405726876 6.581809293920016 2.6312250492567366 -0.42333496371920004 -0.9308267618929775 -1.4563211672917629
P 8.486382095927492 1.8553932011133727 3.4163426389816403 0.8922059641969861 -0.013083315546519403 0.234269406974674
P 2.123061909086195 3.5938029728810097 1.3792668242545614 -1.022289385980349 -2.5435753881792715 -1.2250828338339288
P 5.221940584803623 1.2348644942698075 7.829081452291139 -0.8506800770390576 -1.1478803192099973 -0.7735904338439065
P 8.903435660388375 1.5634620716935337 12.17998382881075 -1.2408899760695145 2.282820790429875 -0.4608828400659869
P 6.297007751612044 8.220741318982663 1.3629888128639465 1.0190251134067805 0.8072034939126616 0.3666303119383041
P 1.9793879973765185 3.6563414557487515 5.728545037179555 0.08980734787213565 -0.22544358115292784 0.18075703687883063
P 7.543939799577576 4.190087445999783 5.950099684839155 -0.0317783208528614 0.06338437779391665 0.32204558334939376
P 2.882644846194503 8.683691600476187 9.904968956858445 -1.8555831492221593 -0.6491122740624627 0.04502927232549664
