# total energy = -340869.5418626999 ev
CRYSTAL
PRIMVEC
9.30196910185395 0.00000000000000 0.00000000000000

0.00000000000000 9.30196910185395 0.00000000000000

0.00000000000000 0.00000000000000 13.61437203800578

PRIMCOORD
 96 1
Ni 5.891978816904337 0.7403706920234937 4.953112477226862 -0.7059501089871132 0.048321055702890976 0.6716392515203853
Ni 0.02885656837224529 4.393989721853605 3.4336804831329673 1.3518775575636912 0.5105447260674885 -0.11979540959379367
Ni 0.9268119179917057 1.970231459541142 0.36900167045073595 -0.7162553475678632 -0.4056419173148111 -2.1452721706177185
Ni 0.7500159037265371 8.828136044075652 10.466702076519974 -1.1538403934481742 -0.05563173043169129 -0.620018699130616
Ni 2.4089774334995244 2.9093954622280656 11.025557865381634 0.9452964162640625 2.094846924087631 1.0595086753431238
Ni 6.005369819566213 0.808507615280117 12.984026985065029 2.124985138233908 -1.5680271150092029 0.5454623638802799
Ni 1.4104668683037604 1.6352024404375516 9.629444865511632 -1.124190431792225 -0.9160927981169127 -2.8529258925594996
Ni 0.6603570146898662 7.1406472356346224 8.570070586655746 2.0314710309341466 -0.1252875430566165 0.48368158312805737
Ni 3.104522866890753 1.954269280659454 7.795684454227498 0.6015831181332478 -0.30642793141679486 0.3128947700880611
Ni 4.171877304990581 8.652273017305724 7.890904060359433 -0.6858577091126123 -0.3266967089681599 -0.306122227250918
Ni 8.462912833451107 4.120093243315547 1.2078904468296185 -0.7399999994829707 -0.6122735079675584 0.3510766804744212
Ni 9.184280532912013 3.3267469073823204 10.558326471615912 -0.23209476792085834 1.807150250531752 -0.637331993598083
Ni 8.471005546520495 9.105530062974733 12.694843650597969 0.7976449036899489 0.339469435252796 -1.4535654589234968
Ni 7.818472417994607 1.3686359135071686 10.683973748691837 -0.28538550892419884 -0.9982526567461195 1.7529542241053229
Ni 5.440154274468301 2.731634833772902 3.5734323358722415 1.839721499599554 -0.8305740503178018 -3.091579544644798
Ni 1.511988558463868 1.3874817027928914 2.441656180952472 0.3437629204218273 0.5304939154959057 0.7465488563450821
Ni 3.9860239634660304 1.4217501567556765 0.8998938799684952 -1.054716396160803 -0.5916658590195358 0.05294492762814753
Ni 6.5949286176556035 8.754362127577593 6.997964332449183 0.6383532357737458 -0.6859320139939735 -0.02149390820771782
Ni 4.066272050419599 5.03078391875489 10.9125454528599 2.2371970790534887 0.28964865507592696 0.7351660684294371
Ni 5.924182233739073 2.6541215257186437 1.017898659276826 1.5226504866466162 0.3904346134467534 0.4136545032066425
Ni 8.052705300523622 2.8627925973112487 12.97960203839019 -0.5692738644775809 -1.0061351448179898 -1.5916180149552654
Ni 2.0121089241829604 9.116943578993283 0.5657383157582557 0.3682179681403981 -0.9416343940314427 1.0524718231010004
Ni 5.799275393399148 0.6803627595155344 2.3712970172909333 1.3638990075045994 -1.112813043193219 -0.014225656681078726
Ni 2.4549384625522173 0.6694692235666154 11.971838804585095 -0.34528912725836663 -0.3398263043715825 -0.38295476012994045
P 6.140983226277245 5.151235115922129 9.716862910205299 -0.5429861344256455 0.1742403188062354 -0.9770469692027819
P 6.312623159100619 2.948733489320524 11.318103861658559 0.7846063253384359 -0.11542144889581411 1.5982429764709507
P 6.005379121535259 7.876674838310879 12.037024213063653 0.7762047315383019 0.3334985623813418 0.1504244473335603
P 2.4044473745744765 3.45187699497933 5.9548443143030045 -1.4875960661456444 -0.4471233243880493 0.5363573162552182
P 2.8829406622633096 4.235372545693613 9.435644851831706 0.3028877794740203 -1.1632251770971838 -2.3128548748981204
P 9.21931174833651 3.409264674782935 8.179065108428416 -0.799182680490714 -0.6273599699870356 0.26390471334260357
P 8.775412483527047 2.383127261522711 2.5138803894075883 0.8057742176653026 0.48118067108307455 -0.44184536381856165
P 6.77486590686736 0.37399775802495194 9.058894641166258 -0.6943955713802945 -1.4073732766381504 0.4074640581252144
Ni 5.936023640333704 5.253873042367668 4.656033631434176 1.7305617153427357 0.5625715127567408 -0.4671015672821891
Ni 4.815489845202051 7.7982871451663645 3.87840762318746 -0.21194580377680916 0.03494232040313982 0.5304790030975703
Ni 4.065379061391253 8.275682800507855 12.81030713196313 -0.3662096794611177 -0.4498774900944188 1.2966034675817348
Ni 1.0169005579982682 1.8071493382394193 6.996167192029636 -1.4073905030293312 1.3806980813398093 0.3433615712183506
Ni 0.5754039917931987 2.2025574384158757 4.714384883255173 0.45544649954176397 0.36857278037665553 -0.8998639949628761
Ni 7.80272418440096 6.128369756251855 2.446040198963509 -0.510773811359159 1.272450781594931 0.4139530082836677
Ni 4.2233544016871205 3.659599265729317 4.915060912453365 -2.9338863315639667 1.2153578932366809 1.5877148232461171
Ni 0.45491186596216193 8.209462082874557 2.288983893209314 -1.5530545528597706 0.1805076398721859 -0.6804779328579378
Ni 8.349512528820187 6.905986462529526 7.014859498826112 -1.088551342432377 -0.24890232639650034 -1.5065096152206956
Ni 0.0759729019803611 4.0971545876499045 6.017593537088605 -0.17666152665321833 0.8903509132661183 -0.08801117520366133
Ni 1.4704459647076795 9.322805455934216 4.315960154517334 1.2424781464922408 0.7662867010936416 0.21690366200271674
Ni 1.5092165716883765 7.656729780235404 12.198395702257951 -0.29944841477516815 -1.8530223304735185 2.078845663563368
Ni 3.7017836953496293 6.067330235376775 8.326645498316191 -0.16411891410151735 0.6129931597424024 -0.0685180994760562
Ni 8.718726284165154 5.882639639982883 13.374268771633739 0.8297674952561065 0.5100886123666764 -0.5579422415148455
Ni 4.177765451396239 5.368584924633972 2.8911068608881547 -0.36849076218581056 -0.26508484969363383 1.9417963519851331
Ni 3.244080308476981 7.732512922047241 10.619128792280337 0.45744784624250895 -1.762561408177784 -0.29764632856942286
Ni 5.1231710753125395 6.756531725879127 1.2161905938087152 -0.24558560331844156 0.13357729386923445 -0.32550680242511687
Ni 1.682716898320805 5.542503839873437 10.697452301838439 -0.017279355905737984 -0.11121640967553104 0.4688545454175539
Ni 8.274603772098603 5.28462535203134 8.980489274280558 0.16839877242379384 -0.3407619288119744 0.7835642572271667
Ni 1.8523290018923093 5.432135977151276 4.70255370882649 -0.17424777500540312 -0.7256056784345117 1.1059325140233018
Ni 8.84545631043795 0.28298450229528926 8.365024492400083 0.19852978748121936 -0.06851167171815298 -0.6334174890350253
Ni 5.44934461988503 1.4284010646230465 7.771369107143155 -0.8672235832200353 -0.4093131955188112 -1.3026337329362145
Ni 7.106360177733746 4.360688672671528 7.017241733098606 -0.4743363944677315 0.7255897375949116 -0.462018753442643
Ni 1.6478810242462583 4.754338700698428 7.699036065650208 0.5407808992442106 0.4158499681960644 0.12313115883524599
P 8.839568164032292 9.301829515737126 5.632578526926433 -0.7249089094778032 0.28646794335510023 0.8078634960941635
P 2.163265921168643 6.845374832230528 6.792809405155691 0.14411907394082277 -0.7621487676658681 -0.4584827152649265
P 4.090503679782534 8.688187919789522 2.0398278617409686 -1.2381972597286997 -0.7162604897741858 -1.6003278840244375
P 2.7345091422078913 -0.03536050512870004 9.413793596347455 -0.24959241048498948 1.3253892814651755 -0.6939533416365533
P 0.631592535811169 5.958608821175626 1.947100253116262 -0.2275174329628211 0.21760480183479944 -0.007256938672729437
P 8.13574397819077 5.652350792329065 4.777147128797437 0.29172404954771697 -0.2575546027548597 1.1816612723151845
P 2.8897869114806305 2.825491701439705 13.133526371166843 -1.6447963987504575 0.4940770674297684 1.5995704370331225
P 3.905608441069647 0.08798546480542639 5.871415884132857 -0.0074767679930193825 0.2532608604755122 -1.0805708953300617
Ni 3.7268059920814127 0.9628096080000068 3.5337873438012886 -0.5266022937509834 -0.28643014813862927 0.9796352987552481
Ni 1.3221260682808047 8.87735276229419 6.701633364967736 1.2375161745012753 -1.224787156970381 0.9466174490683309
Ni 5.980356824803474 4.5486442592003105 13.213101925758439 0.42815835324977236 0.2034663055508883 -0.866574636782127
Ni 0.3108801772651579 7.453481756596192 4.683697687374817 -0.6684222872449844 -1.9257464976111223 0.966184315456665
Ni 7.245350199208213 2.5045923733158837 8.783774953698746 0.8875067589491037 1.7763350649231087 -0.309015489638313
Ni 2.546507045833883 6.085729530148324 1.1069138520555641 0.6420070304762491 1.8524505171304484 -0.8524397400426416
Ni 4.423095582996264 1.9556831799543353 12.070011785888905 0.4861776100770337 2.0170042047765393 -0.34778875375176876
Ni 7.780985482742158 7.597569257107468 9.372677962970446 0.8596851087511453 0.7308748972532508 0.7462855753813663
Ni 5.552856931420827 7.382479826873625 9.356939961542748 -0.7824178023275493 -0.4668904797126475 0.8039934716157959
Ni 1.6542249671351343 3.9540530958574274 1.5006848056800524 0.19343283257428623 -0.7052636244430499 1.7680687111492583
Ni 4.930834261363435 0.23352686307847828 10.726164689690483 0.8011865982946202 -1.0365368970382989 -1.3125869874941847
Ni 3.950778802753492 4.201029675978465 0.9024984313011716 0.525207727396302 -1.0566730056665414 -0.5835820535701368
Ni 0.9893016158409438 4.156882530889601 12.934865148463857 0.2402243390065282 0.3446424948133032 -1.3115595746709348
Ni 4.545630421229642 3.91933814738047 7.517923937748034 -0.1909589171124969 -0.06243229829329248 -0.24809320023164366
Ni 7.271898018863422 7.5345391148567 0.3642502246624106 -0.8040022133665444 0.6252205550465297 -0.07788359985135619
Ni 4.984850795609334 2.6452009374042276 9.665782077390086 -1.4112106481063698 1.258796166925974 0.708268986928277
Ni 7.797477873859426 1.9206519645298379 6.407045586485373 0.6890034538304456 -0.9714566195991979 -0.2866497203486031
Ni 8.059839910781346 0.88038393009294 3.7874362263185013 -0.8313790627176005 -1.339416963202835 -0.2919783316503682
Ni 8.028771334170134 0.7024540058011528 1.1224044211066568 -0.0992893192206419 0.8700340560856371 0.8095529679814444
Ni 2.2162592388195623 7.202737879011819 3.3204634272922386 2.0864630708993097 0.1265576680182917 -0.7953036571512819
Ni 7.2273322851675195 7.730819963681001 4.7067330835185315 -0.6668708835974644 0.15024601277416702 -0.37401811976194294
Ni 7.062492091716241 5.852389636647657 11.565150206547436 -0.035696424960344975 1.2271754546968996 -0.678550891038554
Ni 7.523879058330817 3.399441795471127 4.366360083198431 -0.11137607518184689 -0.6864326077794758 0.9863623330664367
Ni 3.99777235037021 5.9323214566536855 5.461990646802079 -0.660121737799089 1.928949835039768 1.6639984256002052
P 5.8128562682052465 6.692329535528654 6.741401143030087 -0.02946844177276215 -0.5544964490580901 -0.09057379372451499
P 9.107036981960068 6.493769704288262 10.847101449641883 0.07909227544747668 1.0475517600915636 0.42775880381850845
P 7.428719914997677 8.35235893134804 2.456876992901252 -0.1275693971122577 0.27029236203650225 0.24868403973810718
P 6.159940639191511 4.784728233569334 1.8600496361998857 -0.6222547875499863 -0.573532896864251 -0.1969321039767963
P 3.2758930426118136 3.042962435749138 2.8303594218410963 -0.049952677769043004 -0.03278593618176934 -0.3229714375977728
P 3.2286762477380093 5.93707476283582 12.688213207062498 -0.24980246961326658 1.2795493403129254 -0.45812558903582395
P 0.49232159487153554 1.6602061332312448 11.663800378863268 -0.6258859565446705 -1.3453294720325282 1.6290517343216913
P 5.807916922642207 2.7590849444255023 6.101212657624181 0.5309405161150211 0.46683442966373156 -0.7955761940863783
