# total energy = -340855.16757230443 ev
CRYSTAL
PRIMVEC
9.43672649479581 0.00000000000000 0.00000000000000
0.00000000000000 9.43672649479581 0.00000000000000
0.00000000000000 0.00000000000000 13.81160310406021
PRIMCOORD
 96 1
Ni 2.8936212448904652 2.730111081926746 2.184056780670728 -0.7092876580007784 0.11775601056626171 -3.5719482613495384
Ni 6.190530440633213 1.541517611277915 10.698039553612857 0.838734474641407 1.0325573435652604 -1.0690214999295653
Ni 2.3616823993833442 1.3231423194707108 8.48776848993313 -2.4167675518233867 0.8957553721111412 -0.35156596140601387
Ni 7.39622326000313 4.925065394552833 12.985724804507502 0.9261257568728825 -0.09751602937030303 -1.0448474737865232
Ni 5.074807373309011 7.1939753340702834 5.634029682956532 -0.006354995683750346 0.7084003702998187 -0.4702604246261449
Ni 1.4472164016919251 2.1335117852955174 10.578224266136582 1.9524006098635407 1.3055712182979837 -0.24585839736385404
Ni 4.763593564549244 8.505048080133562 7.94549737239802 0.8509014490212442 -0.5500916351221752 -2.9968055967960066
Ni 4.105589487494115 8.361892936591135 1.3739713603186061 -0.3490259685929796 0.10864710628645805 0.7497352244928637
Ni 0.96696250814142 1.6264858981899788 5.664055459866439 0.6217847898921034 -0.3712806662261219 -0.0023908688296797533
Ni 7.94428947138461 3.2552837944134376 7.874961615250872 -2.4740725561924424 0.8079192890327636 3.1820448378159067
Ni 2.4128860782799295 5.027425568712668 5.888867542933386 -0.9981778376441262 1.1705523068862163 1.0188335662212649
Ni 8.936466913180965 8.23896069829666 6.437049826052872 -0.6094141841418925 0.5359024881059867 -0.9418035726194555
Ni 7.022255218906044 2.8846469178298952 2.3614247767453276 0.6142715122341937 -0.9366695938269998 -0.6677550859746306
Ni 7.096786486124111 6.615975825700238 7.382757994721608 -0.17220143399933568 1.1597580444841897 1.7956059973375786
Ni 1.4665994382664895 7.738974609284901 0.6699745648325558 0.9169605454338466 1.8842506923601807 -0.6433157219853437
Ni 1.3353628805048203 9.045602657087896 9.72720798753786 -0.8893222148912878 -0.4460002665271997 -0.49728117618936296
Ni 4.573905921810528 7.290201635896396 13.251791425545733 2.6050756615765978 -0.4275595433235088 -1.0656471841406936
Ni 6.528865401834705 8.151793654071122 3.601775862146113 -0.3220957198610388 0.8951550195229809 0.5771846346842253
Ni 9.292240945263563 0.7339329234926183 11.18734326803727 -0.311970715611895 -4.4463871313710905 1.7739472814172224
Ni 9.434556220132603 6.176847186965677 13.387214115257002 0.11717956923750142 -0.29819063110866706 0.16627555543320396
Ni 1.2100620238168613 3.305204078483275 7.551783924422345 0.4690630618839341 -0.2446036990211465 -0.6854224213474067
Ni 5.3073566285704485 6.315972848221182 1.4361858118905577 1.157958786491922 -0.5422806237181886 0.6725833606012094
Ni 7.812873615816263 1.8110210881683668 0.12711648289874092 -1.7003108868779944 0.31825757706187124 -0.3732904975672991
Ni 4.6556751583823885 0.4578548791330823 11.935601142610798 -0.7634677435876077 -1.290619739194474 -0.5500587250017107
P 8.047329089864489 8.383597407925848 9.649035087498893 -0.019059330624296208 1.0896078087213492 0.8492826824708987
P 1.202531515936383 3.0270093763322716 3.9042918399366613 -0.4262572795723175 -0.6446982041551671 0.4671725297294406
P 5.516370687523724 5.630658884190984 4.092446958264613 0.7681605210775867 0.41013800541295176 -0.05186403585914293
P 3.787760533340593 6.603094693799418 8.300524959401237 -1.3010514760507592 -1.1540195993385158 -2.3388662113602168
P 8.517608363327692 4.661176770029404 0.9273178757395686 -0.06934213803924831 0.6834984648518164 1.2834029097310606
P 5.190171356816339 2.7466442270477964 0.8324221523735409 -0.1482390096464673 0.12836206821688215 0.3962324510754531
P 0.7586797955048569 5.489032490368656 7.518193895850211 1.0361831132433057 -1.0939452597544386 -1.628127679845525
P 3.3318250844116326 5.664130953679778 1.5127572994140883 -1.5244325182477036 -0.10122098902571601 -0.5484445864370554
Ni 0.4114356206568005 4.443830081428932 9.391102924847843 0.05874096548463432 -0.2625361151298511 0.5668295167021463
Ni 5.078015860375881 3.665111396846136 3.16936239810798 -1.2549906771369548 0.6306949478975395 0.011066799337122875
Ni 0.370689722252879 7.707012416062871 11.586001560786594 -0.1167918468807795 -0.47767831435677094 -0.6602364090000823
Ni 5.298240750609869 0.9288173716069971 5.92970780860398 -1.2556380809129666 -0.30753839087215423 -0.7432629865049586
Ni 1.8710575432255137 6.464176640530595 10.140782914130128 -0.8906985264135241 -1.4007835392357746 0.03680585597443983
Ni 5.982733719420015 3.2727323020212125 12.51955522550789 0.6092385777959766 -1.8825190543810548 0.5327084066487213
Ni 3.43700683984498 7.965116327139266 9.824386455084698 0.25733785875836324 1.3215920192062725 1.702145883204204
Ni 7.444841275792886 4.741171901987819 10.105135679144531 -0.45535239716606096 -1.100360419252163 -0.0026497789180212434
Ni 2.467128383163375 4.655137264962354 3.3341351950997793 0.9216648928880514 1.1607011251237493 1.0430266185277004
Ni 8.826198762073961 0.5186340045789428 4.256556353371703 -0.9409314544271473 -0.9271745098523709 -1.046252581664166
Ni 5.677804770620646 8.266280021998396 9.877492578077403 0.675389719701753 2.2602783863529847 0.8263085901732286
Ni 8.859906749729435 8.162457155205134 1.6508317093188585 -0.15831310605301768 -3.3547350385262034 2.9556399211909747
Ni 5.103438402017496 5.667254510206642 9.60474097986808 1.10816808822204 -1.057858027113578 1.2562960262119396
Ni 4.570461516576976 0.9572332429474687 2.3246583459769923 1.8984809770269497 0.52316035794897 0.5994611866942385
Ni 2.5684316439364765 6.244376402996634 13.140235161248649 -1.6116705627307664 -0.36868925134986186 -0.14258978178048992
Ni 9.303187548197592 7.00121131843804 8.62605050782458 -1.0698195703508284 -0.13933656495051489 1.212614783273905
Ni 1.7425198892906824 4.168975980518141 0.5276857127981844 0.26868465122975016 0.1989087680871929 -0.6704609149415679
Ni 3.670131735433121 0.9741438571352096 0.16382534963440595 -0.4427215957759278 1.1396376195852307 0.00470100502009513
Ni 4.771916757469771 1.2619923306668264 8.596024730914673 0.4057126226517464 1.3569233475177145 0.6677540575333661
Ni 5.146526495980233 5.241526023339601 7.094413149367294 -0.11234460974270329 -0.34204876594419803 -0.3735553211929115
Ni 7.51523925673069 1.2635116436602565 6.383626629044145 1.605707660279112 0.18192663170689957 -1.7380292273643745
Ni 2.001954378827161 0.31692680308413074 3.0196166446611348 -0.8192493693336019 -0.588145247460787 -0.8568715505617501
Ni 1.608801472415522 4.322369972494551 11.647491271750498 0.0010811488793207188 0.5477480745906632 0.23109023791574396
Ni 2.9282351583059976 -0.0828884323545983 6.759992542387384 0.6637750182809601 0.23677237590218575 -2.452300454622673
P 6.655100494462722 3.8171276267291248 5.899405535602721 -1.9979165920174689 -0.5064795548591794 0.6591627163199293
P 3.2714300337411295 0.6924198192106481 10.205297095990892 0.4421191863052386 0.48747653139411523 1.2734537689381487
P 3.478235898654266 2.160104481043873 6.9841685900769575 0.6611162405018743 0.3867875036124694 -2.4766534295457414
P 3.363617416553652 8.496413475233014 4.467142570987746 0.5753475814754866 0.715940901651238 0.5447697086886295
P 2.4077053153396 2.629968538533719 12.838976155450181 2.420962049520708 0.1372765970976926 -0.18961294460756375
P 0.008144838786517348 1.2944263602222201 7.704002100256014 0.5202989772407749 -0.05394637230946838 -1.4678924170691299
P 3.0491762472736794 8.083830348613473 12.089572662259245 -0.49158052626015986 -1.1752358284048146 -0.8017563547551612
P 9.243547435660469 5.552730395372701 11.112166528715163 0.1099542551336558 1.0049215841258627 1.1690332991385286
Ni 8.67908963005795 3.3884831913218982 5.998006117858318 2.8684970075248795 0.9410121870664117 -4.545396200347153
Ni 7.547475115026072 5.667339440746648 5.468663315857361 0.25843109182254204 0.4180179223816608 -1.9823272222196444
Ni 7.092332351137161 7.123048896439112 13.225259124848048 -0.41329583431564304 1.78805543868383 1.1004048993368534
Ni 8.909223083292567 8.904948246112296 13.389507239837148 0.7208018292879651 0.5544285719346322 -0.7435908021580225
Ni 1.845333026330546 0.2859705649248311 12.224443303460479 0.5716552202255638 0.733714423584575 0.8256560441908942
Ni 7.334535377779212 6.137184624783158 2.832870429624607 0.24697605590806496 -0.41837736260360847 -0.582972445010596
Ni 0.5053423750680985 2.0856581443658113 13.206268656102843 -1.139484381836818 -0.12309207806719445 0.06303367932271724
Ni 7.137977798026727 0.6360853920250699 8.520764948397893 -0.9768057997262533 -1.4234043619590842 0.4828500883656975
Ni 1.6419810033776294 7.621147640117417 7.3198461690489465 0.9733834043082655 -1.3254934111432075 1.5595725564839462
Ni 4.115733968661425 2.969360413121943 11.231844039982096 -1.3627566663700401 -0.7322082713526937 -1.3098549332750022
Ni 8.674305209637646 1.9340571304561818 9.557864040148436 0.024561234279131892 2.2629065680044516 -0.6251891875879619
Ni 7.225994147652318 9.206055320611421 11.847012927349171 -0.7437352981556868 -0.39798311521797264 -0.33605475314429223
Ni 2.3709870118772685 7.391920112642857 2.856101763334082 1.1581562472147087 -0.41488966116532416 -0.42644934097846554
Ni 8.701832141326062 4.385039274291865 3.4016870592747366 -2.549505894731093 -1.6519175831762711 -0.16268166743435855
Ni 3.6955354036214016 3.756628772065282 8.371861894642436 0.39677521095280055 0.2378303848530549 0.5093568764069745
Ni 0.9517599414804544 5.864076318305811 1.9962328914487977 -2.208229488176545 -0.4048613303950446 -0.4626162778173259
Ni 0.08690564689685346 3.0986530051901555 1.8901319988380585 1.2489154174771524 -3.364024691358245 -1.2557386110465727
Ni 3.321020032377613 1.857638517904661 3.9981551854052904 0.3474334272948791 -0.7796991178448056 4.332309340987365
Ni 3.900472796654419 4.366260188224005 13.19441801475409 0.6734477654840336 -0.3514368920273173 0.7279101581979722
Ni 1.570846957759778 7.490071506709091 5.064894091945048 -0.751055485966184 0.8539914008004775 0.2234625461671571
Ni 4.034540372416268 3.577576320280576 5.39459161722799 1.5852483639834956 -0.41806471645919613 0.6250128099110978
Ni 0.4806587291245307 5.538792350085149 4.518769958911692 1.6578277780131188 2.1965957605923587 2.0394054552898746
Ni 6.985593535803715 6.911062268585646 10.811322738890054 1.664961303734107 -1.7338727819938395 1.464235537042833
Ni 7.138713862706774 0.23505942455493065 1.835851947047944 -1.167426873883357 0.6355227083034862 0.0962027098755182
P 8.702256794026088 7.624997824597662 4.041785891151395 0.4557969409026473 -0.33237756140302116 0.3514083527822271
P 5.445340445899213 5.328353345405116 11.86325542128887 -0.03403343543562526 0.6974706107611922 0.011138276005006624
P -0.07991775079974293 0.6755205290949081 1.35414196657268 0.8993867982161413 2.2846318754966846 0.2064305303855348
P 6.699264375265527 8.658007982683277 6.685354640157977 -0.6673506514473604 -0.25545632546493424 -0.03378403842898052
P 6.004626925288072 3.1872827420491183 9.23378891661385 -0.6833701668040683 0.5360942924018187 -0.4771376113619525
P 8.156766809024774 2.315612299793751 11.608086332205996 -2.2018837484641756 1.883723359101801 2.3013314476395528
P 5.991566495580576 0.10202988872648079 -0.13755538993807065 -0.030174466700851256 -0.8629802345626492 0.7306280713497676
P 6.518466129047376 1.102936302690057 3.84733270144571 -0.07285760739167452 0.013456125504905856 0.43497537617160575
