# total energy = -340877.2543780179 ev
CRYSTAL
PRIMVEC
9.20451405087805 0.00000000000000 0.00000000000000
0.00000000000000 9.20451405087805 0.00000000000000
0.00000000000000 0.00000000000000 13.47173671999553
PRIMCOORD
 96 1
Ni 5.467628696959097 7.43976029227701 1.6819730924685112 -0.937003837237967 -0.02929360675779471 -0.07162296365362504
Ni 5.432835633347165 6.664022245957856 4.464048549712632 2.04022795119117 0.277232026579129 0.2910087686482472
Ni 1.4477320132811433 1.5301032107052648 8.5044114706766 0.2556486439813984 -0.32660337792340527 -1.3984417784764753
Ni 8.757800700718967 2.1771069216602705 9.731645664897087 -0.18580359816380257 -0.6350650519407772 0.7854095379660215
Ni 4.412294327815592 3.525651090104859 11.989064734158731 0.11040651217972598 0.21054789498801801 1.7172158901634493
Ni 2.5941082322092037 4.324998715303538 10.720188397322703 -0.8535329731068204 0.83092217768584 -0.38350986130246206
Ni 2.7171357687798605 3.6418488771516917 8.014821520377291 -0.5335453007277199 0.2772024588927742 0.3017079002333062
Ni 5.173756172636834 3.3971008450243714 7.426268315387493 -0.6595532668901286 0.025145388917376048 0.40487110058705755
Ni 0.8193674435468151 8.626157738872976 0.15049932960139023 -0.12973966529069914 2.0089067724803855 0.6927338674071554
Ni 4.445513419502222 0.8899485787538668 13.630299567304478 0.8472831355423666 0.4613114429629732 0.6939682540348887
Ni 3.3474056729500803 7.886280479810987 8.010981397060123 -2.6646134119309144 -0.4333697222473826 0.05068749905253852
Ni 8.663196703945571 6.542310954915375 8.56696074680752 1.1300378917119378 1.2492576313079196 0.161316925876348
Ni 0.6497669061127578 6.423673971610033 0.7136904162112089 0.4626777271828806 -0.7300601146614395 0.8428274137638582
Ni 8.208825065813452 0.8070140650617427 4.529251487282527 1.0545973540844356 0.5917018544637939 -2.2409902275473343
Ni 2.8364262725921985 7.987981157019514 1.1438477388819763 0.6204092497008155 -0.08933529333172358 1.5318097845483811
Ni 7.9698390595647215 0.7538625979117158 12.894028636899408 1.1777526812893975 1.4313485565068251 -0.6624588705726979
Ni 6.8465753757503025 5.232830744663654 8.24155079553987 -0.18202176252386715 -1.2888374504830706 -1.5096659014614902
Ni -0.02423824719822764 4.257216672859552 8.930131297059718 0.8821768620957582 0.78401497161134 0.03495594724989464
Ni 6.483981948537383 8.331254308962212 12.842350812470087 -2.2094823867470397 -0.5684691091880985 -0.0037108731926839317
Ni 5.801145063867759 3.3643235700185277 0.6530326677449042 1.642111909939759 -0.4039372759188785 -0.0018020862057452837
Ni 1.4983476367737396 1.7333849064379412 1.6535615185396884 -0.22567472332712749 0.0820133057490136 0.05756751400182344
Ni 5.372371179678705 8.676359159227335 8.064814918711113 1.9991905736338857 1.095245723733417 0.19007420051469845
Ni 0.15027565990674208 0.6569860065865245 6.532068171532477 1.4928771120389257 -0.18994615957726643 0.2043170835869578
Ni 6.959404310606138 2.5034621765345197 3.3220361909587557 -0.2587172556043931 -0.22579247985191436 -1.7957188687663588
P 6.46590428268187 4.853788850605623 12.364831662070433 -2.2306857602975327 -0.33826410209078517 1.2004444664599585
P 4.057561555714998 7.904753939776369 3.36103663800376 -0.49047263790796175 1.1225235856127636 -0.8036574284326159
P 7.372226771715966 7.754490245738066 3.839134752345529 -1.3074553226945742 1.4430151942114762 0.3534258974328881
P 0.5086663059436808 3.707228541393902 11.030038117363906 -0.7742560924523634 0.9575310106570413 0.7943176390889288
P 2.415144862948147 -0.0919208808890367 10.03921910858082 -0.29120880047419523 -0.9287002024682779 -1.3960786775609375
P 2.1632633323289623 8.891864449795102 6.151707270592013 -0.13169653190675382 1.973443546576769 0.5758376337380277
P 6.573495848967551 4.669790612086438 6.130744909991534 1.3109437954638068 0.6002955096700757 0.5043568520892218
P 5.090989181102842 1.2857049501169002 6.771272324767345 0.28388372756769176 -0.29869842398302104 0.5076177822286806
Ni 8.016432310359326 4.423054404895578 4.293051687477006 0.02948181150920084 0.6772879651657303 -0.09882137844528786
Ni 7.432792475040441 7.59734157509084 10.56551942279639 -0.06551427965272588 -0.06839417230368221 0.17306172511710194
Ni 8.507124961457762 2.8302776571179207 1.0641200779312272 -2.1082218027326403 0.4011697404760704 0.6429115445683896
Ni 7.3752182388254575 1.0548281208634374 7.801509665539344 -1.4646674823739292 1.299643539959639 -0.8642704141289825
Ni 7.652126843508357 3.123588706075017 11.760758725716595 -0.6168331023137829 -1.77819320117777 0.0038697673680513993
Ni 5.11744295486493 1.4271783331103909 11.155635554294468 0.4388477146428184 0.7310245354572377 0.6410603502922636
Ni 9.33715123242855 4.798129153340715 6.574288357638712 -0.9300472034144758 0.8917051133011675 1.7828733802622585
Ni 4.129816992051946 5.391323274381606 8.882994059476896 -0.7340967466246583 -0.513775060079328 -0.34114142363858024
Ni 1.5809765605949864 4.368351977105708 13.215949156840264 1.9608842218545197 0.0014202773862943283 -0.3084282496762753
Ni 4.739395148338668 1.400199902039869 4.627771084389393 -0.8098501875068891 0.14317110820525664 0.5584477203963543
Ni 8.951279588846695 6.683903996593245 3.0739542837943343 1.3435443551076474 -0.8457870106128144 0.39777871251665037
Ni 3.5703666200061193 3.647482039831719 1.3723258717393363 -0.49209191867893964 -0.27303598621991043 -2.7958707994177203
Ni 4.884854085973419 4.254243614778427 5.037298329421689 -1.1383353558340397 -0.793924260305252 -1.0440861701404662
Ni 1.8225306263007883 0.8365651578464273 4.277208877665139 -0.6141509274959294 0.49905523737065016 -0.410862285173486
Ni 8.706724851517219 9.181309602795318 9.278726499103053 0.7358083299991264 -2.0666712329843633 -1.051441582064273
Ni 2.419599847812744 6.792949876119849 10.252395657060278 0.1800042178732061 1.257694192111047 -1.5733685818267742
Ni 4.500188233749544 5.546299679681632 13.686341251907983 1.2205134692956916 0.45219662514589865 -0.7183471970998855
Ni 5.639375727100641 5.02023408057773 2.8541891440626506 1.1422215782623233 -1.4137118172616685 -1.9618239600599698
Ni 3.6057579770399495 0.8819010720036256 2.457918240356784 -0.13755067669468568 -0.49153167530009545 0.28732386359749224
Ni 5.187323626542652 6.6064480097428735 6.999806605161222 1.1628508244769005 -0.9914726577098087 -0.5855165515886883
Ni 0.717075836527735 4.41778021826869 2.182677493643853 0.4740833979166609 0.3234820586856042 0.5304985434815961
Ni 4.047234090801615 8.157454672157845 5.546745178168092 0.12415882876881197 1.2181714514260762 0.3362565847424531
Ni 2.6683702526380575 3.214741010029769 3.2756666098588005 -1.373823208596847 -0.5901260253362417 3.3510820151546477
Ni 6.680783666285191 2.5426273843834006 5.575103365914653 0.5226240258295257 -0.32126319665741443 1.575607498459622
P 8.47471586701924 7.403743028278732 12.660078420360225 0.6449015784152249 -0.2372220618450947 -1.5141337074248569
P 2.7548558679020028 4.002914355010225 5.369672416120235 0.10204605603017264 -1.9802384580114152 0.259612770835469
P 2.6837417913237522 2.1796105495180607 13.12156606840726 1.4369697593483446 0.6462640059803901 0.46792869116917474
P 2.640342506950668 5.704479255917359 1.2090736877373292 -0.8948914814489491 -0.5657015737452903 1.3352983130487714
P 6.426757483861356 1.1104602045857963 0.8668277595774615 0.750451790943914 0.44146381210942687 0.7930811955786664
P 4.4716634442962695 3.4529078145162084 9.853483978235294 0.14657576301143144 -1.1125142810058775 -1.0266553762585287
P 4.815783411543807 2.8226379103459887 2.8968410218840708 0.43029879663154286 -0.01258657841575897 0.5118968692200088
P 1.025944355357024 8.766232035710642 2.5038570501929724 1.0137715783173251 -0.6742077835785099 0.30220206626090534
Ni 0.7864484190225522 3.0091397767229635 5.347659820451468 -0.045887763671050005 -2.2128849846706857 0.13417301847170443
Ni 2.4271567539570285 6.617217291337043 12.530816666333388 0.2496564309537055 0.4124167741447994 0.22198544740099835
Ni 7.721712970732222 6.559146011356175 5.837976927371237 -0.18965922446446692 -0.41846837965551803 -0.7631795229232277
Ni 0.4255578269334969 -0.21212539295975189 11.375346387392472 0.80095417056884 -0.5348959012183433 -0.589240794517811
Ni 7.768628379523232 7.3941703335283595 1.1927826180847476 -0.7189406077095102 0.016076336736572314 0.6808584561258081
Ni 0.6658204992994168 2.3443161263095713 12.826952580693263 -1.2884772389301746 -1.8047005034396792 -1.0001760990210773
Ni 8.468907818569734 0.5947156272353493 1.8821362987959702 -1.1675459159597248 -0.2369950334359531 0.5087287559046723
Ni 8.533781234531878 4.855648162470599 13.087671365379594 -1.1671445667562481 0.8720019784452853 0.36428238053141776
Ni 5.055349302186069 8.339823711666632 10.78737214634479 -0.7361605711322226 -0.4991074307648243 -0.34604143204335885
Ni 2.763103112610016 1.9602761810501432 6.399385099583799 0.9934542069162117 -1.0183615116808526 -0.37620201478713916
Ni 1.8540100648068218 7.541175629545863 4.36865480562233 0.4455729491817939 0.07890767024049636 -1.5326991291318701
Ni 1.1969274108213754 7.130488615726503 6.566030067513678 -2.12326558443964 -0.7816097046039571 1.7118669671467097
Ni 5.900719498300003 0.29459047642854047 2.9256704807568044 1.5453044766007065 -0.9033722652264506 -0.26807350000831254
Ni 6.6588677180153475 8.956581389016133 5.697291450791815 -1.78755073113327 -1.1641448606979758 0.5440145756901598
Ni 1.7610996986431073 1.9072305658132216 10.723125557798515 0.9162894875087509 0.3164688605925647 1.0029737163708725
Ni 2.9730212630686723 9.46224058017621 12.086397869387401 -1.0559914062184845 -1.4590249393761712 -0.5047155209802212
Ni 1.1819792797881008 5.184976475425974 4.62550769435178 -0.026695764123631446 1.6565563674998631 -1.9151106151638304
Ni 4.570547540164784 5.912252754571366 11.221593262027374 1.0709251447101813 0.1002164590206016 0.2752098539427777
Ni 7.274796989088374 5.061065305493743 10.45482225342535 0.2276256764059112 0.8372576329855644 -0.1149069711532408
Ni 3.06301379823636 5.84999342063721 6.135594768514583 0.8096990066410054 0.7790429723180454 0.9334634281848762
Ni 3.978586824024422 1.2454536095944193 9.149182166490798 -0.3820862414820581 0.6646993298674424 -1.2443985034434053
Ni 3.4783582962323436 5.705049935796709 3.4901096994898446 -1.5076203317863712 -0.04733863718496364 -0.7963400688355963
Ni 6.611915491167605 2.922120299636402 9.295430851442454 -1.0893332149037238 -0.055571052397084944 0.8955867077437608
Ni 0.28443145412470733 6.0568924904438255 11.03750205791494 -0.09457571579505647 -0.16323445461403502 0.380638453291938
P 7.018791836115183 0.7896543513125088 10.52434947175844 1.0579112489490168 -0.0687124748750494 0.027923722993461585
P 0.047273464392730544 2.596096407272743 3.398501772083032 -0.20529744522235613 -0.47055173061431865 -1.3521961172453747
P 8.097505671283637 8.159221938880991 7.160941750901127 0.5670544882287589 0.9456684548915002 1.370636326228433
P 4.278120124569261 7.791262279899353 12.99499939613322 1.1144068700429 -0.2285492166614451 -1.033406578939433
P 7.669652238512887 4.92579576505963 1.8209612566325781 0.5187483449242034 0.4697888843063652 0.2991951611137815
P -0.3236215141618827 2.7522509903881995 7.328813680571607 -0.030289137901844614 -0.9265332767239461 0.5186899808824421
P 5.689521920369902 6.685689672344758 9.274940682419565 0.8746437869435068 1.8134116580604318 1.043715674174925
P 1.9636818512978722 5.690203054419448 8.317989683573018 -1.3004495808007024 0.8428634092081162 -0.36209360041021516
