# total energy = -381169.8938575962 ev
CRYSTAL
PRIMVEC
9.24540803931461 0.00000000000000 0.00000000000000

0.00000000000000 9.24540803931461 0.00000000000000

0.00000000000000 0.00000000000000 13.53158920569922

PRIMCOORD
 96 1
Ni 7.287646581159194 0.40177769282067777 12.611833859206623 0.8631643255489972 -0.04532803451283807 0.9669538466328379
Ni 0.9497345305705437 3.9899112686775524 6.947091055172151 -0.29792529326242234 0.6911120155330163 0.1303644433588916
Ni 7.944477342802939 4.973308329555299 5.9167282465032605 0.3281740648446348 -0.5270555792383181 -0.26386049036822945
Ni 7.407966320081999 1.3426828588091346 8.5569708261327 0.14260623684072213 0.5455032444205444 0.24307440686081366
Ni 3.9062218360104843 1.8269295904488851 1.1732330220965825 1.1322220438474502 1.564876742305679 -0.08478186963308625
Ni 2.8267742320507487 7.2915943703493005 8.612842675391827 -0.5018276579094647 0.12717344722541968 0.9448151057522697
Ni 3.0181356855795793 2.9034464000918443 5.903845695080559 -1.0177770999322922 0.091873486372545 0.22274443705420993
Ni 1.4688272047337345 5.035381998460148 9.10728709198869 0.45944662184009266 -0.10955727680555327 0.9081213498756617
Ni 8.085682458260752 2.24659714763222 6.305923863659266 -1.7943204457569355 -0.18681712702998146 0.6133433439929695
Ni 5.842903664107487 1.4352109014662289 11.05557930337594 -0.061734758005635625 -1.7602728692539233 -0.18011503241945756
Ni 2.9629498455895518 0.4353422218037228 7.882543279557975 -0.6192615092496174 0.07509909512768358 0.08307131469988274
Ni 7.916842818472198 3.881703014155307 3.2980404109436408 -0.9541299553952921 0.1006985408633427 1.4178384378355324
Ni 7.130964652810896 5.413657864298978 9.994850876871022 -1.0479801058782339 -0.4003019931591364 -0.5053405561587297
Ni 1.5684279844644373 2.4622277970018653 2.2111974051732126 0.8474849671405275 2.577754090943509 1.507112281801701
Ni 8.986675198175002 1.5201484642051104 3.15820546494244 -0.546586450182394 0.10451328662374258 0.07796818914536251
Ni 6.81858080935587 7.44984801804729 1.1383094181464517 -0.9806416285325755 -0.41798269826835116 -0.6457168752276686
Ni 7.935148726192128 2.80156200460012 10.980735877025248 -2.4040089666061375 2.261752142685034 -1.5572796466847114
Ni 5.318707524761772 6.641503511093347 10.968962774555271 -0.1349248090360644 -0.6212692837082655 -0.20576667154929076
Ni 0.2572488532086648 3.1678465763416024 4.919328090760563 1.5579954418048134 0.4201647935213344 -1.676266701444597
Ni 8.967934756281924 6.64217842587292 0.8139536959507513 -0.0013053490749848485 0.08181738768812362 -0.9138006596486262
Ni 6.608257024143416 8.438644397161621 9.388040545801585 -0.5388165764289882 0.049215028272070076 1.3837373823867654
Ni 5.9410621601996505 3.076067411727596 9.571150472744538 0.25398796844952387 1.2608034271639899 -0.9513485359954131
Ni 5.062674442697132 1.0028031721424584 8.633356386527675 0.26608218060989663 0.7341445691434583 -0.16671135741904192
Ni 6.42475416736304 0.2092790541153062 4.99767552672027 1.4779575146146158 1.0303981311304125 0.9475988391449938
P 4.808961958025272 5.082219235080935 9.451449251612877 0.06017409838673507 -0.7107061356148598 -0.02163788998474983
Ni 2.908448165787037 3.237131663439151 12.999107356052036 -0.5571400573285243 -0.8328443344092173 1.8741907370210174
P 8.954630614257187 1.9099348629284405 12.404393716730455 1.8551015816000502 -1.7677432094890397 2.240684523381457
Ni 3.190091027843698 8.446687902068863 3.959951524250063 2.120215741869723 -0.33126710194766174 2.756626252094801
P 1.619897170462843 7.956126556806531 1.367962577737721 -0.4416291340426975 -1.01610896820125 -0.577318074938296
P 8.678951040321412 0.23927947833772872 4.887596001631099 0.45535471115890613 0.19303379736365464 -0.6004140375258111
P 1.3217882368661857 2.7189450392540175 8.704735558523488 0.3730506136423511 0.34105272057951586 -0.8267377072908472
Ni 6.218248735629541 4.469507560123806 7.614238767535426 -0.6162011251567387 -0.354647428544815 -0.044257684266794745
Ni 9.059334859170416 9.258166602314247 0.8677675174025782 -1.2087964379690794 -1.5905852028153769 0.40135768811716044
Ni 3.1386403326611707 6.511087786700764 2.873027158889769 1.182818011627447 -0.29570103191759395 -1.7730060005498756
Ni 5.308879656122234 8.479592308925037 12.883615569155165 -0.425124451519455 -0.2762920312633629 -0.7825687260831167
Ni 7.788008058837246 8.67251623639562 2.8394006856735303 -0.38017591183322264 -0.17033969820024858 1.3362411365780147
Ni 3.429417657761917 1.4892318200558972 10.218500993087266 -0.8640117611509572 -0.031723299245209884 -0.5855011249697207
Ni 0.7851348348629787 6.626858784917404 7.364851284697597 -1.3951916469702939 -1.1147711953608543 0.39599668091556317
Ni 2.000299480127725 1.1386551964033838 4.562919463779903 -1.074607478657775 0.9906478478156681 -0.28370786411145976
Ni 1.0740575311310898 1.590247147201322 6.709097613078788 -0.03991663368927964 0.37627966210261005 1.1527116791603695
Ni 8.467628751051508 3.7333511983603698 8.840458147073262 0.42157092984024175 -0.12280514295439496 -0.8789889512860798
Ni 2.1805202170896294 4.545772930215569 3.643150224881612 -0.3802617866788096 -0.785068609686835 1.1149609427741571
Ni 6.93665391414941 4.670234611895205 1.060275401515889 0.7967244487582085 0.9241832884345309 -0.7367447257704667
Ni 0.8015694720159814 5.94194047395389 5.070124392414667 0.12488670807377203 -0.05708774615192749 0.8787328694112158
Ni 1.5123823215360497 9.26778182657118 9.989222272517539 -0.12072717737944368 -1.6641845734690823 -1.18794684821358
Ni 5.2986912165730615 5.467318211979011 3.4376867506228788 0.9800893555735315 -0.08671533921037324 -1.4099104412377073
Ni 5.5374076495672835 6.238061644843585 5.847378441550137 1.1548312966065337 0.36333647167838073 -0.34651400080440325
Ni 7.533287824699996 7.314236374392787 5.2311766250959 0.9121037315621774 0.37949251261295286 0.3821957704767288
Ni 3.115341904653989 9.184083148496173 0.15235877559585514 -0.8532779196732208 -0.7830063278411676 -1.6230610639558951
Ni 9.17620606093184 5.782965684436631 10.971372127864266 1.7496763246849996 -1.7034733437663758 1.7190940810227684
Ni 6.084726554169334 8.801924211322813 7.240401622048282 -0.47192572814370987 -0.06723486188825839 -1.2174618269535615
Ni 6.234224800548752 2.779345289321843 2.267366956567988 -2.239487160639246 -0.99893734151797 -0.07748816418515042
Ni 5.155396638920953 6.802983806162173 8.04343371760027 0.8710848659476547 -0.9922810125437167 2.264284422188584
Ni 0.6193415569904426 4.158464300819987 12.790328478506249 -2.1173867570613596 -0.8823781794732868 0.923979657064157
Ni 8.355944223144064 9.09685272458833 6.960581954437262 0.1056823672311793 -0.3796776320405655 -0.1400230494945782
Ni 8.592820819958353 7.341112775272501 9.61223151838228 0.7028601572078798 1.4659003263397659 -1.8608310278846596
P 2.3947270736366137 6.964944862443845 10.839290380961012 -1.3666362039301045 0.435013942719025 -2.3692535654028233
Ni 2.350977803267572 4.813492207915557 11.591145445405477 -0.011825017659386088 2.3515173244653242 -1.6791072562171856
P 7.149594149808702 4.530998768328476 12.133910986597392 -0.06468946975858536 0.8613403849663811 0.4749367470558918
Ni 4.09174943712958 0.6833391952874721 5.689695235522006 0.7956795524334619 1.330749003115192 -0.022432617971903303
P 4.1687821760803105 1.4914784541851611 12.360497444375177 -0.48355765595568334 -0.9221922261464311 0.7103909183672862
P 3.0666925680770873 6.364501843822245 5.015523786747201 -0.07705493330247375 -0.6224576475894118 -0.12080945268060483
P 6.712628434370828 0.57177485768324 1.1994261873295773 -0.5656138991274904 -0.21189695281674475 1.0237991377566562
Ni 0.47304869354360013 7.990787591171183 12.014832905960846 0.3883880153303698 -0.16949046282607583 -0.35733680245152005
Ni 3.4546391306204853 4.3250665518872164 1.6983222678492407 1.428630900465346 -0.5951358198460073 -0.4956765507064045
Ni 0.8325933628972909 6.248453483367423 2.800741012375105 -1.213805718258213 -0.7612177712111665 -0.9784631328240181
Ni 1.871631137835681 0.9187115642300282 11.922209635601977 0.905712483323853 -0.2564269169083197 0.0896692796323746
Ni 3.9786965888471113 7.760826559495533 6.378317256906026 -1.5881711940572454 0.7776514912871575 -0.4370664543726795
Ni 0.9840534848414404 8.313424592030957 3.661539341272995 -1.7800677924926633 0.9278743641328729 0.2723019362673633
Ni 3.521437202982346 2.674631799000675 3.518835545188211 1.503354871641798 -0.5925721728838891 0.27479770610602355
Ni 1.856783012685072 5.596855622617355 0.7127645551360666 0.16329513264864134 0.4902420099543943 -0.5997455507038767
Ni 2.5187819573669183 0.4510705097901585 2.351857966103398 -0.538166344439499 -0.1219440805056803 -0.7591768295217377
Ni 4.290239100179655 8.54336713289073 10.466860386562237 -0.9693300601744984 0.4046183611463031 -0.184354781532418
Ni 7.413532055661492 6.781691631677831 12.33608679379289 -0.2537928217195823 -0.015016528013490266 -0.06852529856490779
Ni 3.555746911845304 3.3472444719969037 8.37927408553824 0.04815444821803965 0.13991634871338482 0.5288653787535472
Ni 0.14186708666627176 4.1683568873151 1.7001084806631244 0.8075585632592349 0.7641192611286776 -0.784178750882714
Ni 5.508377068637699 7.826117630363279 3.9025375409466507 -0.5983196168906276 -1.4681029904180394 -0.940647090417509
Ni 4.9765442223340735 5.113265314941299 12.74532275719825 -0.5756532856413634 1.2415615482152424 0.040787466330007176
Ni 5.0677409262479 0.7731204272457831 3.0607376008233467 0.32193862545788426 0.38020830773305486 0.12860683723783659
Ni 3.047489855787041 6.965684495078994 12.71356385638576 1.499769982504017 0.2716948988109837 1.5969011177310757
Ni 4.516233851849321 8.27221780884524 1.6426944973597117 0.547453940389012 -1.4261690691884148 0.47718337699822333
Ni 1.5023325631059674 8.588836049136491 6.114681675892854 0.4588786651517645 -0.5932961955341073 -1.4074372971068663
Ni 4.783953129549309 4.280059906038423 5.267427869626123 -1.0276624773668042 -0.9409024009614247 0.5754380843067638
Ni 1.2756166696170324 1.475151063764255 0.3574968114951229 -0.08597409016897452 1.5785578393371975 0.16726105927492482
Ni 6.004929438244735 2.416342837398832 4.577804570562269 0.14838839074013802 0.6733845163462662 0.6218069013792904
Ni 2.92712388982454 5.421710614614158 6.988970904055854 0.5806301700306645 -0.07601543629436586 -0.5073182487103908
Ni 1.0465616879194393 2.7229667917076377 10.807436252446749 0.7787077004658137 1.0651224219854751 -0.8804675927141353
Ni 7.964539878031346 2.4564401716318276 0.8324417382070854 1.1244645113892182 -1.1001585876540019 -0.9230052089660297
P 7.615100439555374 6.178974242703148 7.752774733721147 0.24459367171881743 0.3615621533867773 0.02745218267368176
Ni 8.435944738043329 0.5523761427448791 10.588062137402456 0.39064647234724337 -0.7679486621770968 -0.3826467419712184
P 5.145966322822808 5.859600870845968 1.1872666268077339 -1.009994627773396 1.239969264027458 1.3320376400196285
Ni 5.67497931970493 3.0152696091183784 13.129051564639713 0.7194697407401028 -1.4631531026119318 0.16643727782204884
P 0.8174697245900892 8.632372675122927 8.097207783797957 0.6544779092497504 0.08698607637325664 1.3876292612420038
P 8.009759168262745 5.994324955338292 3.6244902180376055 0.22278763158731954 0.1431716224258889 0.21190235213338343
P 5.01000335366661 2.6080556164293585 6.763629802727501 0.34501119100663163 -0.5940778108951381 0.20343133854789477
Ni 4.131338273925911 3.4101409822083557 11.133317466952441 1.024078873780604 1.5062525049045672 -1.176680017050509
