# total energy = -340861.282983611 ev
CRYSTAL
PRIMVEC
9.40443013820452 0.00000000000000 0.00000000000000

0.00000000000000 9.40443013820452 0.00000000000000

0.00000000000000 0.00000000000000 13.76433412162870

PRIMCOORD
 96 1
Ni 1.1867920342447738 6.310626398535344 4.359880546511583 -0.41979481177642536 1.0915600473517137 1.1184879820908091
Ni 7.368182756766078 6.219911267489541 3.4924798804558352 -2.4205694420679795 -0.2978463603953709 0.6571225459614489
Ni 4.247332090954487 1.863036376781633 2.158990965157343 0.4442362326482414 -1.2278259437967045 0.06590328756102844
Ni 1.0753777529364983 6.5776463773642355 6.9069979772856485 -0.19718895718260876 -1.816809370888071 1.057241733685818
Ni 2.1888810647844297 4.332169453297861 8.382961184602033 0.7635993840694656 0.4107524990684991 -0.20285104056439257
Ni 8.543623644092722 5.297016941338929 5.253488537436223 0.9336464907299599 -0.75954526860475 -1.4699570129076427
Ni 0.7828369726231585 0.2754294200668294 4.41430398248111 -1.2384561698170413 1.0024780076813766 0.355353196362588
Ni 8.037956851515304 4.175256540017825 10.62552931849295 0.041938549215314876 -0.4522727297994727 -0.06325607974616848
Ni 0.8468294160402396 1.1099578417666265 13.145489576975812 0.8072636577266354 -0.24567687748066722 -0.32250761058747685
Ni 4.257065675925708 3.9338354194417517 12.401223933242477 -0.5949573852866141 -0.5114389557469837 0.04167372558970242
Ni 5.530632385078177 4.1197233813172796 3.8179925920823186 -0.48473907785829423 0.37257804488130675 1.555021446778154
Ni 7.079560802402022 3.3883314617067533 8.282068579492602 0.07859630964766463 -0.09694344469628464 -1.3614636585902293
Ni 3.6234610186637473 5.516064923126078 5.7631127141256115 0.5711849654573646 0.1090350857534961 0.2651969497914659
Ni 9.259310165730358 2.5827197811369205 5.340382648603951 -0.5048885562229757 -0.6999380984650784 -0.42735874016661235
Ni 7.114234935531389 1.0235969617755827 4.5098567522797595 0.37203348523174634 0.2200020984223824 0.29706320237244327
Ni 8.025975607792274 1.6620072827286492 0.03323337446502778 -1.2271628562914092 -0.43069577495964534 0.4548024381998619
Ni 8.886471541397905 2.3417218599074223 2.5662639096561053 0.8757298209188338 -0.753187187597206 0.5002592849810804
Ni 4.591355542000154 7.393678166289733 9.924167624515377 -2.451328063407075 -3.4903540454158146 2.404487191794136
Ni 3.4130839212664212 5.49654132660409 0.3231465570576338 -0.7688223230313018 1.4984947153360193 -2.1169946638292636
Ni 2.1285986689723213 8.816117001137314 7.86829905480242 -0.7874149984318246 1.9535280385997644 0.9703944968832706
Ni 4.6438040476856655 8.426040056754378 12.580491176451591 0.07168955522550235 -0.7201891354046306 -1.717888233640125
Ni 8.160101587366734 8.487601455036135 3.785508750682224 1.1353227942599609 -1.7768855381099398 0.9075767902261016
Ni 7.412637497016287 0.3290863949975601 2.027375968372561 0.8018648553085674 0.5416298775080671 0.2907434308020025
Ni 4.134422505288312 6.667778433754757 2.1076907403655385 -0.3894624793414712 1.2498181317970798 1.3081960575153404
P 7.422041926940173 8.80775646293498 13.824208225025645 1.1663261846200106 1.915168979205592 -2.3363123345901116
P 4.430897158638814 4.3914925972577326 8.051377913459682 -0.30862005397210723 -0.7535301727589215 -1.7629984957152023
P 4.2337144764247 6.090195965549385 12.029559922207518 -0.4905407721417358 0.31873477380860593 -1.4595653852606734
P 2.001685887149482 1.180255955447673 5.897961894361218 0.525665640869327 -0.38976946905892873 1.2493080249298807
P 0.2733359939657724 0.3437808167536317 9.271655360891444 0.6028216185260392 0.7641755682879098 0.19757770798059524
P 5.274032514604952 1.9491809548844272 4.094916376064053 -1.243489875586207 0.7037394744890397 -0.0067874552354786335
P 1.761863519660469 3.3388829691669617 0.6368595304586177 -1.1292331364224553 0.47188896136850345 0.0006941978535471915
P 6.473219587489407 2.302693475723296 10.074638503297551 0.9807367593495432 -1.336239593916118 2.1967867935572425
Ni 8.274798014718446 5.340615878466063 7.3722323042913045 -0.29268847034351525 0.2506200804185555 1.8271596037741433
Ni 7.5504123954012154 0.7703469492412457 8.944958631537544 0.6556055950962902 0.38594469599619985 -0.13691715687574485
Ni 2.4850077542277464 5.905765690312059 10.566645361410522 0.6019309883909698 0.23450363447266712 -0.6235943322970164
Ni 0.22529252325660923 5.4379705370381295 9.185862508467803 0.8310635883597107 0.5948152032817949 1.2115043238185457
Ni 6.081637934318648 8.97869138123153 10.621991371955586 1.5533366028765636 1.1278120877052125 1.815541817029557
Ni 5.598767479876729 6.3991691062687295 13.579781448645896 1.2826950850307586 -0.08402287997987463 0.22219550652927542
Ni 6.255112048694647 4.919701808362705 6.325344331366225 -1.3840713686874164 1.3416507376293603 -0.4131081437848692
Ni 7.0519588005754175 8.81557154420173 7.008660805205847 -0.8587754524526824 -2.23563102011795 -0.23239301588756753
Ni 1.9456260803731984 8.218239773156196 5.687628997784534 -0.5406847399859785 0.9139001613409681 0.0077978987778639895
Ni 6.392040548386424 3.8006969050093002 12.603546136409996 2.9763946372398227 0.6315117873718802 0.2338120077222812
Ni 0.48796013191672555 5.337004577375291 -0.17281110206636427 -0.24824515242847564 1.7338848661786979 1.0119476377347087
Ni 5.828226165589619 5.9934525949223705 8.56652249051439 0.8439741257737916 0.11878728004425348 -1.4726715836253284
Ni -0.1347250417606114 0.4884510431587524 7.0252473982626045 2.52976162222463 -0.3578430526639773 0.21015734441781872
Ni 3.5960188921458487 0.006052691099012928 10.302535113200083 0.4920124715912559 1.7650425227284248 -0.09391442806197374
Ni 1.7106846120146824 4.134638807176562 4.96314369151011 -1.0391738204405134 -1.7780908712719508 3.1931427475012812
Ni 3.857358595300712 8.078245429309233 4.76822653646466 1.0012040260649595 -0.6796510660812682 -0.8661136379853084
Ni 8.285086461055176 4.397549050128715 1.1823869992684255 -0.6733564913218081 -1.374754976382497 1.497226904367189
Ni 3.276484576621979 2.8510375712953078 6.313809798064579 1.0382122278581927 0.542413292641311 0.5187624859915905
Ni -0.01184864126110377 3.249051854534004 12.78032120568928 0.07345564598698962 0.34029964446357525 -0.1982114849098522
Ni 6.638652914280482 2.623873566483845 2.3288424931266607 -0.6609167228965586 -0.409922546968036 -0.4616063484955728
Ni 2.7527142564410814 8.769094851517886 0.5578933537167254 0.0984349416401466 -0.2682681325176219 2.2662058075810134
Ni 9.20130364195983 6.446670881814277 2.3419738986293823 2.085670142684369 0.8891381239049396 -1.0784497352220006
Ni 5.607776923743812 4.891516731880818 1.6786296126191174 1.4357561986562175 -0.3649495818017715 -1.2940074247197841
Ni 1.7457349223410046 7.975699525419181 2.9710728935148096 0.9821002153559732 0.6043740506148236 -1.4996599392887142
P 7.9482668033312045 4.111494505133879 3.4025979819012884 -0.0016023114901133695 0.4231639853589745 0.528728853175683
P 8.885737995863842 7.835244364505945 6.050099238125904 0.20503442136895658 -0.4023233944645394 -1.172317369206439
P 7.687688859000176 6.709440058317571 9.42171432564295 1.6950930901224808 -0.7122775938670378 0.12726420716701306
P 7.799902516851982 5.515434826321177 13.292037868036731 -2.054040174483914 1.3084997047986886 -2.0795581162493604
P 0.2093680020664933 0.05915104289226477 2.397182604497554 -1.0985979280351015 0.18917585707014517 -0.9817592870767865
P 2.884197591206929 0.16900136750419814 12.393281892171757 -1.1370012104036482 0.19997371901659752 -2.4202732509837994
P 0.6340278566085357 3.8252894892602614 6.918821226585958 -0.5370492001159203 1.319576017217508 0.6075025689414764
P 0.8362503728188605 3.532285070551674 10.722595261066353 0.522656678839674 0.21315550781419418 -0.09289678543073679
Ni 5.788210316263486 8.273171048341613 3.2011155943259735 0.5681001558844538 -0.4135868831935007 0.31272841971352594
Ni 8.666652396356996 1.6754838308095776 11.082077714020905 -0.2555794813063598 -0.23479082669578275 -0.38726932834489436
Ni 1.6784650350954493 1.5872044471140612 2.1418269401032592 -0.08305100298490858 -0.4763156296812894 -3.3710242626045295
Ni 3.449676558100261 4.133040054089501 1.9513420928809362 -0.7995416064920294 -1.9491157684646818 1.77229509052578
Ni 4.87111852337591 0.3242553393456599 6.456931114861236 -0.9672423244075341 -1.1781283194612613 -1.0630830229579433
Ni 5.900602658283845 1.4542822345698587 12.396104161591916 -0.2450803815472489 -0.6361078913829948 -0.8519861974449907
Ni 5.506303124865084 9.13588642740928 0.7642848537123088 -1.465584851981876 0.3835000911104492 1.0745995082379751
Ni 3.116703312215159 1.8103433559181006 13.667446723067384 1.417175864550869 1.1965875546077134 0.557711099340646
Ni 9.379724486475792 2.7593537839673448 8.814707277091724 0.6279356399848476 -0.38706081187851404 -0.04250933411712034
Ni 5.747395090393821 2.683309563602804 6.092163372289461 0.22007383220058227 -0.3678269033495665 -0.2213771243930381
Ni 3.928973329171103 7.357029102876351 7.4756575223792385 -0.26252608782752207 0.12096963240755294 -0.008666674536062494
Ni 2.028422681423089 7.291912830083365 12.515082425887972 1.6963557588849882 -0.4965563822081964 -0.2919063407618521
Ni 9.577095257288384 8.31121196738373 13.341493884120462 -1.166804666918326 0.37352035418991797 1.343825890903808
Ni 0.9353448509268456 4.518950836016157 2.9198836409961064 -0.5811875851960313 -2.090857857532896 -2.3295847860582914
Ni 5.29590721860791 1.522793506565367 8.28906077314101 -0.5662494758289602 0.9496140698028097 1.5172462849119095
Ni 2.310602601289284 1.9651590813251094 8.311165885677104 -0.2589944205251798 -1.4752043773495112 0.5094028991535613
Ni 3.1602740360525217 2.366756452364806 10.904105460812312 -0.838820092376678 0.1190050524820144 -0.12755448471392225
Ni 2.0836643027959947 4.6840267944701255 12.283498339012283 -0.26501517279796294 -2.4720730092639105 -0.34827597780083247
Ni 9.347345034247853 7.0432785117556715 11.474196360140319 -1.464065330013556 -1.5264310367349712 -1.146494237495748
Ni 1.5823705701331838 8.396021116437334 10.410502670941254 -1.0361352907245058 0.5937258268723582 -0.05320589459901805
Ni 5.476773214904083 4.108231167950291 9.927856041931525 -1.523111742553751 -0.2390814836513366 1.4022230998957785
Ni 7.315800082090035 7.234009755042 1.3195412052783768 -0.8004774880427376 -1.48275622155484 0.4860619104347758
Ni 6.538749655199044 5.9887974021100465 11.046607025676986 -0.5910392811791305 0.6548437772296013 1.5548764365598575
Ni 2.5577416152590797 2.0987866261136032 3.942890004572469 1.509493123329052 0.6886648395441043 2.6322105701201766
P 5.5214818747622365 2.5814125653775006 0.4429307809981677 -0.5692242421865681 0.13849735687867118 0.01839161513331026
P 5.458857775899079 7.250476911838724 5.984718700852057 1.1747012960575833 -0.5097988490403994 -0.9082265079949583
P 5.429374888087698 8.684605453081696 8.713553228830408 0.45894808493711925 2.574231422502231 -3.579640487787474
P 1.631311223457086 6.820101985231935 0.8433366107665085 0.34161579217183746 0.9051658667917638 1.5386103524099826
P 2.9028465757459947 5.179706082468376 3.7044359816373817 2.196389558118824 1.5403820995984245 -0.8579714684941482
P 3.8148129543250526 8.95535899059037 2.740643670633774 -0.27024942461370877 0.5190406793536416 -0.7801953407549337
P 2.1493448413844134 6.978529011729717 8.869364883366355 -0.4314125985210118 -1.0447065773332846 -1.0903855674276384
P 7.506540729806288 1.436460839864095 6.6545595670537425 -1.6635718795857477 2.897705510768035 -0.06827358756541789
