# total energy = -340875.0679533925 ev
CRYSTAL
PRIMVEC
9.21658703498603 0.00000000000000 0.00000000000000
0.00000000000000 9.21658703498603 0.00000000000000
0.00000000000000 0.00000000000000 13.48940675259632
PRIMCOORD
 96 1
Ni 1.7785984936429569 6.410514021634153 11.981655047315137 -0.17471854399423456 -0.04967602706888864 -0.6927806614846908
Ni 7.9259144451190515 6.394928773301441 7.733611282530513 0.5398216206547348 -0.5273581980804015 0.5776867711316244
Ni 2.54878257224919 8.33282675374665 5.402898684675754 -0.32396542607992596 0.7983838387385025 0.4136097660116361
Ni 5.88565705131896 6.7084125412142495 9.394427326414116 -0.7217461954791053 -0.8537168069828522 0.7075858448183233
Ni 6.243841265366396 4.469906364660372 11.39006353672633 -0.23084469756384116 0.9723608765810222 0.6416393627241853
Ni 6.312643086066397 6.117592458943275 4.837287810707344 0.3305708472115855 -0.6720958794418296 0.09814800652734709
Ni 1.7098519724639476 8.701241379177475 10.454991033062994 0.017142058996925315 0.20522134056878205 0.8069165587998619
Ni 5.497380681265429 3.673390497475452 6.811259512012539 -0.4585991862381327 -0.5646417650222082 1.1996042299468501
Ni 4.917961516905493 0.17327275409806792 12.997353330925094 -0.1468297880037665 0.5755057043199057 0.232975884974231
Ni 4.552874079320976 4.365556168549802 9.521416224759838 0.4830976856001293 -0.6819560600653611 -0.039180269743887365
Ni 2.8356304042178584 1.5014741607819238 0.3569943526874407 0.08427253409683551 0.43009259415800766 -1.9832453631585392
Ni 1.62740038666593 2.851694915065829 12.204095527185245 0.7968542894678535 0.19638085945901662 -0.46797754212923925
Ni 1.6210870246860904 6.061343629508298 0.8372725358141867 1.1737990959582882 3.222724832033773 -0.3838657019799841
Ni 6.991389406713527 4.803132061567073 0.31532985025523413 -0.43590817239852025 -0.8501224047633745 -0.2237512810521695
Ni 3.6143951251645743 0.8384946552280942 7.4186344275509395 -1.2394776691030203 -2.5773571126154065 -0.16084152890182624
Ni 4.162560843577598 7.668043562149821 3.3640956682777343 0.2225500616552167 -0.26837843284324103 0.1625130030669782
Ni 0.029414736873951932 2.672054421125614 3.41431684992466 0.25680152663891903 -0.2896062318737658 1.3131274333786869
Ni 4.120247493432427 8.91981273589556 10.170418776383118 0.41546944492819415 -0.795061973454121 -1.6865786248935666
Ni 6.205601646600917 8.460126251068605 7.722981792937303 0.3389223045000744 -0.13006876649534374 1.314205496934214
Ni 0.9543683498545664 1.6962022073659302 8.19830790395928 -0.2794760854182993 -0.43105058719590283 0.5082207059200021
Ni 8.751527076932224 6.79126965683287 4.325148808561464 0.6632481992432125 -0.8857738354183972 0.11499670265356968
Ni 7.266292542148077 2.78995299987905 10.084855670870656 1.0219384303988335 0.3419574917819723 0.48721119354787057
Ni 7.7203937753549114 1.212423564560435 4.4220566108052894 -1.3307214923113662 -1.0802618487300748 -0.39211328670075696
Ni 6.199196118752759 1.1951332476638243 6.37427071557646 -0.33486021861555876 -0.20286158208735386 -0.590122425791816
P 4.2120170485174775 0.5082671140178059 4.128001407934089 -0.15737953849515476 -0.4123908060028704 -0.892341975554218
P 3.293427488744278 1.026672473550682 11.601442269080817 -0.7644617320697608 0.06172164537951306 1.5718778562138607
P 6.259804393759217 2.559169665608721 13.019408623213788 0.5262572517067389 0.42875330652129384 -0.8373615055532805
P 6.433325074043061 2.867952974237269 4.9881937518818 0.14086405733863483 0.9120363686593519 -0.32989850373490925
P 6.931997721168878 6.631352658712882 11.937517734635934 -0.6974413001851537 -2.2263639929937264 -1.0876483710021334
P 1.5160640177367932 7.530126556797536 2.833881096037167 -0.8204575307090901 -0.6400997861512072 -0.45835878809255254
P 4.7320906102669245 3.9512245075225394 2.2971107655830827 -0.17553332658604606 0.542787388151278 -0.5559740620448812
P 0.2167234310582932 4.581288816523668 4.783491515028332 -0.825546000975591 0.41599703529689 0.5676137031663385
Ni 0.4515500819717693 0.09733729519019074 3.683862383433836 -0.46220541553215233 -1.2540697079845822 -0.9325807684696067
Ni 5.6162470016362125 9.031020072609051 2.008343118577333 -0.36354010304875456 1.2816902979153282 -0.29379661580602956
Ni 1.811584657914263 4.567832599749121 10.204493419559268 0.6762407548481386 0.06004862855246432 -0.9773022797466975
Ni 8.778070847008044 7.354071315134922 11.006047073106497 0.32663423116134066 -0.01511088749950946 0.2002647678944551
Ni 8.799278213308206 5.017039825348225 10.729595551084191 -1.3490976808257087 -1.043345692430016 0.6609501472376552
Ni 2.754321675186994 9.089849546356955 2.148605745278332 -0.29824128184094445 0.8912705968669101 -0.18427970532010846
Ni 2.496257243894293 3.993123111260276 1.0922954934523663 -0.2619876988255488 -3.2019266643414985 -0.6026035889779623
Ni 0.9750595872921419 5.620412898884223 6.641239291407443 -0.748340401027866 0.5080450995740863 0.5821504633299329
Ni 2.072810378490299 1.4508843156617226 4.480857513134015 0.9967493327277155 -0.3921114869285441 -0.7861487301248913
Ni 1.6900731771227286 8.442163123333268 8.072006562991215 1.1069375582490484 -0.6579018473296346 -0.5418983006781054
Ni 8.659167660289933 3.3951693907814247 1.4642483665679518 0.16516535308816072 0.14310580218496 -2.8908514639606793
Ni 7.611767082954348 4.43174969517638 6.308846773950345 1.2394298465842204 0.3238067890148746 -1.1027386896763525
Ni 4.237943307275562 1.7978242937742628 2.000532982895996 -0.3116832662784632 0.7183466828792532 1.5498334748193117
Ni 0.07255020656452685 7.806449046604195 6.366621870164681 0.7271331708226316 1.1040581798187243 -0.017305581157983103
Ni 5.302385353663297 1.6224787292977048 11.004482096662443 1.169009902099761 0.30770217014352813 0.17719888721392707
Ni 8.67247641167517 8.350541033637526 8.932212731819176 -0.5912125735322011 0.6253449964395359 -1.027208163438205
Ni 8.746209106330229 0.46197680665467766 10.906157705022556 -0.5388032066925494 2.290940848433848 0.364568801423585
Ni 4.027454897209037 2.1041744234791944 5.555166837383964 0.12836438220972732 0.3889955670073817 0.09224475366903469
Ni 1.9288380755894678 6.277758304907723 4.449804067121354 1.0404493447188277 -1.4256381363856092 0.9197555916804805
Ni 6.9966428612077 7.9028268951051865 3.485352771272709 0.36787935385405673 1.3281730148578998 0.11535537154456908
Ni 5.312330050854898 1.824239031634437 8.533141895268143 1.1953328562650058 -0.08577945765966517 1.2421037938719577
Ni 2.0669209795047263 3.666828287651152 4.233865889261137 0.9685980671044803 1.3116565052601152 -1.049526110209115
Ni 6.600117645939633 7.7144306436746835 0.23937503651501 -0.9087085898376995 -1.4712667328580016 0.7996925302475969
Ni 0.5766975062684813 1.1875203469406894 0.5986845958146194 -1.9003715091814433 -0.16661365549891305 -0.8423391612735299
P 1.6973174143725878 1.9473173321873916 2.2340481135032952 1.0395360888759386 0.7146905741839046 0.3404767934713878
P 3.6169481197170055 5.006800197378004 11.390697637900365 0.0733232341741834 0.8643771149101758 0.5392145831983551
P 0.47950859812628394 6.33057856404124 9.177598826265939 1.1197943596070585 -0.09880826581916531 -0.621989963924374
P 7.777002051676331 0.8208541080318718 2.1358186527077785 0.7400671052754803 -1.0833309745737019 0.007149723670903816
P 7.471352382570623 8.691951059650938 5.863048763820353 -0.9480726934576189 -0.3313794591558099 -1.1461353114944326
P 0.5513150261334778 8.627444168414595 12.611273273513602 -0.2853356295228699 -0.46251523346308737 0.29939236472625214
P 3.9006070126418426 7.617619615592593 7.822277612829269 0.22933674555974698 -0.18874314040810075 0.5667683244469077
P 6.954421676930847 0.6906827222531008 9.39158124440043 0.5920885483792513 -0.36163363005466104 -0.020455182530558322
Ni 5.706882916540942 5.94569389794184 7.165424372542592 -1.2558365700770178 0.6397426599221047 -0.28040451076983963
Ni 3.2586901729749136 5.282044346525333 7.774727398046223 -0.2830748585131512 0.49108250357781874 -0.9533051455011519
Ni 7.436513684346108 4.410699010852362 3.3469242453512544 0.48695022657700004 0.46988427223364887 0.9874470814901832
Ni 6.4137121772648165 2.436542977810529 2.395205664210854 0.7135490043802937 0.3031939978605294 -0.05013136943875238
Ni 7.614854639543028 2.4914738353285464 7.8630287515064365 -1.2429458301572789 -1.4427969075530829 -0.9178133803524451
Ni 5.881297605747481 6.024062535773335 2.318531956697743 -0.33111334997861686 0.1005537877553623 -0.3452150794873216
Ni 4.255205974411677 7.095398589111317 11.814116853543863 1.2516310166361024 -0.35343206808047517 0.5696091363298126
Ni 7.238670431412926 0.5405242462707103 13.057327504757518 1.4646137463178583 1.7057163741642818 0.22464191118723895
Ni 4.935537547993891 8.034163257459507 5.780952938274045 0.6826057778342179 1.6625632358155753 0.48105083037342966
Ni 1.9426906055977868 3.565399749566289 6.590371105364918 0.9199229704962802 -1.2480481843808504 0.48779869062022446
Ni 2.7178608576800682 8.462421181189745 13.047952392632128 -1.367237327849213 -0.0853606249546917 -0.2638188384970166
Ni 6.377186843650068 8.399020280373227 10.926055394333906 0.2058479184091874 1.502581483810883 0.5165073714088266
Ni 4.569556101486683 4.1015193889900425 4.638966216917587 0.2034979301197721 1.8299191687971517 -1.3687360238819268
Ni 4.4659432323226635 5.360873813698421 0.20151329780963806 -0.3391958698764352 0.33735033202726417 0.27545256608120305
Ni 8.650743699925593 6.515325047086318 13.277595635111354 1.2797457725944477 0.12093595095614013 -1.3351946975913715
Ni 3.2380265852978343 5.554495869862602 2.505927286798304 0.9591870582032257 0.4358762907193203 1.3607599476549856
Ni 3.1370220102072373 6.670477069814223 9.797342401332726 -0.4659610259198427 0.06569477109464815 -1.1475062237000302
Ni 8.477720715330669 2.9476580171593865 12.298170150636949 -0.7684464277491218 0.21101840686653336 0.30232213677853736
Ni 2.923326227923217 1.9832804540053957 9.677138754212635 -0.28442031679745206 0.29287873197745046 0.2735988007019159
Ni 0.01114285347974554 3.865381217770389 8.229333700211445 1.2266879735375198 2.192264994427489 1.0909933762149664
Ni 8.974522395329613 8.265988066041839 1.382542402644633 -0.24209327389446691 0.04194009187721164 0.6400247099388977
Ni 4.158763609802863 3.2206256693592406 12.437745219960288 0.09265227352009851 -0.3897453006892127 0.3825768079652314
Ni 0.595327914890448 5.26371255531672 2.588104218308732 -0.3886312416894275 -1.149799133499265 1.9291496097554002
Ni 9.096015442947483 2.4621558726163295 5.909128933003714 0.6145371071907545 0.1680195347075042 0.228095159843162
P 8.071619466344277 6.1622007392095846 1.7718196940281075 -1.7826234690349816 0.4172370783515782 1.6401154483350204
P 4.293851122997759 7.578495204491253 0.8250835997290226 0.6090717132008092 -0.21087056843475943 0.4291037478821771
P 4.193021663056968 6.278256000596644 4.987923705887626 -1.3594360866372392 -1.7737575340039196 0.05935545914018164
P 6.764716670170217 4.693869424675109 8.918035777954374 0.061971556606790046 -0.4764770949598181 -0.40490015405278007
P 0.7335232611650555 2.644441526977295 10.146057494069087 -1.2376850959789718 0.050957207774157395 0.5899982415091258
P 3.671897410408687 2.962837735671496 7.830559637756399 -1.368665061434675 1.688903416372001 -0.44929590655933593
P 1.393981108561682 0.8133868293806809 6.352418188198068 -0.29011865273381005 -1.4534464168471293 0.3526926188112894
P 0.6300762905640102 4.616680509958096 13.221290584496703 -0.5931000203629011 -1.73173825214934 -0.6608249345137006
