# total energy = -340877.4526898215 ev
CRYSTAL
PRIMVEC
9.14167020117846 0.00000000000000 0.00000000000000
0.00000000000000 9.14167020117846 0.00000000000000
0.00000000000000 0.00000000000000 13.37975839361002
PRIMCOORD
 96 1
Ni 7.512213159159762 4.153801227217566 2.7644986477390643 1.8492458941502217 -0.9337912438379403 0.36261244902816264
Ni 8.600199891122742 4.719460351469112 8.646227286191898 0.3458887085155785 0.519327614466441 0.893619556715061
Ni 5.453097664839751 0.7797552109743395 13.224218463660694 -0.19927077941230198 -0.17746731038396532 0.379070851694502
Ni 4.861924139182416 4.474235049530626 6.422979503387483 1.0760200427345856 -0.7898367204994398 1.0805482696222424
Ni 7.743753380874504 1.6174814090768324 12.374135470008145 0.42458811940001073 -0.6679456047188819 -1.9569432349289004
Ni 7.068211381346143 8.303497844535027 7.301347738670147 0.5794844864619956 0.026600376196347735 -0.5649626386967367
Ni 7.303088312667877 1.823104995898915 6.162903558280345 0.3619102807548154 -1.9746069707572507 1.7958589938886491
Ni 2.7770199933519306 6.123264362316302 11.562251859270047 0.020262864014094134 1.2651956426944144 2.2996556025990262
Ni 3.883801999155938 8.557288891409817 1.3922306564295148 -0.2861123597878944 -0.16833295218286493 -0.4747498278560663
Ni 7.2838085303085744 5.150325549268356 0.6917510948822156 -1.5078345046797064 1.23332321946585 -0.6580995651627376
Ni 6.18893812071802 1.3589458353910049 9.126841452980862 0.9580675998868017 1.0020717733818933 -0.3195873516168883
Ni 1.221637949645765 6.4492014700633575 5.9097186041369065 0.15076126184768873 1.129666881525764 -0.4370150323094538
Ni 2.5077612405729495 8.601114058138357 12.330691510925115 1.56291884724836 -0.3257034918169552 -1.6959641798735243
Ni 4.787547510792051 7.767165198144381 11.350276640023479 0.39473966858001047 -1.0823339007677553 0.9130766369984081
Ni 4.789622669917495 1.8628712610781288 6.595819232695612 1.24756738808969 0.8632625416897584 0.27940692274326073
Ni 1.8088714154658032 8.872100586576849 4.92843436040342 0.547445969969212 0.048114081898407456 -0.6419736061351524
Ni 4.7659914525638705 1.6005967442984397 2.1387540680522497 -0.05565358480856222 0.8751058141815897 -0.5950720564876074
Ni 2.636229131277201 3.506762955236053 2.4118751764722006 1.115196455823731 0.5223062374787907 -0.7899897011375362
Ni 5.4308285563393905 8.413920078351055 8.94238814590637 -0.5561429835225777 -2.3035940184214843 0.9037558738181145
Ni 7.0997867100654535 6.201078258685375 11.883619960273064 -0.9887148924590133 -1.713886311569584 -0.8692699242261029
Ni 6.098371594481129 4.421697871143283 10.244680308838722 1.0469681196739518 -0.949954226751048 -0.23306047426823734
Ni 0.25430846540562785 5.237555365898255 11.581853428418846 -1.3934813491474065 1.3207348134122998 0.9409612792238183
Ni 3.6876948909663985 0.9107727134851387 8.508897460438284 -0.20264303831864452 1.2370135238332438 0.3676896064407538
Ni 5.321091947785073 4.28096185908949 2.144681526981492 -1.4270188187832198 -0.09633692146053732 0.18505412159228773
P 7.277765886335366 3.883993974229217 12.081440217449865 0.2094531192619425 0.5664826748856889 -0.7798852657136827
P 7.407541035871946 3.8612769238912064 6.0656197328127215 -0.6288357832016138 -0.6909487504822746 -2.6327052503684083
P 1.1226885118756933 6.7139625211255165 12.977388798609805 -0.3609075505219139 0.2484135596855399 -0.12349599837383249
P 2.3534407066671306 8.321324101339501 7.576114347718204 -1.0455882086072896 0.47262326843136665 -1.1462191294574904
P 4.615519561793787 3.015709001128776 8.881831894458061 0.23555033056962657 -0.5233997276532857 0.030865065009972648
P 1.1718615556455765 2.116452049539328 4.79323180129514 -0.07801369767131726 -0.5478249505751855 -0.028598637573299134
P 4.345502050391847 6.993341102767347 0.017424937484620623 -0.20576795710087145 -0.5682816757676405 -0.26467424451877647
P 8.237659536070497 7.605348494710527 5.550205056073359 1.2421932682619703 2.4615384282811736 0.3579096442358546
Ni 0.28657033355366557 0.26635535833739066 6.634152083994343 -0.6568551512326752 -1.0586604684102154 -0.046573219773848824
Ni 9.15282299373163 8.27901645185688 2.7491653243861687 0.5972880903023198 0.5885579095181734 0.8190418813084862
Ni 0.8967100822839467 7.40762331090335 10.7714014032272 0.6988170974867578 1.3042594414650959 0.37800847186825864
Ni 0.4019619792665727 2.735059727335243 6.94401447893884 -0.692741066496007 1.9323110382025175 -1.226106904223069
Ni 1.2827043062887877 1.4696240359714055 8.701151354657009 0.049745446854243355 -0.9654587501445503 0.3812354634459886
Ni 3.4269104664221604 6.064620548264656 7.716347567913409 0.36882346293488094 1.0240220524007395 -0.2545471833871035
Ni 2.3651877528177723 3.809626487509009 12.810569773266511 0.2327123469001992 1.2195061110770997 -0.2697711994257096
Ni 1.1974490904126154 8.600638691290238 0.708778369715044 0.42419062685127595 -0.06616708274537636 1.43087804462831
Ni 1.9603031816022811 5.628901123612501 9.46763743139971 -1.825643167129617 0.6802827861279961 -0.1507813164523468
Ni 3.860801557043087 6.335369393279088 5.193928573412103 -0.17568913543762002 0.9822354553822568 0.30750650919295425
Ni 6.503100757303966 7.62431746028452 0.18191375110511498 -1.6389774780758353 -0.2015552045711045 1.348762408973477
Ni 2.9158179713326215 2.4077513690647656 10.814109457862662 -1.5215577678030698 -1.4495663650664323 -1.359373094609788
Ni 6.0824376633989745 7.803667887077853 4.556276054179899 1.794843665250257 -0.4844506000835979 1.1781509451690808
Ni 8.390471694400553 6.311473067490935 3.9263701862380094 0.09494235510585584 -0.2952001810217755 0.03767540306358673
Ni 0.4291401646407803 7.475408795111138 8.461961383355607 -0.26488996007400833 -0.41766979501362256 -1.0885749965814606
Ni 6.380053877002306 8.80702103673528 2.32758257846347 -0.2529772677968224 -0.20984109872898055 0.046731085507951776
Ni 4.624039598379311 0.826451776298924 10.822712683646605 -0.23409740017318395 -0.5669878966568815 -0.1018701925739407
Ni 2.561431986059654 6.182666934990906 1.1404535194901222 0.5113402253855904 0.176484891866038 0.4347277789371739
Ni 4.3437194247113995 8.520137143895258 6.769047482985377 0.0896566812268843 0.27951670884824764 -1.4542712267412694
Ni 4.139192838308053 8.74706082218115 3.888519100956507 -1.057569549338882 1.170057883748301 -0.08588692977180692
Ni 2.072855424564691 5.7032320436520845 3.717512276514684 -0.286679545145274 0.2997710882219095 -1.13615300347074
Ni 6.187813695288814 5.352447876420637 4.5976064591228285 0.3564276603736894 0.5521549454091071 -0.26331670204961743
Ni 6.661535042780048 2.8012545609358606 0.45843098998807214 -1.881659791704553 1.0726536973655139 1.596402323717786
Ni 0.1419710516918875 4.196264285092842 4.66859884122139 0.1326871779547973 -0.7910613369351602 0.6462856032469451
P 4.30867940300291 3.3092206048319994 0.4782848692331795 -0.12214796898637029 -0.2528605397133 0.16406826336924002
P 8.350815129263212 1.4212554591752629 8.227828583984584 -2.402364489024179 -0.635208519497177 -0.42728289262335445
P 5.710335121363406 0.7499094862485698 5.008190861680674 -0.27071787960969507 0.5543074729757357 -0.14463560856592508
P 0.9477992201185571 1.8433446536246114 0.5013145646905303 -0.07906913551902511 -1.0614100061308946 1.7459248280623672
P 6.95078662819051 1.8076372899947242 2.3291613448994357 1.140361642235449 -0.009183466271480959 1.365005353194901
P 1.1206956277816544 3.830487778805323 10.48637235526186 1.6548537829864596 -2.338897578818785 -1.6468242278137637
P 4.577673047347362 6.243906983366895 9.842310611083185 0.3270821173320367 0.7786758187866137 -0.9795679358524227
P 4.18906979067996 4.433664317377672 4.080331452506692 -0.672642495973919 -0.5060398962185995 -0.10490255164236127
Ni 4.86236293934991 5.133998526369488 12.226650162878073 0.3896067182288193 1.5305100919003511 1.9636833818662118
Ni 2.27516972679025 1.0700873417972572 2.279094245788282 0.7981177295613093 -0.9104343142795546 0.31708104025526684
Ni 2.9641408397779836 8.07260668140137 9.633479212203312 0.1413476818432727 -0.6433972259555564 0.6525426399002503
Ni 3.6883256662071724 2.12319860211456 4.208281924680105 -0.22661574708415808 0.16581995595302412 1.0069363005630463
Ni 4.677070426955085 6.625452870673758 2.8578497267055147 -1.2574867040859312 -0.5405723827778303 -0.5450730988616612
Ni 8.035162400441815 0.8242148096117162 4.154307675744217 -0.6718081729980817 -0.8297890925226613 0.2041065102380485
Ni 9.169003749908 3.830195245360327 13.484923355674574 -0.21904513382575178 -0.9390020986149182 1.0210082052750804
Ni 3.6719620766276795 4.435894884895769 10.363773416797851 0.534869418855782 -0.9650851688552153 -1.378018477625117
Ni 8.050721523047567 5.6823341856751455 6.490226543223072 0.5615430714922265 2.018132404843711 0.8265821555495894
Ni 8.28190521962622 2.7500063580405336 10.009918562560957 -0.0991057424549261 0.2824181987657588 0.7533298838226574
Ni 0.2927299909048735 2.014586418989447 2.6894784457697076 -1.2221432915896309 1.250646027015014 -0.2652776824307302
Ni 2.3944959473383607 3.4716863668469395 8.345008340380032 1.2309560047852544 0.2669185604682629 -0.1457280702991555
Ni 0.8419624480528487 1.8787960504901269 11.793975828554931 -1.079246005871051 1.4110602385714344 0.6992071338363248
Ni 2.677494630362022 4.133908952957804 5.806587766437416 -1.5446051365408369 0.14478293277706678 -0.44210067436247724
Ni 8.410967318890622 0.21005821101482672 10.093408521929979 0.09809607024348913 -0.24199068687833164 -0.04514342930585774
Ni 3.040025843744111 1.568948282217879 13.264853187504741 0.5603894175037575 -0.084379491988345 0.2866299228542612
Ni 6.63203487318618 3.4167175041980626 7.940097258321088 -0.18915580246548713 0.2370593110149853 1.3420567148185274
Ni 4.894093676461876 2.91636647154199 11.743025644106693 1.744378309510854 -1.0085733219458373 1.6332228349802451
Ni 8.366438243560058 8.085149052855595 12.263619076989508 1.7355100604869464 -0.5720730244892728 -0.7083057537034834
Ni 6.130742248504025 2.9590123628203884 4.42250508061807 -0.7629715206774795 -0.9402105171007227 -0.7238838106473984
Ni 6.448159319665557 5.946080511349974 8.568023040507157 -0.01868729199685814 1.508823608065853 -0.7467419461924946
Ni 2.5516229739821146 1.7751843609404232 6.397344431935632 -0.7045306029317673 -1.1083706911511493 0.6071544415734382
Ni 8.203295997953564 0.06083141572000998 0.7404314026306827 -1.0730303639786423 2.314554631198046 1.8421658473749887
Ni 0.06996303003897936 6.1151557008878035 1.654741942466248 0.4937024576991691 0.4963162411729323 -1.0606574442355863
P 1.6301700472535563 0.5325425099439083 10.535034379670016 1.0709518841830588 -3.174067476037385 -0.4397519716246427
P 5.499226532447639 6.702681700152839 6.6660098903214795 0.5656478376892194 -0.6080892946828818 0.04986423182029477
P 0.6133009382702748 4.2421097609258895 2.473448895808889 0.16865151186454827 0.5076429790396612 0.4700259400178357
P 6.58420565492925 9.011209381342848 11.626354164571925 -0.3290353844036656 0.9374486380848693 -0.8269778483261113
P 6.7460040750227925 6.597342234943625 2.501359328962604 1.0068820502863434 -0.6112178130095344 -0.9181604792792187
P 1.2475088761876443 5.1323621674115385 7.514018639015599 -0.07450851273153619 -0.5787761475410612 -0.7727494259998497
P 2.3007664032274455 7.9678888497627725 2.9450054958071488 -0.5473294989960058 -0.811497493302325 -0.4882979988541462
P 8.107198761272207 6.772880585281847 10.133093426244802 0.048885412846793236 -0.08672279540954096 -1.8865124918111638
