# total energy = -340862.1363147855 ev
CRYSTAL
PRIMVEC
9.31432055035135 0.00000000000000 0.00000000000000

0.00000000000000 9.31432055035135 0.00000000000000

0.00000000000000 0.00000000000000 13.63244963139287

PRIMCOORD
 96 1
Ni 7.243942708404373 4.178087521023755 8.251067591569782 0.21344578536110337 -0.9854606471877738 1.0539592062798042
Ni 7.3695742642591835 9.601201644064167 9.337464794246543 -2.870847767145243 0.0854542131097625 2.8579086904860715
Ni 3.9913633365470824 9.20332181225442 10.677725666936205 -1.0738420612466604 0.534583255073931 -0.0026826890384857023
Ni 1.8658446966811544 2.7769622205662072 6.140450933184586 -0.19453763560269077 -1.316842934557061 -1.0598370052168198
Ni 3.9521127896630253 3.115416687136211 10.014942832373409 0.8838259676634069 -1.5787162192919326 0.328338358336641
Ni 8.110956924388143 8.969569623217327 1.2323786861139838 0.6957019488965438 -0.39910257353439654 0.13959907458328216
Ni 3.645066212056724 1.3964867688134426 0.8607214610063438 1.002808394437602 0.42923024615771244 -0.7550530371613512
Ni 5.398505688093169 8.808329419821522 13.026405181918518 0.03847604458801115 0.2953410774750139 -0.04973979042728854
Ni 4.164982271981072 7.103268524828218 9.795228255868105 0.5393313112818776 -0.8095246858466704 -0.5150210166712873
Ni 2.3833483475777446 9.241640927081427 5.046459764946703 -1.2207705796118202 -0.15398722498415415 -0.5028733255651597
Ni 7.950452552317407 2.5792937094192054 12.356698081443618 3.3056619351486356 1.3218540146184075 -0.2594862725599338
Ni 8.785574534667807 0.9621413719702137 8.013671640325514 1.659417748208058 0.947309332929033 -1.3480247594765042
Ni 3.203325244680524 9.358936166025645 7.131407087271676 -0.43389037063754304 1.1200116178241872 0.18607330688542145
Ni 8.866022321435155 5.80814950678345 7.276388212679628 1.0995178687462097 0.4900502056585625 -0.14098464207689912
Ni 1.5470900181177434 2.460927323609381 9.07903431285793 1.2509273057008587 1.1606360762137689 -0.6509007334214532
Ni 8.457375135045918 2.4784382462819075 1.2109352572965948 3.2285195843386787 0.5778595492640629 -0.2776161493914251
Ni 9.046841226670136 8.11413310770268 9.231076624690374 -0.5352802811409555 -0.5640558106117513 -0.2372151198665592
Ni 8.599269494616808 7.749328428238752 5.266856149717764 -0.17313757266035987 1.8651283697084329 2.518400174465224
Ni 8.738742130839368 5.851014010048859 4.280820751188065 0.045674619218979404 -2.365291238320965 -0.6117400040615916
Ni 7.372787704856003 6.85996915720637 0.10693026301337354 0.08713648590819187 -0.5530548315155571 -0.6333637529789543
Ni 3.5864511927066114 4.618654884008073 4.834176153392539 1.7073814205715305 -1.7447665460882078 0.8990654103209805
Ni -0.03738488847378769 3.311725307479921 7.529420113865584 0.07848755198394225 0.9487581495604176 -0.19334567217711862
Ni 4.559369233576886 2.73354817238714 2.895791528108386 -0.05094923735435742 0.0307863892532373 -0.31934721058162424
Ni 7.835979552506048 9.24022515035471 12.160963223247048 1.5525385324553005 0.01166380949117346 0.2254045003848763
P 3.041749725744182 7.267694225859131 4.049314244840518 2.816799579150588 -0.21995324746231795 0.4595101280881763
P 1.770289081948467 9.080121294068507 1.3357098956589186 -2.576636175288982 1.3298506596706388 1.1677197225334277
P 0.9842721976457051 4.710522027794846 2.2446506628266474 0.7117556599252969 0.9225390679628886 -1.2159926986072025
P 1.0039533570111567 0.5559065946087327 6.677678589321252 0.8583792454555282 0.086680886428012 -0.519983245772569
P 9.37737852075522 4.772275973177214 9.342385549803936 -1.5988093904973821 -1.404123402242285 -1.24584732007479
P 3.4269061956546376 1.3931988136520583 8.940201570458562 0.3410234100034772 -0.9781376311637994 -0.31540390966316006
P 6.458745484311814 2.3010935826197207 8.815832105041054 0.035310759486152095 -1.3506133461392869 0.7972013883946271
P 5.936873417067663 5.439786756861594 2.499523073757332 0.3095389662419508 -1.1273767999400068 -1.4828894046985943
Ni 9.30781917473478 3.335467510614108 3.491052058559508 -1.634706104393991 0.23009779209548759 1.2553002379575735
Ni 1.1803200170134414 1.0534682851638972 3.185889768004618 -1.9588610207769035 -0.5246076319184578 0.020674497630216008
Ni 1.6750128968328941 0.037888793216651354 8.998521325846589 0.07787485810060782 -0.08032229119983586 0.9618180680681693
Ni 0.8440180899272788 4.2027145846121385 11.232442822808085 -1.5684500614792343 -0.2833774773552345 1.5018608035947747
Ni 1.7013444810856777 6.831094763437842 11.575217271258685 0.6006372092802108 0.9886449584530264 -0.46103993446914143
Ni 4.415835553585588 6.352329371793933 0.23402975579009258 1.060575168934425 0.37838513848138705 0.084317528402158
Ni 1.1631909814843047 7.70678992619331 3.544096182776409 -1.9534246802526811 1.1996343118538373 0.5188367908729516
Ni 7.601500846464457 4.356587160436683 10.807410815103292 0.5585665053624057 1.356140189494787 -0.03034673061265741
Ni 5.629109636777435 3.4283592296636343 12.025129692071378 -0.6793170797806172 0.54619024318524 -0.8259172682720808
Ni 8.345724374367418 6.875011784927716 11.201756793688597 2.8435902169808704 -0.9875314136738734 -0.878449790953158
Ni 6.309120238667416 3.513715663371632 0.6448369331196286 0.8792835997083631 -0.1648758468721999 0.337761965643386
Ni 6.684859930481102 1.4589672312003095 1.6241017520266365 -3.8159793756966667 -1.272918979480601 0.08222696442171645
Ni 3.74304355013774 5.596379114292723 2.769977411570395 0.15862395242521712 -0.8412914367353059 -0.45051332390620474
Ni 6.443181254638521 0.704473733436324 6.463307638527243 -0.2808374845422002 1.2733432115022134 0.24964897475453776
Ni 2.2219125434499603 3.1583277620044723 3.63671499223322 0.9504887590982792 0.5095725919622062 0.20876560627661467
Ni 9.057366408914794 6.69729454844271 2.0482479678451755 1.0621458558556545 -0.43304833435222195 -2.031869809034462
Ni 2.402899106455209 6.081114985422317 5.904786514134372 -1.5878248664614203 1.0715193266507546 -0.7508780798480551
Ni 2.9670954463716805 8.52961700539066 -0.2547960335020067 0.3053673513627644 0.9121412696683322 -1.1725382269679936
Ni 2.785978482878445 4.439037526126687 7.484078932760481 -0.21243379915682123 -0.8312214540938136 1.281943808687031
Ni 6.55122737325624 -0.03006662680155135 3.4185959588416437 0.6292325044194002 0.8193013056174598 0.013462810373125201
Ni 8.709439278324599 1.7058712408829373 5.826209042937579 -0.5249148787462314 0.3363967098647432 -2.136998103534384
Ni 3.3250075286134444 0.27442410124020655 2.7352284758180563 0.6465350002535897 -1.2858418581898563 1.6960158590470662
Ni 1.2328434707104512 7.7724931434975675 6.971388922734722 -0.4154933561875941 -0.1859815185025636 0.9207410955222013
Ni 6.487638506721484 5.959041500025437 7.174348899397821 -1.2189191282253782 1.2463306874691116 -0.275754413592338
P 0.6639461932020521 4.589510374943001 5.595275367305119 -0.16027305799286592 -0.5697549178790575 0.6806206290833892
P 7.938735137039727 1.654549334539521 3.5853884287295186 -0.18142989457613914 0.7178820845380087 0.298504305694344
P 2.7551387674695422 3.6073432137462276 12.098349566076022 1.8409386598361068 -1.0860630287928845 0.5668295167021463
P 6.218268355822826 5.529399835070307 12.278611474940888 0.013529401945002507 -0.47384274266076454 0.22063896067543293
P 3.2578978489030423 6.406575974796484 7.933663489489093 -0.6117896263526044 0.6873780024118807 0.9667337602022319
P 5.537093463861534 4.142944589511285 6.392774014575127 -0.6354098368747056 0.6301622153225211 -0.22024326789891102
P 6.379909075003162 7.9748560722120985 5.508913918407565 -0.3043106279634759 -0.7799266604745794 -0.9511549319273683
P 0.7384011461143446 2.155724981476037 13.299449832282235 -0.9788912215003721 0.2795622173742024 -0.6832434114182169
Ni 1.5145737250061524 1.592692931630877 11.327733910836573 0.12900201579372622 -0.002763678788066208 0.4486775562490466
Ni 5.352753745450907 7.378478754724574 2.9931131380212386 -1.312355845319985 0.9997698647215943 -0.5900198387756806
Ni 5.0403980051194255 9.264041868053463 8.394194235752149 1.1145770770721772 -0.3652439731137387 1.0755675285781992
Ni 1.2771610079848568 6.437788263028206 9.320015346089782 1.4943143587060845 0.43011496275551087 -1.3156514853521213
Ni 7.146058513529063 8.25960416637264 7.468605983428779 2.0865144929625354 -1.5631494752019273 0.1413286556798792
Ni 4.423557125338528 7.435240224281158 6.474186764953578 0.3130590635800673 0.013634045843666844 -0.436749437352893
Ni 0.5701109334787345 7.779544084169431 13.41306218887288 -0.5267640161398284 1.2143302233031152 0.7493338752893869
Ni 8.080629496610618 4.769211561709522 1.421018826332007 -0.19105019127472259 0.2059214519596002 0.04024676333518876
Ni 4.22010442111725 2.5653408572046072 6.8448669178333725 -0.3349149831128942 -1.204756720682067 0.7287629931165708
Ni 4.041427809613483 1.547928306969088 12.308206797121573 -0.709198697831398 1.6313698409319068 -0.4914614841837923
Ni 5.769467133454193 5.778194651828745 4.772843215299957 0.4772977910889005 0.09280088328282082 0.24918360508234505
Ni 4.701291536109488 9.235661133275169 4.672004517939686 -0.08740799440202365 -0.4901774752650461 1.4125782178778576
Ni 5.872064374538174 2.3214081157839663 5.056003217803229 -0.723804877780347 -0.071620906771096 -0.8115098345974991
Ni 1.8120265524248458 2.5367738360149046 1.4660470462659412 -0.6333239008799544 1.6050386592365453 -0.5889685146930308
Ni 2.8533396492442495 4.972198549902276 10.430910143298997 0.9632558289559604 1.4429023227826956 -0.8694704702726832
Ni 7.506364376157443 4.024410545931191 5.756465273369843 1.7376096233284526 0.12913545604779694 -0.4614852495366762
Ni 6.719807261261592 3.745539788050632 3.503430790597694 1.1525954652974795 0.14651842741093477 -1.5159157390259441
Ni 5.97061920049456 1.0135471071987645 11.013056110386866 -0.04738388860060226 0.8785102118774484 -2.2122113556424288
Ni 8.736413550696746 2.4570711948931963 9.966043580810378 -1.07088272150802 -0.396540212123859 -0.08416557620532601
Ni 2.1414926996443238 5.303117731130751 -0.23571005922100954 -0.1747098022434862 -0.5312315649928786 0.6424955400768935
Ni 4.228608395798109 4.045255995367955 0.7783651699541019 -2.2561191127689724 -0.3061250554643954 -0.085937066283452
Ni 2.3901105443119226 7.091746710282518 1.5679634105162181 -0.41012180746303556 -1.3319296536868546 0.13192818830158567
Ni 5.477975471200615 4.886721030026861 9.901411510371727 -0.03191381798946117 1.0856411107641173 0.30881005849572624
Ni 6.40764712166209 7.557248509434046 11.430795005084962 -3.757837220138296 -0.14666215207765065 -2.046186225657134
P 5.002283805344968 9.03388500675658 1.3906867413941966 0.7054194332946239 -0.0666296242040917 2.1324462224976437
P 9.34505782837561 5.810319743476375 12.749312527834864 -0.3266560855382116 -1.2067760651049408 1.2754551156388938
P 3.5952532256457275 1.780115690150337 4.65136491498753 0.022393794314167884 0.8311026691277621 0.47656322691572117
P 6.485822214210238 7.268122684605373 9.14553297313891 -0.693892920712263 -0.6146708045551413 1.3555496070986395
P 6.447475156421518 1.4872734514140378 12.925075619864181 -2.070841305201653 -0.6255524844646516 3.006519738759977
P 8.201724978347597 8.061088052053723 3.2545568021144065 0.7619862739460748 -0.032953057887252925 -0.6761484522446484
P 0.7136781450240851 8.867661641855562 11.172337512166695 -0.7132299304779781 -0.7538471897787082 -0.07143655867443181
P 3.90648193318818 7.303153844270998 11.982145965502665 0.47730113352301023 -0.9849657098292263 -1.2117164398293518
