# total energy = -340876.2072197479 ev
CRYSTAL
PRIMVEC
9.17281161990137 0.00000000000000 0.00000000000000
0.00000000000000 9.17281161990137 0.00000000000000
0.00000000000000 0.00000000000000 13.42533700773022
PRIMCOORD
 96 1
Ni 5.772028457043155 8.047940633396841 3.534112818617889 -0.24270493933653686 0.6961398077649108 -0.29996186407647696
Ni 3.181232000457039 5.75992951840337 1.3043142012709747 -0.7141922943912474 -2.4043156992132784 0.2614899332535238
Ni 7.052965747682216 5.230694974232714 9.165316601230831 0.09531850749835198 0.7014244532026178 0.047584434647182566
Ni 8.76792379698702 9.185653642063485 10.468688754739633 0.9735474406899555 -0.2794876553825251 0.6138174554159107
Ni 0.506030999679979 3.2797113069291717 4.8910248394903775 0.3229408414701535 0.21636861543485317 1.8958713073182445
Ni 5.278265175738347 2.059085253254928 9.160362365628597 -1.5891975784392307 0.5883833316135222 3.385730715576769
Ni 1.7135087450553077 3.5775891942592795 6.952753697078881 0.5165096854016719 0.06387031629139968 1.418083463966803
Ni 9.142422180494636 3.2636130223857114 2.8044183992749114 -1.7997917532841519 -1.8207979232221738 -2.2173854436442006
Ni 5.4185725035883605 0.848303461103215 5.31827239399265 0.2503755685079172 0.4932468582189892 0.4203995352399599
Ni 7.771453742964369 4.768770522358305 0.8803826182003035 -0.08399614050699727 -0.34606020109643626 -0.8466339319941418
Ni 4.418754373293138 7.7748018192369415 5.380955720064555 -0.03957339141724797 0.01997412912908173 -0.470984447276363
Ni 0.08523651821264881 5.533544525507297 2.898047122917083 0.279369384637106 1.7661763792225518 1.007503743030742
Ni 8.309640951359764 0.8079247439748312 2.121163173754258 -0.08297644099323129 -0.4375325953758207 -0.02592906116093599
Ni 2.9176420832827468 4.571472515380929 5.130720499452555 0.04981795196339162 -0.5754810217295573 -0.7451625175205167
Ni 2.6713245705502415 -0.005894448802067101 4.860307844931582 -0.0238364402979654 1.1369891262187901 -0.8725761057812004
Ni 7.863236896891359 2.854037806915593 9.741357251692037 0.34252750535282944 0.6540241095417832 -0.6469705451291116
Ni 7.369620380573841 2.205804376487208 4.889212291897336 0.04914483715576697 2.32755130056803 0.8138078866030566
Ni 3.7975348733379675 0.3003912377374625 0.6800172229885504 0.04189304068936011 -0.1492250277088204 0.05220033615263913
Ni 4.661898093175479 4.678060587400879 9.043347558542804 0.05256389013964496 0.12822297153585657 -0.012986127847022796
Ni 9.137010221588287 5.1364901980154265 10.629027668792501 -0.624101353840422 1.2774958002180063 -0.026303413781219216
Ni 2.089584852176299 5.671191737962664 8.853553828821843 0.3380087915468695 0.1081107741670138 -0.36150018980059034
Ni 6.776937497835028 6.518942995801198 5.032152216706878 -1.4018492614961275 -1.2378499036916102 1.709846080061939
Ni 6.497827183254732 2.1337244221040095 7.43593155367534 1.8797579466961496 0.8526256308012026 -2.1990264815210385
Ni 3.8822641350632923 3.5471171137730253 11.316780323892447 -1.062064866106074 0.3854533581820781 0.9468344501751434
P 3.279729652552583 2.274765574890477 5.103480917811382 1.112353329947981 0.23922315143552347 0.18106659769944947
P 2.4317307287979966 8.500389570779287 12.173706227998997 -0.20429831453388042 0.6668390019182644 0.4638676337259237
P 1.7958530757371571 4.373248054421281 2.486788696498973 1.930194763190463 0.06173398667468723 0.03437924881081821
P 7.531667272166305 4.438090660368702 4.230605328711003 -0.33859603150890716 -0.4737704946619325 -0.43164065537141794
P 3.4740006316670855 6.208654294233311 10.611815804907971 -0.3042234675663083 -0.48028104208694056 -1.00102867682936
P 5.0366441425991475 2.0874842782956993 1.282056373667153 0.5346125656499695 0.048589735983245355 0.09010765272137385
P 5.925939064652685 7.87282248512379 6.938375314730235 1.1705975583018549 -1.4238617612114768 -0.0710398374566454
P 0.7227616082558278 3.867404180100098 9.130960752268393 0.9198391525332222 -1.1884158174301986 -0.4824189143655498
Ni 1.8982399999959072 7.788726147406157 10.116353718875272 1.5124532343986405 1.146715609477935 -1.2436546832988453
Ni 1.0679996397035088 1.4889766601237817 9.215768900174389 -0.007630777072380406 0.604734776388352 -0.2918778015167618
Ni 4.127875341294461 7.034253211802637 12.58209172979089 -0.6044187878098299 1.2607365784817965 0.18627076760820824
Ni 0.3877989604808448 3.4249811259119554 0.3574626376078346 1.0372760891971684 -0.7841723231248108 -0.5422276589930661
Ni 4.466535549468001 1.0731547598820983 3.2251954524000013 -0.7211998360573321 0.09874244557823639 -0.8584535503368893
Ni 2.6837262119763152 7.778104031450985 7.102110920957714 -0.41273327694395373 -0.45078894616509463 0.4155954289830971
Ni 4.805535151674653 0.3917698706682317 7.519208759307657 -1.1081318356674659 -0.04892706471800606 0.8474104051488502
Ni 1.0460582741035327 3.173031506792165 11.264462275047956 0.3945144399430819 -0.6756121201252041 -0.38124651918958213
Ni 5.742070054012419 3.786142241199518 13.141592883465592 -1.324686598971196 0.8452681619948668 0.8301233359336285
Ni 3.9578022394595305 3.64909126150502 2.957413560276215 -0.7568612940146836 -0.38311468274657245 -1.4531036887957298
Ni 4.245654243595334 5.920206057336638 3.7451718777161185 0.4112980871593239 1.5135426108080772 -0.8245782377456832
Ni 5.311287297878779 4.0163614693885625 4.7416676156115445 1.5890065454743474 -0.41755023871662283 1.841080841840926
Ni 6.497524480468446 3.4908786052055287 2.429221047515324 -0.573932960516147 -0.2070409102760241 0.9348461674650158
Ni 8.308934644858429 8.783967044660248 13.229353759459642 -0.5191689774013898 0.16003548806076306 0.5492341722178863
Ni 2.107059058475611 1.7609780456321786 12.820270206696948 -0.46700566513427316 -1.3301147119653027 0.9212620010226779
Ni 0.41302786179613477 8.42009994991951 8.038608214767487 1.200205353865959 1.9471550451938853 1.6113972544647217
Ni 8.52880694144347 7.877335508482982 4.457010501792828 0.9239171792573379 -0.5400764169780182 -0.162766513838681
Ni 6.534435874772083 6.7586744297290275 0.12340367043879416 -0.1903094564539561 1.0143320788064853 -0.7967025943813375
Ni 8.818805383518402 5.353353812361007 5.664123169262271 1.624210604179306 0.7929598395094537 -1.4791605337837817
Ni 7.2969808846765964 2.169672671178552 0.5240363117770496 0.013823793256969742 -0.6193610109419591 -0.6620444087430986
Ni 3.3005060710659384 3.4248251881129588 0.4874808225675914 1.4981686994551682 -0.9881482213222659 1.702927498565235
Ni 7.754199684145994 3.6511826625739143 11.982328353696465 1.349927890036488 0.6088745095883386 0.705881460532707
Ni 1.8186842040725835 6.8667576700570025 4.515344080553901 -0.0863463859067287 -0.3009579094411591 0.29967570029462587
Ni 7.673240448031702 0.11206515788940863 6.691979833098231 -0.5806173145148581 -0.2950058056227823 -0.8687392485336135
P 2.1403380193438015 4.53291001497027 12.705913680443462 -1.2171257837703813 1.2967595335436248 -1.2574710203566473
P 5.960859958816192 3.4671668869463574 10.878322676204666 -0.2235646189626601 -0.4559995438317566 -1.1824989377251311
P 8.068808780027254 1.0175400025105876 8.717796215577845 -0.4084971273754191 -0.25439034609426514 -1.273112583548646
P 1.0216127309079075 1.5233013215264197 1.443142871874033 0.7048779589688571 0.22870271152017385 -0.3462828586302036
P 9.070865076378661 1.5098356339424879 12.276007845108884 -0.4816018177808932 0.3764791797079258 0.017473731304731198
P 1.7517685426796803 5.636142424435278 6.567728594857833 -0.22732845688046655 1.9214311580652197 -0.3719594374607013
P 3.469056486157726 8.176827810673288 2.7897712535432886 -1.2397471207143231 0.43764083881891075 1.0144652619502401
P 2.9645977064041 0.18247290869866234 8.795045966638362 0.7347814313965086 -0.3965512678674526 0.48898396917757725
Ni 2.8108980734638007 3.2110252928770735 9.29336721807972 -0.43589608821366216 -0.6098996084187432 -0.9912384302118153
Ni 5.0623463609984505 9.051785628030855 10.387263539790693 0.10305084314560317 0.2797249682043118 0.5617927256091872
Ni 0.1674845343715885 1.8650069031862448 6.8608173571964075 -1.0770803656783 -1.2661844889702452 -0.11628174001358037
Ni 7.132420642676777 8.110948677003126 9.046811212242867 -0.1020763950474758 0.14600652077152274 -1.5406093851178821
Ni 6.898633190734225 7.598371958889978 11.229811061548597 0.3945576344761914 -0.3570655510680044 0.9217708223382964
Ni 1.2183970604297647 8.802184248707718 2.5884454649459516 0.5787033853215969 -0.7223581180314914 0.6501574274975255
Ni 2.4589648067521472 1.2460806061574936 7.030016290075787 0.3025486509670467 0.11197514221842651 -0.5122686507371307
Ni 4.998219234364073 1.6036092880096091 12.323734901694683 -1.8382408012889695 0.8756303192264919 0.6114376423298243
Ni 4.821147277197713 7.271251147842176 1.4524606140046579 -0.8009379726189239 1.049575989610444 0.9231576753834939
Ni 8.262621118556472 6.919033523967648 7.132277546814169 -1.718789662408472 -0.8065067249559529 0.2117784249610095
Ni 4.870203474199665 7.272489477422442 8.90835587507623 -0.7919905336176489 -0.7126905130347403 0.15473361623187543
Ni 8.582568790850434 4.0021711296798825 7.448055258906732 -1.9962163214969104 -0.004450322461869755 0.3997396928977632
Ni 6.279239080308484 9.057903893438542 1.3570468612045623 -0.06036667401351539 0.9858884787538117 -0.2916448595703493
Ni 7.021392929791281 1.204087474168911 11.436104844965728 0.7240635307583724 -0.016918115911577315 -0.35461811796877635
Ni 5.390191824171 5.673365694336909 11.21637289239978 1.7289684027136867 -0.9472843932283685 -0.26785598468086774
Ni 4.155723997632892 3.1292771949560927 7.137339104313361 0.5821885156567198 -0.24967699977899582 -0.6392400092540733
Ni 0.12304226165759054 0.9234177815986507 4.353380661547959 0.7400565637525189 0.4426195229804248 0.6346410770294812
Ni 2.1074443165672494 7.703675837271133 0.7222213296463635 0.17820393143967375 1.0188556777084516 -0.49865723060128314
Ni 7.015476466241121 6.1283555005618275 2.673025209840474 -0.40903680192897296 0.7982552835804382 0.7277286383147854
Ni 0.6782019235519973 5.931011629525924 0.5179015353082937 0.4645466620708193 -0.27640387425087887 0.10681159573961603
Ni 0.3862194023051274 7.301649845834786 11.768972422547133 1.2764143942283694 0.6394387555284406 0.46809658420560674
Ni 2.0239533844221906 2.1122233514659063 3.2951950130883523 0.504997056776382 -0.07894263724348985 0.2682570767740283
Ni 2.9409777162619855 1.0015976557661235 10.780518488674073 0.1199152230011096 0.26592200088294843 -0.2988544899449111
Ni 4.515894449256241 6.076217238826768 6.818379343840099 0.34672817369773834 -2.232764240093116 0.22758839541007256
P 8.157977682618125 6.075960400099008 12.534941643061375 -0.05278989010752198 -2.661682611437364 -0.5745716225414105
P 5.720468082445553 8.800514796977286 12.633416363127655 0.07845001387778747 -0.8513259381531725 0.07421155031640768
P 0.8692789296305832 8.934401156633326 6.069702707953397 -0.26607703840357405 -0.39224878383735673 -1.616528662154016
P 6.131162380943763 4.374036916227969 7.2810302824015976 -0.2956753208859811 0.1095045691907469 0.04148012152165759
P 9.096814960694017 6.9790053668993535 9.541615607676272 -1.0519367765331367 -0.3051449509393132 -0.19215062342775296
P 8.523761895005348 7.499608295254969 1.7892082909375655 0.886821302846305 0.8265921828519185 0.09796854352668934
P 5.548202678612967 5.303554617610894 1.3961945870020442 -1.708427859558174 -1.8462001653453624 0.10182416982735366
P 7.172854396675396 0.4111813747997823 3.9313148283782215 -0.5962005136650957 -0.9339033439357722 -0.29044621127655784
