# total energy = -340867.77478141856 ev
CRYSTAL
PRIMVEC
9.31117173310233 0.00000000000000 0.00000000000000
0.00000000000000 9.31117173310233 0.00000000000000
0.00000000000000 0.00000000000000 13.62784101905748
PRIMCOORD
 96 1
Ni 8.067804159096148 4.537324530042637 0.7525875359124177 0.7589109774548607 0.879297226555118 -0.6531987854270106
Ni 3.9227499705197686 5.091581320997099 13.039322579999801 -1.3482949824187553 1.051301456941983 -1.163151129326139
Ni 3.9913360593241665 4.279144368439551 9.656305835227178 0.8427142852247616 0.9023294257842331 0.2440560540477926
Ni -0.10455141959666807 9.240648624462793 9.76333961312893 0.36866122632540377 -1.2514628664893543 0.01339878990440918
Ni 0.9110124623259963 1.2208435541239988 11.887620060497843 0.4757805831134258 0.944221952252961 0.47889110371794946
Ni 6.741120519248611 8.295033986842892 0.8077832290733717 0.0704328000002658 0.749196064159942 0.6629142129425615
Ni 6.409270369236565 5.0526420020478735 5.1801873595080306 1.594166492408732 0.443887591059571 0.5310425889105241
Ni 9.092433397529803 4.088442266239868 8.436028400326544 -1.4596638585117505 -1.2841608709430077 0.8222133370579324
Ni 8.754009560483288 5.846279699474268 4.106027344615646 -0.7570165886456253 1.615192974061728 -0.2818450998711081
Ni 7.6898730216427555 1.1149569125432754 11.077348886416525 -0.5737671243622442 0.932099200847498 -0.35804077049708016
Ni 3.3441630886006193 0.6249211332235806 8.82162821857539 -1.2156412288050547 -0.6659290885094854 -0.10285723907755834
Ni 1.3709955047158686 7.814139915639971 8.371214267071245 0.5623200588675671 0.08997832623236116 -0.0032678721179943723
Ni 1.181736634088909 2.0543609988147464 7.524053162873971 0.07316742532260948 0.6615538422599252 -2.6912847505745137
Ni 8.660422976370745 4.962975421110275 11.676879386248752 -0.7629959461575118 1.1986945736483872 0.025157215991917965
Ni 5.904223119326258 2.9002529903451695 4.328978689087123 -0.5922538703125221 -0.31840438705238067 -0.22744184252987923
Ni 4.9565414016473595 1.6089424907865142 10.743263124142473 0.3685673810600169 0.47011747129037745 -1.2458583758183834
Ni 4.974716808292239 4.557734617832379 1.3633156505146917 -0.3780447244228328 -0.13962864226963695 1.324003199750926
Ni 8.738478526526496 9.0290150088729 2.9964075955400173 -0.09547894433561621 -0.7291208906766217 0.4148343824473566
Ni 5.334854297129666 8.126539028520277 12.480512626212684 1.5858140066789785 -1.723697898343367 -0.4173756608119715
Ni 6.224303948642029 3.1803237159964683 8.79578971783792 -0.051303278259666484 -1.82938335089834 0.6676612407092437
Ni 0.7866152119286639 2.0863821173863353 9.621023944418377 -1.0495245675472182 0.5955286844090518 2.3440940354180597
Ni 1.4746474651517294 4.283045749271623 10.582181720517939 0.4547224768915459 -1.205620354233943 -0.3775600714769304
Ni 0.7747043614265481 8.258683173553132 12.195063767939418 0.15187094997209974 -0.20917029791420108 -0.2426038949822983
Ni 9.069108913080303 2.1957883817702166 1.0433558664276013 0.9083542918220743 0.4136187648727006 1.12432824292167
P 6.770357597560558 9.090524607385234 9.60890824814465 -0.39612137941888553 0.40031227757178156 -0.3454642193836502
P 0.000635021891998358 6.5226897485097615 10.273048035460562 1.036439452228486 0.3331072404801941 0.5776024389479343
P 7.334800810067017 0.8642247569725865 1.7728461104735802 0.09005700198909651 -0.3429213983571384 -0.35865217882883393
P 7.98770946239571 3.2672435013601735 10.078605635694666 0.12046003976098608 -0.7260394235378206 1.2430016230958785
P 9.175125911061143 6.641733075330862 2.0297580905269568 0.5914899955633038 0.026835117914973138 0.03794485467488949
P 4.315765205700981 6.437222505890217 9.18063998678609 0.6395783664300985 -0.4597980916422404 -0.25161715422450215
P 6.82257464697884 6.121266525521005 12.998643003109015 -0.950210565736228 0.0438427082165632 -0.35358196339477815
P 1.2527436274669073 3.669290572835204 12.79429351693423 -0.4432031633980367 0.34404728443146554 0.7801817139081789
Ni 0.5895219216546751 8.108093597903727 5.329684734747885 -2.8307688968464864 0.8933243940721454 0.9279448123594922
Ni 1.5648075381754847 5.173128560441698 8.336068319365424 1.6781970856980908 1.382681173208109 3.077289353274371
Ni 7.44701904822485 8.438360848771495 6.492453581502632 1.0181509383319431 -0.35493899164330484 1.289253969195199
Ni 1.4696659884329741 5.987409124943756 12.068597575248798 -0.5600433470182484 0.24503024503560378 1.9008659323193586
Ni 7.451302187085836 7.803776581830672 11.155640940326773 0.7446506108811047 -0.9066355093587546 0.7481473111804534
Ni 0.550453177422477 4.116776160922434 2.8770141686728894 -1.339676644622125 -0.22647176530712607 -1.051389131559783
Ni 3.47099055474299 2.6723155135692194 7.506105879929295 1.1730640175644764 0.4074118647310403 -0.06209188423473823
Ni 3.5942890869107647 0.30871002675699644 12.091955579915473 -2.2838057800509635 0.16619893655899767 -0.12155867214180355
Ni 2.263005728373386 0.5823653552882536 5.752352326487132 -0.17744931266183633 -0.5879120484040585 -0.07884030733767067
Ni 4.350402763446346 9.083727452236277 0.4944399634093608 -0.9079711974510427 1.383233189056837 2.4196829256979684
Ni 2.8525797925881076 2.7419258312316783 4.871939166854306 -0.8615188195257744 -0.5212245743788378 -1.0012641898789338
Ni 4.761565471758128 0.9426071292457738 5.837785117772359 -1.4735118201384365 -0.4708834029221245 -1.517869006097573
Ni 1.8124195201976594 8.397233404534592 3.4380318012077025 0.15975626625744743 0.2324058714033739 -1.4326626473325583
Ni 0.6539785059267959 6.094496907639843 6.4979183080189635 -0.759815234436685 -0.005384918460997178 -0.799372942124649
Ni 5.759453025824932 5.007482820578782 7.7027419916857305 -1.873514536889599 1.1046436200085492 -1.332038925571209
Ni 5.88431583479411 1.3550082233586662 13.050714798252882 0.7164962599340756 -0.3664760457486269 0.12358855808763877
Ni 0.45417380253037404 3.9473221519418167 5.2118453423935795 0.7206143958675073 -0.42138375353010005 0.7125488452505535
Ni 1.7244103277758345 1.3131917524354313 2.877940630230863 -0.1486825249417891 0.5486824134794744 0.07551227140570221
Ni 5.222608125457522 7.203950917863894 6.028643647652182 1.1950034979500452 -0.6122933054619003 -0.7098551004684742
Ni 3.2067860652202125 2.7291695263630897 12.099627985179499 -0.6436836468477238 0.5229130178248542 -0.09935719634409985
Ni 8.167415071128383 7.263942795432009 8.582664452583831 3.8070237091652754 1.0381631197878123 -0.29451498202929277
Ni 4.412433787559148 1.6588038138312533 1.961672942745866 -0.17281078544856046 0.7724151825888826 0.27379523298343816
Ni 0.9276301099894783 8.551500892901583 0.9958297851792433 0.9286300113519748 0.5550955160946698 0.29853001672595686
Ni 7.199556044945666 5.48587218666517 9.654275999853928 0.2594883294424628 -1.4299344497681181 0.1687168178848449
P 1.9921903071303912 8.930698349670397 10.512598405252646 0.8531159401740597 0.8134003667519928 -0.8690256694257806
P 5.574039669001422 2.791107438761522 6.577940377582194 0.627968292994996 1.1814514702972234 0.8834351599828913
P 0.2281628071247238 0.11090629410237013 7.2967413968185815 0.02874261935033114 -1.4530268128112074 -0.30585920339751843
P 2.9892398557678717 7.447354250396579 13.226241553244662 -0.2781655941369919 -0.7953640780755721 -0.051534163323549965
P 7.350452889252489 4.243287047235949 2.976279636244814 0.634564972375907 -0.4180899132701767 1.296208289025845
P 3.8332230571537247 8.512189127094882 6.783189322917786 -1.2747989701121334 0.928988166022342 1.5962177185108057
P 2.5068466859636063 1.0041074165866706 0.7452149503686595 -0.5079520256396478 0.39707654424330324 -0.3182933153958131
P 3.739236092669393 0.8223291410921376 3.8302676913396443 -0.2359182554320066 -0.5198027543306467 0.5633667549645265
Ni 4.070900019252699 4.500843360352761 5.773816438883533 1.8640405359608931 0.3747323722201482 -0.36226843542518256
Ni 1.422793551419488 5.4693727908789365 0.7046862144551514 -0.48347846597831573 0.17211787314659388 0.8095177438681349
Ni 7.036554677770837 1.2408625727133897 5.98612418328546 1.2397350365294648 1.1684316609987877 -0.8628920457242171
Ni 5.610148391833822 0.6791540512579565 8.039145304530432 0.35594069343494183 -0.11774855436709397 0.2803021808640205
Ni 3.2638542349571322 6.245887244032824 7.289640697480781 0.9533617097707001 1.1308606447235492 -0.3208186529208281
Ni 4.850850294666811 6.99789469396472 1.1752132273801987 -1.7564663510236393 -1.5472276617653482 0.5308492419527954
Ni 5.096516241858669 6.38805020953181 3.8325712751531396 -0.06627943995352456 0.03434736713161827 -0.7315978914622046
Ni 7.960632575857129 3.5404518936624583 6.538869771115707 -1.7117538386076132 -1.1027777704444042 -0.6169881398344084
Ni 6.089766832549884 7.390863373288748 8.217451444196136 -3.173273262270864 0.561564154538149 0.5640198151674931
Ni 2.6999324480511415 7.333646224808838 5.1967593824314715 1.4495013161564518 -0.9296234856134956 0.7344029650111674
Ni 6.812583760027018 6.063015837011596 2.123994594405798 0.8489006165411316 1.418437761982428 -0.20778884418564217
Ni 8.192992859065619 1.548401254103621 8.219605118149497 -1.4598291804450212 0.11937631977850409 -0.04539205498155409
Ni 6.291614406959567 3.9067626891625666 11.482845746908936 -0.04307471970228711 -0.130195264770879 -0.5086418526178207
Ni 6.186565770808167 9.20370189620107 3.5895729785779613 -1.549422612534138 1.9624338257298268 -1.4398434813517138
Ni 2.714094739806707 6.84953048828874 10.508114145088625 0.19606178555670103 0.05272278431501243 -1.00502802779674
Ni 8.147926789310896 2.2473164045021656 3.514756784965117 0.24575169658266063 -0.29313635651421127 -0.04272427834140384
Ni 6.56152664457318 2.8205959187022667 1.4895499950365296 -0.06189982282859016 -0.46868202439543155 -0.3162963395704424
Ni 8.607330676837393 7.154061661304844 -0.03278184127798561 0.1408990243416283 -1.1023491675474175 -0.006278633919860155
Ni 8.31836778246383 2.92827030519888 12.540843430421104 0.41792073468216406 -1.395381651493913 0.19923658374025688
Ni 8.277789697341703 0.5451392918834232 13.306332525476526 -0.07263649251980393 -1.2956837839809427 -0.2623391686276966
Ni 2.291591024684749 5.124095931654844 4.109257389987116 0.8797384278575946 0.6185822237944056 -0.5189419489922483
Ni 2.1502195087579006 3.2476993525140654 1.475309489440895 1.1577893507935932 -0.2480286655422954 -1.289985448044585
Ni 4.537585242842871 8.422056987585437 10.388257953001078 0.8839352395477615 0.1571802780001551 -2.175951087758814
Ni 5.456085749238444 6.1907092420976 11.042720639842596 -0.5454122273686348 -0.389368119855452 0.6359996479399046
P 2.812243797923344 2.5655815553877357 9.74515955089833 0.8669682726761198 -0.5303645890068931 0.31016400142045936
P 0.5772330375922201 1.8494593601737515 4.745241125994909 0.37848566861499333 -0.584093960209549 0.10367973497885369
P 4.154160514241692 3.8473760377378525 3.3041520538190046 -0.7882472645251328 0.4846655443078814 -0.09775951283967681
P 7.2369497094363595 7.820722913845878 4.553851859343181 1.3255078093209107 -2.7113139013112466 -0.11039854175992601
P 2.14410206912384 4.269134859144856 6.626237423825529 -0.33226109042981483 -0.5890793292392823 -1.3693618303913837
P 5.11235454447288 3.300335404647009 13.171089622589461 -0.09898155817223599 -0.15914048705031947 0.5282999931683804
P 3.28255106720248 6.943861966116239 2.9750803573637383 -0.38475607500473735 -0.3984564553099654 -0.3630173977760651
P 7.776280692577429 5.513451876461345 7.337066218077621 0.48786708196431466 1.0440805137135116 -0.56925998052051
