# total energy = -340895.6358580267 ev
CRYSTAL
PRIMVEC
9.05352859247751 0.00000000000000 0.00000000000000
0.00000000000000 9.05352859247751 0.00000000000000
0.00000000000000 0.00000000000000 13.25075423979065
PRIMCOORD
 96 1
Ni 6.382620117139668 1.8759454911821665 11.423012036198369 0.21545818780544185 -0.14446360176443507 0.22533970858521193
Ni 4.570402415270704 0.4884134349220181 5.912394316249656 -0.37846227157622564 -1.2976105686900103 0.2988912567201175
Ni 2.7744357976206895 1.70353914200028 4.868777753647934 -0.2788801037055133 -0.7003253066011681 -0.22930049300517283
Ni 3.5958624668047765 4.172979660975829 4.95309236212853 -1.1383803501393621 1.1159695865443295 0.04733015254453139
Ni 4.985126463126811 4.746194784228571 2.493646033609415 0.8467018091176 -0.6512740576004719 0.47904022770130406
Ni 7.3847733284845924 6.072020704159414 2.5095865817900873 0.03348707601385201 -0.39025823576988916 0.33796662545502437
Ni 5.048745610094259 4.562218025223944 11.517343468957431 0.5989035144185557 0.04668043477567445 -0.21317684797043288
Ni 5.831604246535877 8.059985507342184 12.275857166421469 -0.561228368465285 -0.49279254429038993 0.6722838270829196
Ni 2.011920440421402 6.315569682752174 0.38087018756645663 -0.20617933360667717 0.5320795148154708 0.16722892048540877
Ni 2.7202323206185386 1.4832848930428186 0.5673466258762941 0.23129386928611778 0.10354655183509909 -0.9961109278127683
Ni 0.5604107174528187 0.18976105856311637 4.667922500877629 0.6912976491812611 -0.46457982930159986 0.7997187554998421
Ni 8.656296182596343 2.295006179339599 1.3962315920963546 -0.49351168184460165 -0.2686447991307503 0.1147784159951765
Ni 6.6968318881162245 0.855981272603848 4.849338921934001 0.24133968355789404 -1.6951159729406162 -1.2299545601039334
Ni 0.7483438685486336 7.258521869190289 2.227862493605333 0.09647139015587257 0.5689385926253492 0.6752413670493468
Ni 7.602239090567715 3.950217584537226 3.9951420998591525 0.5899033678024744 -0.39739870346941236 -0.9879831564993112
Ni 7.757661019696815 3.72569006998013 12.719730860996103 -0.4262904468030981 0.19753219945464046 -0.893201495341036
Ni 7.868648229412761 9.033991297608155 6.908532363051365 0.1788593056354855 -0.6547571310530659 0.20985395424478698
Ni 6.698497737417776 0.7721637028550739 0.5723568487212901 1.5443976485157207 0.08904732977765954 -1.2158967964592866
Ni 1.7262544457915605 6.474712612223328 9.143855869751315 0.4960182503165393 0.6437823772091171 0.14200819824540703
Ni 0.13681783277170553 4.6867493140438174 1.3075396024347763 -0.17529987041900133 0.7244335125032814 0.7532308963509479
Ni 6.299499669109479 1.8691734516302025 7.04570418879965 -0.3294274776357617 1.1268142425683174 0.5079273430492993
Ni 3.474744358347323 4.2583725447380285 0.5665997097492392 -0.6458102062724232 0.20359511781926873 -0.4314295678018763
Ni 5.892561656032367 5.633612624929057 4.715585708665423 0.6101536334110783 -0.7423574439715537 0.8952048989243098
Ni 5.365954099107848 2.8423825313606494 9.323801092375609 -0.6731695721219826 0.0029508550982078213 -0.4052503383033473
P 0.34146289270304236 5.441388101175981 12.441425385291057 -0.1997585176819979 -1.295073918311086 0.26454800335355727
P 4.096205736643403 6.137803644513118 12.716430849743844 -0.14930498901713643 -0.1536648086477289 -1.1384271442168976
P 2.567010398990946 8.347887723588782 1.4176721590307948 -1.3465319769810618 0.8490281432579313 0.46454614785018705
P 6.511506153318491 7.72355637665905 5.60997205049311 -0.4574897552240379 0.1915227600357669 0.371344943805154
P 4.683933666583042 0.9687094759104922 12.673763379154945 -0.3736561084368339 -0.27654451359380117 -1.0581002250313711
P 3.946967367693436 6.31419354637263 8.067563310958485 -0.2562803640281263 0.06048982985494098 0.16009616609536942
P 4.697495852744596 1.1613685690465816 3.703823987191489 0.11067030736407392 -0.7114859512036779 0.13934762069410842
P 0.3130139891146244 5.487054100507676 3.618528881540468 -0.4418962716611551 -0.04388358875682765 -0.337224090862045
Ni 1.4044196035546386 1.1714360930863996 2.5551294531299265 0.044298821917375324 -0.6735794059658916 0.7149250587922139
Ni 1.9297234523301163 6.696361104617959 4.529624416145033 -0.4124897934745799 0.19539175607286996 1.3360660444527312
Ni 5.731571806683403 5.697503377760889 9.130843232788697 1.6038652077537345 -0.16607140984219787 0.8533715078282915
Ni 8.594161814354191 2.526930426936742 10.294047857478512 0.5047116643254791 -0.5292497586761594 0.5944981862620083
Ni 2.2883880497774522 5.423742773519861 6.943951578472747 0.016541192188132804 -0.5331812325200818 -0.21635190326430484
Ni 0.5013255777148138 -0.09282220950597127 9.194818183438489 0.38005172755053257 0.27596215872776986 -0.1377404241079886
Ni 1.4551012578486153 1.1208087599652996 11.493293675019146 0.2684419390913248 -0.034864673087668996 -0.8880196940297803
Ni 4.197089208204279 6.775072484116322 1.5001977902179842 -0.024852283156989455 1.2952029876897824 0.9424931424873123
Ni 5.669410277854814 7.917247572079797 7.817388959980528 -0.45126460024993253 -0.24652405597231092 -0.17712586788414658
Ni 5.418573208567761 2.847769381004257 4.787364801151836 0.24829734582264976 1.1324590995589205 0.7704940543067698
Ni 0.721052911295371 7.5899987196128285 6.784624862366692 -0.3257672551753551 -0.8641341456614344 0.4721735824884578
Ni 5.07636792650207 4.595879045349884 7.0347457975246535 0.1474576513957525 -0.5375256255317065 -0.4066611026079448
Ni 8.065182232880723 7.038946634893787 9.23816104727682 1.272832590414382 0.3154015956703149 -1.145564783702943
Ni 4.514741320129694 0.18574310247600187 10.50310470200032 -0.0003237018880058941 0.7744242425991115 -0.61961066505892
Ni 8.384310070002622 7.26297620536618 4.509801714809438 -0.6218274702045806 -0.5367365539715079 0.5728063031108716
Ni 7.125561745045712 6.142303248333072 7.06271848549752 0.6057477910338986 -0.6908824160207133 -0.9282962821616401
Ni 2.3701233078992856 5.1633813919217575 2.648415203311113 -0.5741949559282821 -0.3989285098503774 -0.1559770017206733
Ni 2.437463455208789 5.303249358550491 11.467441323494237 -0.6835159483533132 -0.7027426577934092 -0.42383915704912817
Ni 1.089836637896758 3.3340072529525626 4.1440273811854205 -0.06960747588549303 -0.4107720394525248 -1.9078886434940947
Ni 3.672654498194829 2.8085857083025187 2.6760293715429917 -0.17879657071835012 -0.506071006566851 0.11368646848257839
Ni 1.0297936348103605 3.3928461367068596 8.32384607782643 -0.00362911211215504 0.2989938437362528 -1.6690532144152934
Ni 3.7777207000672117 2.4632116911523525 7.087563179265567 -0.4360482975208103 0.8916570336720514 0.1705235320762805
Ni 4.133977058850347 7.013316094824789 5.948780448548243 0.08615432450058065 0.05770583935190062 -0.24860073599568153
Ni 0.6407879462527342 7.264542465850792 11.507564752486742 2.019539055383251 -0.36968478249391173 -0.7853902546923118
P 0.07156180779490555 5.6584464544625295 7.83241510175111 0.9171276671393302 0.09012179378876092 0.6168459578295893
P 8.581151893450217 1.690330043462425 8.263183813369237 -0.47029796273229973 -0.6637693618540051 -0.8708267271902616
P 1.8166901451024813 3.4963370245658183 10.269070076836917 0.6756581428717913 -0.6469371207880149 1.7252467308877253
P 3.9370265930569968 6.160518948304398 3.8319857410652896 0.122451359159402 -0.16241401559526866 -0.028900742194750226
P 6.8922794681266515 3.9172084184858083 10.490516675539022 -0.159445419885248 1.0966567451483307 -0.023612240102301268
P 6.44336024194465 7.719581877510237 10.226826311396456 -2.1836237738127235 0.2546104325248712 0.24744553934531577
P 2.396224631466548 8.549781416113913 5.896718131110316 0.7170454475693264 0.5202241581387815 -0.8393140012939609
P 6.872035777701261 3.9510867233032543 1.5283026597115164 0.607641922732818 0.5314375103560977 0.2539558296600078
Ni 5.219259771754274 2.775612756366352 0.31904273395105875 0.5432489011687289 0.9662779036117359 0.4524023133988015
Ni 1.3329057794624406 1.1043856586989054 7.025602638776621 0.3822078546615869 0.6713926827272179 0.30317265770429075
Ni 6.760224696863353 0.6065158129319321 9.107879862307946 0.642580643591532 0.08926304533289142 1.2995386389506587
Ni 2.7466686247518743 1.7358330792754881 9.325682415662905 0.1919577906906565 -0.5178823973794823 -0.12155558681801
Ni 6.314265974603132 2.143685498762691 2.537612685582948 0.5025095144678378 -0.25861081193351587 0.5235473089747434
Ni 4.098251834155093 6.818475101244819 10.509147027129973 0.0536794918013269 0.429077522629932 -0.052493441913025726
Ni 8.258248734813387 6.968483020143872 0.34150544428846247 0.017455990692918325 0.6922265887534336 0.040565837237504336
Ni 7.606177375601278 3.841213097631281 8.291951401171865 -0.32662111853521814 -0.08969653332588423 -0.23579458536994877
Ni 3.1073340520668364 8.28291960082823 12.380524107673208 0.17750973358612657 0.0694696647560481 0.8475119637237211
Ni 0.04227002067401724 4.99016022514672 10.07400546109527 0.2539920822145819 -0.6646350522884101 0.5180109525375466
Ni 8.364573377190748 2.1945663306905496 5.860729448726611 1.610889975811 0.6917090256870667 0.43003165901308515
Ni 3.6031415039702566 2.7377056312272163 11.565577049060433 -0.5669578147498945 -0.613708183531556 -0.0620368626270867
Ni 1.249151584415356 3.2893824094343396 12.638477250607112 -0.28306868786556405 0.35862158270121464 -0.0819665116714782
Ni 3.1221727857909927 8.455036237088107 8.231461153762115 -0.5754195723640025 -0.7383033285068381 -0.383503690654875
Ni 5.5918668035733 7.679746350733978 3.5448820460599775 0.8833631690943755 0.7647802917514441 -0.4208978150326171
Ni 3.3567587708590945 8.48838943723441 3.6657810591201616 -1.130338453671492 0.23824767489613163 -0.08886760966668567
Ni 3.5425009679822153 4.57019418410801 9.300095332532209 -0.31870752011509634 -0.9269413107956422 -0.07986849149186889
Ni 7.395664723646374 6.074465156938866 11.436872083457864 -0.812624922038549 -0.8084687337783303 0.1400536456221975
Ni 0.6047838728700461 -0.03609913543522221 0.14513712039777474 0.2218684622071598 -0.3779215685814072 1.2095420578858525
Ni 4.641599365854454 0.31192666030420885 1.6152274005488387 -0.6136014827503625 -0.6084204527700554 0.47523216680912345
Ni 6.078503030789369 5.677413597325317 0.4237006216739853 0.08074909432460932 -0.15162515250988082 -1.0559189011093364
Ni 8.137366018105066 8.732870929294888 11.372924293394512 -1.662103008349705 1.7267688239592067 -0.27124135621333284
Ni 9.287743603172926 4.746629353611586 5.819943301425009 -1.1698671078937337 0.749468086874406 0.5226469086476612
Ni 7.81587520996303 -0.2879990890048963 2.623927218578289 0.4426547470937344 0.4954150695149016 -0.023483427833920847
P 8.422280569843446 1.6717522023385878 3.730034858457386 -0.20390262175735852 0.47720008916877177 -1.7805082224641915
P 1.7278116527473597 3.202387051072278 1.7471119654704572 0.39285582129373636 -0.4942567875407423 -0.9146565798910183
P 4.702267062428933 0.8171687945834338 8.264190565773218 0.568622346936511 1.869864855952154 0.32247264358448335
P 8.493694805118704 1.6071190601441074 12.40741037218854 -0.08176982227963982 -0.18524772566033257 0.559192826092495
P 6.363245565480305 7.773721979810698 1.2362195238591722 0.11839133015741546 -0.483928666141857 1.1267895599779691
P 1.837821081351524 3.2545806446779904 6.171353306234659 0.9781134627940833 -0.2686728241552082 0.4411419099936338
P 7.0765731006397266 3.9025417018090947 6.108280087054622 -1.9375717723808241 1.1220780134349129 0.020368536354022984
P 2.283915606543936 8.32614114738047 10.34126019953143 0.024325721229558103 0.6440965660154262 -0.1610580157880065
