# total energy = -381172.8324828323 ev
CRYSTAL
PRIMVEC
9.20277676249154 0.00000000000000 0.00000000000000
0.00000000000000 9.20277676249154 0.00000000000000
0.00000000000000 0.00000000000000 13.46919402283482
PRIMCOORD
 96 1
Ni 6.7427918054438045 4.821528073225853 7.769057876362754 -0.6913012487256869 -0.4284206057722234 -0.567996540427054
Ni 4.0883244325051145 4.135976411263674 7.02788923224002 0.24451216774860465 0.8270218141901692 0.3197770990301912
Ni 4.804622572071068 1.8873238910318622 4.217649215644992 1.386192528795477 1.3792364091926181 1.858724265954302
Ni 5.570284406897918 0.09864916691818906 6.20993169743376 -1.397705157420767 0.9569483986806939 -0.9457065072182875
Ni 4.528023909736716 5.405269414406659 12.04327840213224 -0.6485227201075798 1.679193902393721 -0.7346575042241347
Ni 7.238011635678571 2.5414756782307726 3.087718464400473 0.30394064621856687 -0.3705795263940392 1.1371570192552223
Ni 0.9525518279958016 2.6466542153554498 11.523178864563798 0.18893443048330041 -1.211356485386772 0.31062448599664566
Ni 8.573141304723206 3.0246490735109326 7.286847091545735 -0.6354021235652217 0.3784648426793869 0.31509923393854766
Ni 8.70853255839179 4.444582331636317 11.946731149456705 0.7349575519630569 -0.2714503869003454 0.815452364185015
Ni 0.3698991753215884 2.5579394460946316 4.915608981693723 0.6277914010974994 -0.14361616616247525 -0.2841788902106074
Ni 2.2174827148908998 1.4591738988025766 9.57339112536204 -1.4700423735325971 -0.573441108481393 0.2760904567755181
Ni 5.656772104150321 3.373507940019138 10.98078744052435 -0.4422508267870964 0.5003330756418093 0.34237812425915876
Ni 1.000848001136961 0.11765474176024736 4.57295278681226 -0.5318717696800388 0.07933318781368918 0.13089640460296167
Ni 1.5276057477884113 3.859994334981238 0.20174419535400273 0.6892155698412518 -0.7353247054944884 -0.6975495436282438
Ni 4.641411323851088 1.6703316146417342 9.424624555755313 0.42866486057254555 -0.7745466271095887 1.6307620321445786
Ni 3.775061907023967 1.6581747463643959 7.379717834852008 -0.24458981506407554 -0.15976166557408614 0.8970239544109196
Ni 0.22922276688262075 6.088253501615335 6.236492752106018 -0.32349182887761707 -0.4025555650800035 1.0491761830688642
Ni 3.4477007273407896 6.393813302835973 8.116172816649495 2.038593243801224 1.1905302926700398 -0.23315843329868235
Ni 5.740121654481777 4.060541249061296 2.1446731049364582 0.6951679307699448 0.4309027487641288 0.34824641011447766
Ni 1.184572239054282 0.06413783328696551 11.401403119310293 0.4423683262015672 1.1393956787777537 0.3505483187747769
Ni 7.1560056907736795 0.08430295801770257 0.8079909274297602 -0.46242704462465517 0.3607548269941335 -0.4986759996543605
Ni 6.6458681591932915 4.636248566013399 12.94268327328591 -0.8350948210062907 -0.8502597016721873 0.35573911894709703
Ni 6.782437368304344 5.715531834620272 3.690518756529324 -0.6213176204476977 -0.2693469674040974 0.06684919641406552
Ni 3.017406488095138 3.402800378873618 8.893143023724031 -0.4957392856235398 2.0857701585973434 -1.2047289527679252
P 4.224387488886982 7.689923197848878 2.7538840514498615 -0.5262878478343581 -0.7091822427711657 -0.3453330931224246
Ni 2.1985618055962686 8.671472975838542 2.1699678575080643 0.6609223793235134 0.5330922723507012 0.2234887714194022
P 4.330854414776858 7.5291322799520914 6.33656926972051 -1.4065322687940938 -0.059853481822522724 1.0015552387567912
Ni 0.881063736803378 8.742242330155523 8.985595960959303 0.40950140027021736 -0.4096613228868493 -1.0546472334857644
P 8.44906946663458 5.981298828550062 8.245773683096202 0.7638377253325167 0.1979014098686011 -0.3479615318842072
P 2.324437387956173 5.923560606315376 13.577217500979291 1.5549039473636834 0.0723672980188173 -0.9114637839853335
P 5.978924512111339 3.864264423460182 4.721397259227685 -0.7170760436969457 -1.5497535135109954 -1.0384793654766502
Ni 4.78706367375679 8.312748732499672 0.669861847635128 -0.7492089196757483 1.3364182855858275 2.0830597016447157
Ni 8.374131254384492 3.704504216575555 0.9653206809366092 0.9749553767810757 0.10851572291491633 0.7934712319282334
Ni 5.581014844756643 7.668121819386338 4.594234208380272 0.7798924648025343 -0.0613146397490815 -1.126891632773472
Ni 3.199225751195344 8.782329626306987 8.489889303826828 -0.12260948200382112 -0.15819329264570176 -0.05113847054702806
Ni 6.741089291718363 2.82385368445473 9.005812621240649 0.5594885029560429 -0.8321246826343733 -0.9470619928049174
Ni 1.315352901498835 6.899892409805986 4.339060530933483 0.2321546746245163 0.5967419879908626 -0.6863724439655018
Ni 0.3083758509502866 5.930591527862602 0.7961911268959198 -0.13995877191554607 0.44832402956436984 0.32024375425396456
Ni 1.5950344940927699 5.503463043868582 8.634938871845957 -1.8714681958835317 -1.070676261924169 -0.4312017680617864
Ni 0.13675602548200613 1.2241993963610336 2.5848189168474325 1.5823869832753006 1.518946812542784 -0.8005193970242664
Ni 4.4298302802747935 2.0402464346840428 1.7835635018265927 -0.07788951338862715 -0.8110683761847063 -1.230915638465622
Ni 4.796349275643115 6.9075951340664945 10.08178657127634 -0.7634677435876077 -0.2733622592110776 -0.13174204043270862
Ni 7.025151406113973 7.043004793288868 6.672247919160733 0.2647426358628666 0.44291288585112754 1.0458090663688442
Ni 6.736644350478428 0.6431480268664244 10.149455510057638 -0.5090038639429298 0.25110344781287725 -0.16208362883904345
Ni 5.315818422994298 8.08164859913062 12.084587827055264 0.909699492996059 0.45823511803049466 -1.5483257799255334
Ni 7.295814277351518 6.850758783967447 13.181613129236611 -0.5166973759324456 1.0732681910210613 -0.7722071803431346
Ni 3.3298591692095885 3.7737735182587686 4.421438268024903 -1.4527807582386723 -0.4575866858132184 1.2849982792426384
Ni 1.6841357799831478 3.689696948552665 6.766424536508304 -0.4855078377035187 -0.5282017770276194 -0.011123877827303424
Ni 5.082896139800178 5.974525584755876 1.0040247997208647 -0.4324505528672229 0.2644510727643768 -0.012952189285293823
Ni 2.9759663837402144 7.872432669216154 12.417882957279872 0.07604089021566258 -1.0136381380632542 0.9666864519040641
Ni 0.27218316998047887 3.4917544203336877 9.518908845592547 0.4095494798993334 1.8371087445670555 -0.4615361573792696
Ni 2.6347918359387283 5.728240869511267 6.0513319607155 0.4100593296562164 0.6593738038894709 -1.3415736045345217
Ni 8.819729711605325 1.396208499291942 9.39778005555471 -0.3962504487975821 -0.6996287947547758 -0.12484145665813338
Ni 5.499128535951378 1.390309519302711 12.041769146721577 0.39257248572536263 -0.46128213238693455 0.47052601958270573
Ni 3.441562475152308 1.036932089339416 13.081901041587134 -0.811709352202815 0.06918298675356473 0.027246237310462752
Ni 2.7223378525339736 1.5039085972856512 5.614337179613127 -1.5172043759303806 0.7933113093116015 -0.27689752605784573
P 7.771238934486698 0.42892762687685193 3.5998171077370316 -1.3630050349354204 -0.9975697717464819 0.8533370550459304
Ni 8.000903434660243 4.335483411554678 5.3425285626522445 -0.22935294350966307 0.1584216066064239 0.06924675011196461
P 8.976011268823916 8.221346752385726 0.19752012075953015 0.8463745076851682 0.7338059548571169 -0.0662645275551891
Ni 8.842239703888723 8.391809788798396 6.6272343765377615 -0.31689514949670583 1.7077763420171042 0.8861379036260352
P 4.813613685096776 4.909589445327178 9.105983007179463 0.3849195971657951 -0.8203076353947872 0.045575888857586025
P 7.412082160633798 5.685135062538479 1.4821228635438322 -1.649831904291836 -0.9872519347602418 0.6336437461132185
P 7.630804559080049 2.472206376547559 12.205339303240436 -0.13687036279820944 -0.30325004790944554 0.6643211205924172
Ni 5.5294240774873336 5.701617235956127 5.765798322294496 -1.0249620477165058 -1.2810812035764194 0.9500344451696799
Ni 5.525153989008389 0.3945580160098002 2.753238016511884 0.3817753951098586 0.3254281266683815 0.3774317734291822
Ni -0.021791255407955585 1.2760018274989118 0.16644970540907633 0.5678193914192414 0.6401517224350652 -1.0385066191701597
Ni 2.691977891559758 1.754794700977397 3.4162861281344896 -1.2715370115314102 -1.1329429811738747 -1.325222416870008
Ni 5.6449373330642825 2.632242666739014 6.548708921854287 1.62246302536058 -0.014209715841478754 -0.20012592832374568
Ni 7.507726620896006 1.4717448920401575 5.69002081679165 1.1071234490076094 -0.7228101179672455 -0.6355229654138023
Ni 4.522364201946736 5.448614493578698 3.685507844510391 -0.5300995082709645 1.4438819130871454 -1.0353817003879329
Ni 2.1377498558788943 7.393566173522514 10.300889964686016 0.7606876097393093 -1.399372774931177 -0.7652849993020046
Ni 0.8949995018543798 1.330399441720976 7.175847798035429 0.7227152442605941 -0.8451547763454541 0.01758634562319552
Ni 9.215200643083037 5.914330221090418 10.308162919265563 -0.8973548553877773 0.8074477487129835 -2.8590379189945083
Ni 4.4085350545414395 3.5840214614756967 13.211595776358163 -0.07778512660027893 -1.670274488416904 0.7013792017869792
Ni 7.069895307373942 4.964226331748493 10.21573759036097 -0.19000735183250503 0.9869089495985262 -0.23315226265109523
Ni 6.531091125767884 7.730617877275365 2.450638748618134 1.424002400554399 -2.609269387942971 -0.9387642715724994
Ni 6.498117576155694 2.452678083977905 0.7599671564846715 -0.03256122176547295 -1.7633440519800792 -1.5468178279214393
Ni 2.5842317796815775 6.068007392447928 2.485362666395615 -0.8463855634287618 0.7063200907320222 -1.183484184456536
Ni 3.33485627706318 3.093577872449058 10.981380099356343 0.19741007205447936 -0.44623989334183145 2.7629236550677385
Ni 9.072842887305486 8.052116888076888 2.287715547314944 0.14980918234706458 -0.5777214810243018 0.7550311827844803
Ni 8.135098327332573 8.805345771319573 11.76003441460253 -1.1689222274819608 0.11035688988871317 -0.3937472227597541
Ni 8.845451473024825 5.568922395917564 3.119627252725995 2.7977862712728787 -0.46432786119179387 0.021607808077762785
Ni 8.137527860432662 7.61530708279009 4.508920785459578 -0.23602906997825804 0.24031304206559256 -0.08367809504594621
Ni 7.9529385614872785 7.998161007145749 9.10206354450019 -0.8125943259109295 -0.282810549108171 -0.3264815076335603
Ni 3.451418649206077 3.999609663244296 1.886630001654034 -0.5352769387068459 0.9844391479017949 -0.22477689410320645
Ni 3.5724627736964862 8.910156197368478 4.52221419668336 -0.6809250476976854 -0.7274797555287729 -0.23587917466395505
Ni 5.461682436768569 8.556677536859345 8.474736011392714 -0.006760972872917389 -1.3152095127186962 0.3355510740349963
Ni 1.3053678885685458 3.5164730790717122 2.626115457882805 -1.567439875047165 0.8516812646100623 0.388364361181286
P 2.254054550268752 1.8639672432741905 1.2894369614868653 -0.8852035647372238 -0.10548413517744414 -0.6483854231987672
Ni 0.5599208734676626 6.979459618833894 12.072546913766793 1.1178516340583908 0.4088038599825605 1.9210051262713947
P 1.1257020752616 4.622840120078439 4.628580812305088 0.3559484067444256 0.003708044979206517 0.2450438718823586
Ni 1.9282854509882839 4.966821514832678 11.226883498842627 0.25407590017763987 0.12372379811392241 0.7118291934757095
P 6.80560996052413 7.1121728644262445 10.827319172202339 0.9476374056924132 0.37558932090380476 0.2541772016421945
P 3.589782399811513 0.033626946771683645 10.72326981580259 0.1994399580003146 0.04772096022504684 0.25337296057334424
P 6.890441157935565 0.637999073194077 7.703234094348758 2.475301029282905 1.6347801521650362 1.1452359396086147
Ni 1.867519515155381 8.14417226535033 6.473900468758408 1.6814742137874656 -0.20810020477847385 0.30797007909293417
