# total energy = -340864.47241780476 ev
CRYSTAL
PRIMVEC
9.33371273793084 0.00000000000000 0.00000000000000

0.00000000000000 9.33371273793084 0.00000000000000

0.00000000000000 0.00000000000000 13.66083205810637

PRIMCOORD
 96 1
Ni 2.576450079751348 1.3660728714713155 10.774653247040714 -0.8814744367120947 3.2257186245547738 0.30481842083782984
Ni 1.5218805392161805 9.252201484601265 9.1228810270359 0.25035165724851727 -0.5820414485558945 -0.6597324727804702
Ni 6.434745606680616 7.924844853818005 9.920851868800643 -0.7087222724156118 -0.45980606206204044 0.1958501837665272
Ni 8.63254562562362 6.089650243382773 11.349105001564086 0.20720880331245603 -0.34010398351300136 -2.148754472739364
Ni 1.3708984009881249 5.51745631398535 3.2601436088680185 -0.2110891122034687 -0.11975684304637439 -0.5568004146009186
Ni 8.087092783393814 9.182721326529453 11.231225809147087 -0.2831903010450929 -0.042613206684836286 -1.8209480756467928
Ni 4.118118090100286 9.19286707234139 10.623441499477813 1.4301139127687756 -1.3218735550024332 -2.564354015487519
Ni 0.6270201583756383 5.645150838781222 13.06688617185096 -0.022258297177568116 0.42973135416384695 -0.04597492406821759
Ni 5.506619873426326 7.192008393446109 0.2378976718074112 -1.0099257222086735 -0.25347683314106023 1.787970849389824
Ni 3.1773731771424636 7.751312465468845 1.0078916428300175 -0.7153562327923615 -1.392746527863911 0.19575016785355318
Ni 7.977767005385331 -0.07756595346912779 8.58068285045892 0.22402998863485288 -0.37821853099653574 0.36807552902526286
Ni 5.4208150516699884 2.2654134344551236 10.449662701110775 -0.7999516974462546 0.016957710900261116 0.1619170213541921
Ni -0.013595486062251848 1.8366040010678009 8.827028465720227 -0.2737399542654705 1.040790015887698 1.310956136758981
Ni 4.147509951702668 8.842759505270768 8.009605233112193 -0.239991911280748 0.1129336494769539 -0.5185087181095716
Ni 5.61898844180711 2.1301959371436845 6.890687209801812 0.2477101058606121 0.032990338883091566 0.33087835114967534
Ni 7.133831361573243 3.312469336187523 8.912641012992916 -0.17769665278595204 0.20322385052277905 0.19064241431334264
Ni 5.460371326509905 6.939428791406704 7.96557624309925 -0.03815414247221816 -0.7399156672992806 -0.6214014384107557
Ni 7.176215751391097 3.3477787717041356 1.2134311991076918 -1.8442345569785594 3.485354278208378 0.42468530709950725
Ni 3.384432261863729 9.044983726762426 12.80366987070642 -1.3772610306338022 0.6531951858825847 -0.4516410097527448
Ni 8.84641832068777 9.02385220098669 2.7218385238992804 -1.1509268193458049 0.5940348734723447 -0.2944345065003446
Ni 0.6857712135856096 7.082561277171246 1.3984869892778433 -0.19970426740529476 0.3354037498238546 0.06302082380691083
Ni 3.7942755908445602 3.8911315285542862 12.94663061615547 -1.4532299299609488 0.8151284051866929 -1.0399286963286674
Ni 4.734171135937721 0.18830578896657874 1.0517227581316342 2.517536540913348 -0.06904826094791335 -0.7933835573104335
Ni 9.097719204073783 4.205304301350797 4.66968264747053 1.484291941473076 0.4806975607990689 1.7797636309886833
P 5.141158348802221 1.9249569264181208 2.4946998228346664 1.8038114159665064 -0.8077454824590605 0.27597090047851824
P 7.179883900520895 0.5430102095904467 12.940728909552996 0.39073209008251414 2.7920802220270367 1.86912463535202
P 9.23135930392228 7.818599201033018 9.960823493860092 0.22098888781568393 -0.7231019381760515 -0.836502757097411
P 4.059250363480333 8.294049197274296 2.840100398541019 1.618888163525128 -1.2397697464221422 1.202694953057032
P 7.075878338807541 4.381646137252297 11.289134030091356 -0.6051227558553901 -0.22398910809458844 -1.8971056939459778
P 8.121972868121697 2.351890283532951 7.049208187857192 -0.44406088341264166 0.0659696220225896 0.488851557364771
P 1.4269753474813343 8.212659221671636 -0.2678234217818667 -0.8280625967498577 0.007636690609651364 -0.5450700135378677
P 7.016534592834867 7.958847569542832 1.572716605973049 1.013309551079242 0.43218315813844926 0.8328271080180367
Ni 1.5648529529403379 1.4062358376431332 7.249926881474456 1.0346206538521925 -0.19750983085713728 -1.3210981102889894
Ni 1.3127120354024608 7.242839793346578 4.94938788564485 -2.3349175111251146 -0.37213581513756555 1.622739418950418
Ni 5.518921706894709 5.335887598916707 10.030916876862763 0.9837264381054864 0.40964281094408805 -0.7635392202554915
Ni 2.0586156936922153 1.5417240126257283 0.4318848917544188 0.4541403791358307 0.34284606503451276 -0.6868336998726365
Ni 2.1045562280862864 4.695594900941644 5.451354959946582 -0.6575953718328095 2.5578740641901305 1.1158955387732845
Ni 3.3199549738518956 3.2113572254416938 6.665898737619853 0.764826057387715 -2.2664696027653615 -0.42591198041775685
Ni 6.7351231519609875 5.471917129241613 4.889703459155032 -0.4154265075054007 1.4547389104063075 0.3216154377905106
Ni 7.253088209999299 1.264848756171905 1.433732022176147 -1.419111133900369 -3.0799113642782507 0.2841737480042848
Ni 5.646457558573007 8.782613059997427 12.341905897541537 -0.43853146895398026 0.5506495645081741 -1.1820549082091771
Ni 8.679018181647205 2.611498171309604 2.833434260860351 1.143690963718998 -0.38357773842592 0.47787988884461563
Ni 0.4638957931680526 4.312399322000445 8.313928138792479 -0.33810906457015966 -1.3291430920806528 0.3525931171189476
Ni 8.258497085224922 3.919608686302419 12.880729936941869 1.6505466709706735 -0.4191888027613104 0.20890573139890473
Ni 4.855145387518695 3.6746733950449615 4.557062068844187 -1.3815555442440979 0.6146985724692834 0.00890244469595241
Ni 6.527364038779837 6.59843092802739 11.933583963746855 0.23320008516989515 -1.4939798581848014 -0.2585658176281934
Ni 6.636680483075521 9.142791703177597 6.542158906936692 -0.5425174223193431 0.18166566473602908 1.5682687987063635
Ni 3.4495629097714544 4.278779288500355 10.373256928142496 -0.29848425108968596 -1.0014017438980625 1.674445331965142
Ni 1.817236547010975 3.3989368515525515 2.0622119732334663 -0.4228389979193879 -1.2542522563090335 -0.5820082813251137
Ni 1.0691114650751845 9.217004053638234 11.43078338889222 0.1632118289062157 -2.723983269248799 0.9826946544068625
Ni 3.002496734150324 7.1296778593779235 9.502570863449993 1.238257937763306 -0.2143695827269534 0.6170470180968018
Ni 6.724594723924312 4.9889721616231615 7.361549686202643 -1.324922626241402 -1.185428195556784 -1.7990196510048178
Ni 8.607941958686853 6.682779690587166 3.3501691355518237 -0.9672132709418115 0.7515103141154155 0.7920350137023392
Ni 6.969828693991322 3.1420637416258503 4.591173055637477 1.103821124107254 -0.9763517429079701 0.2525620346362747
Ni 6.100309343398626 7.738058593295017 3.6750094087057064 0.47065328918918936 0.1115236565033047 -0.2022396322326388
Ni 0.040890995770098415 8.740228670179572 6.700596814948166 -1.0208379982458031 -0.026292358037625686 -0.4052212848376247
P 4.440159182785907 5.123340291069941 6.361754105854018 1.1430376464057153 0.803195658304849 -0.48844969394066207
P 3.39522203385876 4.774418105524725 3.1144098173465427 -0.11048287394361618 -0.8449583440639319 -0.2506856435491683
P 2.196138618064877 8.717314405259328 6.349691215433276 -0.13362485927771825 1.792537128604268 0.5590084779958309
P 7.640343954007832 7.816377777386982 5.346084680149035 0.6304139263220111 -1.572968518174878 -0.9178313780745742
P 1.0498000132951493 1.261693961246022 2.461627678275846 0.3305649336743146 -0.12059476556663747 -0.46107824390624463
P 3.993158343154365 1.5779948205605838 5.1917853403924035 0.7320550336042811 -0.20937727171868456 0.7784716731956076
P 0.2067856069362701 5.520657777475225 6.6942041550524936 -0.07623012340833323 0.9521082969795731 -1.8085198771857693
P 1.4523070440163828 3.6782295396211784 13.361291074311591 -0.021742533883414166 -0.7403607252564992 0.38817307110608634
Ni 0.9260321814735936 0.6832679118130599 4.803339548002066 0.6867874200157333 0.11913206497818192 -0.4999453532850873
Ni 7.7351184737634995 5.996882471878776 0.46074753184112854 -2.08529887538788 -0.4796174403610128 1.0192251452327286
Ni 6.0042374375639715 3.0465238574207083 12.766675700029682 0.09613046187668606 -0.5318817969823678 -0.08353668437207548
Ni 1.816919200775827 8.435846962108657 3.132210141024505 -0.6392603209690475 -0.9136296812884008 -0.5111059978875973
Ni 3.675765439442382 1.6766801659788104 8.746852806152647 -0.06716595632353593 1.0153936873017801 -0.5578735930604393
Ni 4.384324912825457 8.500790935760413 5.292097551951404 -0.23143810817346594 1.578832690265139 0.20128318185664043
Ni 8.41624616523187 7.752768524665407 12.994293220560857 1.0486992434324454 1.121772309269036 0.7112895189221556
Ni 2.405176449899418 5.382192148109918 0.9259295106328104 0.9471843773153946 -0.01421023006211101 0.223034457490803
Ni 3.0772131051020786 6.86464708446536 6.577840757593965 0.9580586010257371 -1.0644145972851733 1.0844707446051
Ni 7.999262545960209 6.334109515287508 8.529017950005548 0.8219461994394749 1.0434737333674482 0.9230023807525523
Ni 3.1290712134103793 4.888028057707706 8.179245463224392 -1.7009618901984318 2.4250279920599653 -0.29711899531104313
Ni 3.1888256427461865 0.7762895603051746 2.5363384489999223 -0.45154639315640943 3.9592867523694717 0.9455604685587264
Ni 2.560956116505887 2.9141158076616085 4.212822607009965 -0.563125842598314 -1.7745358069308406 -0.02367806034323019
Ni -0.11553456376202516 4.655758614717772 1.4097434469127985 0.8866773210692729 -0.5584896293778834 1.1408046433101386
Ni 1.379616088741896 5.3816881276188 10.179724260008776 -0.4297123280004535 1.5517844278980952 0.582962417708267
Ni 9.089496203098332 0.6292807836154278 0.10997540441925624 1.7359913709987391 -0.4277773157612697 0.762106601574023
Ni 3.333134176323336 6.707859376876656 4.067048680523455 1.231721422196369 -0.7673670786420139 0.05236000165895498
Ni 2.629064218796325 6.298305392992577 12.220679635715005 1.3315509301911972 0.8507543819204187 -0.47979818891325104
Ni 1.0595724105951476 7.041184928335627 8.146091181992945 -0.04367610073171188 -0.8419730361833628 -0.3413723087024637
Ni 0.44477101564398697 1.953583423571029 11.922313505542705 1.2277212998980405 2.36226916366519 0.297986485517661
Ni 7.772780004905326 2.1332480612287843 10.929020722900773 -0.6864989422410371 0.7286868884629967 0.11569527138249107
Ni 4.2515995168312095 3.549928323493406 1.4675284628481282 0.4195742111251871 0.39802219598602423 0.8763695113853617
Ni 6.142908408610845 0.8257741054488247 4.515055694394672 -0.7426808887492435 0.3772158007636342 -0.8247476734440119
Ni 5.352613612251565 5.704989271532215 2.488607708491105 0.22430381112152986 -0.060737941310005074 0.11223508074803251
P 4.044288421864385 1.8302010740880503 12.337316510958528 0.5497041698757695 -0.6020808837052728 -0.2205559140433234
P 4.550474334351027 6.98143049899982 11.315376696995534 -1.4559488715540085 0.44147743895618163 -0.939999172420865
P 7.775813461564829 4.7162224062262625 3.1427021675812656 -1.0510672294439898 -0.5298202864676489 -1.3511386225151376
P 4.731287018682994 3.7047372839688344 8.650995575712358 2.031548421139301 -1.7904725327657551 0.006112540655641086
P 5.953788719888239 0.5548593579881047 9.090764654667643 -1.1374359839482218 0.1273490535713355 -0.4709926748064792
P 5.630170229739677 5.074972991348268 0.33351689257134026 -0.2013610862824274 -1.84154081219648 -0.1547133045169013
P 8.259505126207157 1.375723930504934 4.588181600685568 -0.30781195624851504 -0.17836873915231216 0.28357210986454384
P 1.4843963486175238 3.301044871722195 10.121064675184227 -0.7200526098267664 -1.8641184403866802 -0.023104190117631176
