# total energy = -340858.0864751376 ev
CRYSTAL
PRIMVEC
9.37369855837280 0.00000000000000 0.00000000000000

0.00000000000000 9.37369855837280 0.00000000000000

0.00000000000000 0.00000000000000 13.71935534814878

PRIMCOORD
 96 1
Ni 5.208176858379594 1.6088266186672207 1.6480236762591547 0.18838884239247555 -1.4122380609296195 0.4435934568579199
Ni 8.375952646066368 9.114665702706784 6.3874434328260055 2.07391377347939 -2.6130787343867317 0.6884285551635821
Ni 4.157666468976479 6.800140193469264 13.68825348460594 0.9005823611861394 -0.25755794518896935 0.026857486512476325
Ni 6.477263149095298 0.6586204272907584 5.9228379420730155 -1.1839330990684964 -1.0995376662405514 -1.4432085411692048
Ni 4.473297644420234 5.572701245129914 10.934847662742296 -2.02969362731875 2.481830602871306 -1.4978547677591751
Ni 0.6895414464887959 1.1381638439521335 7.622981256657853 -0.48231632734941454 -1.333758479365477 1.3459663342855788
Ni 6.534817657803561 1.1538366678218759 3.733159785609843 0.6585824183364271 -0.08779905919285524 -1.9236896150820935
Ni 5.701430246447599 4.0850578004985945 3.6892852524730517 1.0351040212465141 -1.0056548627474615 -0.08918025581109802
Ni 2.320318454902294 4.210121685707985 8.990705101809276 0.6875209557476482 1.4103773535717967 0.11913849273608514
Ni -0.08132339596095836 6.633832034918446 5.722507944864765 2.961721351498364 2.3819093064936205 1.422114182392751
Ni 4.973796901418449 2.8499417930986475 7.514804089272231 0.41948550806612267 2.332800979002744 0.11528158088384016
Ni 4.512123503552096 7.043040842354807 6.824363705098563 0.39718890145145147 0.2031534022961598 0.49684717397573785
Ni 7.999270572378815 5.358784071965209 4.755402849856503 -3.2468536067611757 -2.1201324381272975 -1.4644047156308457
Ni 5.794586062008304 5.087303016393753 6.068373047407484 3.410428989654398 -0.5734027990442899 -0.4441706695176286
Ni 1.9047730272889316 5.722717915710867 6.916667451466827 1.002099027075403 -0.7611640351550956 -0.32546566477453626
Ni 2.515019546169288 2.3303764333785097 6.696499896151198 4.114484709832276 1.5742031619129275 1.7834325951998382
Ni 9.050015304244097 0.9356000943945051 4.36405843699607 -0.05698438780484379 -0.9607577451244552 1.33818669034016
Ni 0.21955920228384243 6.575049571708425 10.794292803413807 2.456932811188362 0.6475842674537106 -2.1635154330986226
Ni 8.464346622795837 3.0995915048946068 3.989739472697011 0.8641444300740795 0.7591410911877957 -1.420542981250889
Ni 5.832062108558081 0.185706090199169 12.32323207672823 -0.37522525269616663 2.5826924087853906 1.584378816894349
Ni 0.6190418601704161 9.479808753557224 11.652245866393832 -0.8729725698886708 0.4002613697291881 0.7265112209679165
Ni 1.9055697916603 5.112893213262412 11.573922053948616 0.5962761040980376 1.2129755090474337 1.3348964496246623
Ni 9.138765481516058 7.244978428853525 1.4961781971034485 0.10025296868549187 -1.562766895051528 0.2154471320618483
Ni 3.4906153372667936 1.2138658329306253 8.894820602619097 -1.108430340744491 1.0720263481941603 0.3876539653778227
P 3.3279816685227583 8.345253783522466 8.172098138227122 -0.37841496327805796 0.2758698561242798 0.16408754664294967
P 2.445382340111684 7.458586269968169 11.528483987904243 -0.9851212615704841 -1.099196737961365 -0.7696268212104681
P 6.753599780482857 2.836809241518798 5.116084957597129 -1.0539702620233977 0.1903829900043689 1.0594788505464527
P 9.374448382566854 5.860314435796959 13.043800465207962 0.2415047483808486 0.16477146008385168 0.42420168259486946
P 7.60872479862945 9.136309572512546 11.239143224606103 1.4417427552569557 0.0848587456176087 -0.7688117815083404
P 1.6564168858841353 2.3580944598036457 9.107346718928378 -1.6114844148618892 -2.089817846304156 0.7174136295420225
P 4.600995538904384 9.036639036503592 0.6705006527527867 0.9062773546883875 -0.22675227266202239 0.06958047930229952
P 4.767181839374874 8.736305736990113 4.5969442264184375 -0.8674102453095448 0.6449568571331924 0.6366228833462003
Ni 4.679022205107574 4.910955626763694 8.76654435093832 -0.7582409479710296 0.15882449847179744 -0.9993582311054726
Ni 4.5951744721441505 0.7732167034000643 7.016283620024557 -1.968193611031739 -3.854166428289349 0.21230627244002145
Ni 2.2498376159808875 0.5539302757421845 5.0977968718496 0.8110475502491 1.049159985118948 0.9307524570116164
Ni 5.0580102086228536 5.62696558566935 2.2103256021198003 -1.8649309089856463 1.0384909354408762 -2.9457733128095396
Ni 2.275043491211591 3.1904413906275866 13.78918665780105 -0.849847296725117 2.073856694989209 0.6797541673180357
Ni 8.005522829269436 2.0767710208211683 6.733953445824608 1.6806627736297637 1.6612612291747 0.015632821441250496
Ni 9.44306385548941 4.1384972555712025 10.533336536503205 0.9980335987567779 -0.14522130586606602 0.578317462737088
Ni 2.68352115016599 8.492420849763466 1.5466105697015269 0.27273696692225285 1.898839645917949 -0.6681134977553138
Ni 4.562844586063564 3.6523303835591334 0.994385369714071 -0.9001966957119465 1.6362181701631435 -0.3357865870845701
Ni 1.8547362247669914 6.837344402762928 14.076469894281365 -3.4761404729195937 2.404580522838891 -3.218667888355579
Ni 6.028619192125441 3.811289562496387 10.443077193774888 -0.03252934008627301 -1.3502837307140099 0.7615512432911853
Ni 0.5722830400092708 1.516458193779398 2.407650391593219 0.40776513430540096 -0.21648894306280134 -1.5925207292751928
Ni 7.502267704916135 5.504573204528666 9.800092095559924 0.6802334209472994 1.0976484196376386 1.7274835906380444
Ni 4.543047334859679 1.9309537671622512 5.110706329405467 -0.163038536553145 0.9008641540926163 -0.9115411741904882
Ni 6.385100945574182 2.8945512241967952 13.233772525588423 -1.4804756530507794 1.9052854015432932 -3.041646664370097
Ni 2.6954538683395444 6.529540265555556 9.44931611238003 -0.4500502682268572 0.9871981987041708 0.24610342349512454
Ni 5.128509794941233 7.175041264444347 9.243059125618645 -0.2798396394053051 -0.0013781112944492395 1.3541522125304808
Ni 5.899102800134874 8.173771343406997 2.856699292337701 0.5519096621675205 0.7878433442184948 -1.5897454805229008
Ni 5.7442305537378155 0.3812011337279862 9.906567936670212 2.8838542067072397 -0.4453785737828007 -0.6313312959299578
Ni 3.7558628833446015 8.887784704534988 10.394209291454237 -0.6772699674436014 -1.6220459924278194 0.4623653381487844
Ni 7.915225991747172 7.066062645838112 11.963497649904607 -2.2734077246460913 1.0252451261745632 1.5158326923938346
Ni 7.388442884192283 1.2941046919766739 0.4683812165034272 1.4094815812304047 -1.8370966603821974 1.1268322402904465
Ni 9.265207300402992 9.111122444678815 0.09547018171706777 0.6834303306180424 0.5430506691149938 0.1224431316292859
Ni 9.03512049734875 3.378262187205352 1.0250223658479618 -0.6289838787437038 0.19781373525080126 0.17838545132286052
P 0.0026968130546201137 3.05390409847049 12.652538540894215 1.130740317095601 0.74844838736064 -0.09744506692305152
P 5.421419125253258 4.939020480032837 12.485422369533845 2.028618134866383 -0.9441342776351611 2.853241366917389
P 7.063053688623886 7.317240270487402 5.822110052874765 -0.5911410968643174 -0.10713298363477679 -0.43142622536776665
P 6.763798364436374 3.32740987291507 1.4970696358295328 0.8186325616852095 0.6792276053906043 1.496622952234603
P 0.7832803060953724 2.358385044456733 5.843292736714982 -3.7862008588826535 -0.6636690888307151 -2.0974028577402652
P 0.6517120115060695 5.702826927522115 8.730215645083312 -1.0076922048924646 0.0002951626429156207 -0.26180232228762007
P 4.628151143420319 1.9185617377628494 10.697091299586248 0.24387684815745098 -0.6090526870374156 1.1940555322144792
P 3.941537102968916 4.809494714343783 6.635325265087375 -3.7004355422903754 -0.4681006979706647 1.583963583733801
Ni 3.1723126577543317 9.064994474425825 12.632946573687189 -0.9421799821222676 -0.11499027489566646 1.5718757993313315
Ni 5.555594245391708 7.48416709313834 11.894543786466683 0.011101252119484107 -1.6194111259081339 -1.0818137665982273
Ni 2.2515342554069777 6.651885778203806 2.8348304537682583 -0.09646213418449194 -1.5729374078266265 0.5110208943729585
Ni 3.2963923046226196 0.6947532228473944 3.1157339510585325 1.0886061069297124 0.32914517050865255 -0.02691379367170849
Ni 1.0453173604414898 7.855956096215843 7.5986433859070175 0.42911274674324157 0.3074113783759867 -0.5949283318208916
Ni 8.50534717997661 7.823832431501964 3.7975036641320155 -1.1686990557275614 0.4744081282459313 -0.468752986842683
Ni 7.2444160069443235 5.995014483050665 2.4445968241784994 1.080241794125417 -0.3137815435683886 0.38070735885666046
Ni 6.280762307718859 8.43535377337651 7.8876963766616175 1.3898003007513935 0.8419846061475885 -1.4767668367406244
Ni 1.0838713823172372 4.210346654471666 4.949079395878902 -0.3373652444255996 1.2893694117271406 0.20179663115794927
Ni 1.3933721589506989 8.861810186028377 9.70542898928256 1.3673365724312387 -0.06727471398725833 -0.8095275140601477
Ni 3.3377865571398337 4.531864512565061 4.630954816637687 0.5518741809438946 0.14710900980708214 -0.5950805411280397
Ni 5.152103394032227 6.428819875316095 4.179835265897496 -0.09633872123275021 1.103847606469815 2.5734459504864584
Ni 7.812068439901171 6.571356334504672 7.710881239477072 0.7437394119207449 -0.04700207978115131 -0.1443576723141901
Ni 3.5443828717864356 3.5341092982450255 11.273262549727797 2.543853838651638 2.600187480246361 -0.47908187957251686
Ni 4.035799014951049 1.736224554799796 13.143443817491303 1.2932885442758886 0.33761078477750245 0.2186890360379137
Ni 2.2011131312470833 2.1234520392848744 11.74963953104037 -4.2436289076308205 -3.589466215628644 -0.7794018983193609
Ni 6.696392098618602 7.518502950695079 0.49927223986630725 -0.4663790872938678 1.4519762600595056 0.270115984359638
Ni 8.599224770320788 8.5041567202688 9.052208749689981 -1.4046401939777036 0.29275866145981844 0.7807848947098166
Ni 8.200861332033526 3.2984451445912044 8.919762139552477 -1.3995776918531315 -1.0479055438865565 -1.0244650534754292
Ni 8.991907747325119 4.511936029582362 6.846493132485935 -0.1408979959003638 -0.4303695019684782 1.0692390152570102
Ni 8.258940767857043 2.1379437771452934 11.221006055404208 -1.004458014225883 -1.5342438479111706 -0.33270666260766574
Ni 7.2970586976455625 5.318439673678504 -0.013938689649704935 -0.045228789930812426 -1.0296537967652202 0.062181872845383235
Ni 1.6260929712796997 3.6826168033696223 2.7112738592755274 0.759051616797783 0.6798174164558034 -0.8262060031570931
Ni 2.931118021993365 7.364043147031436 5.212106312785213 -1.018444301202646 0.6927919743386003 -1.301507075530939
P 8.0806811437357 9.093865465764823 1.9583830836739973 -0.7750845018909297 0.3560144840956707 0.8553535712553268
P 0.8877698604963313 8.492673939622607 4.852549986232838 -0.5595710353675202 -1.668221205432301 0.8029082089714172
P 6.525415838221414 1.2835030389882298 8.080960479950603 0.2359632497373291 0.10761095171245982 0.3281781786096929
P 0.27401289153270986 5.743386920874014 3.4181632095536365 -0.03662587875314983 -0.10510618301273511 -0.9851294891006
P 3.950423369134296 2.8326473193907082 3.255095538569668 -1.5627445264540247 0.1047752820358776 -1.4187606925394858
P 6.653723023107198 4.721635038428058 8.08591354223097 1.2466129945962208 -1.3171254987944865 -0.5278855313387812
P 1.6342480889631184 1.2407027316980128 0.449609447913986 -0.044146869720543325 -2.1236594774439492 0.04432170473551077
P 2.7525115710280135 5.285444255005363 0.9482320904751657 2.685659691078252 -4.281853755439974 2.195784577544973
