# total energy = -340898.19871187495 ev
CRYSTAL
PRIMVEC
9.03574317467390 0.00000000000000 0.00000000000000
0.00000000000000 9.03574317467390 0.00000000000000
0.00000000000000 0.00000000000000 13.22472348305823
PRIMCOORD
 96 1
Ni 6.412251281301787 2.051050448664471 11.431688835729442 -0.06722252059308421 -0.05237337139539368 0.015716382293992286
Ni 4.715935073623243 0.3638540165641915 6.156174705657029 -0.47224788736981893 -0.2918934852460457 -0.031132202628430253
Ni 2.8631740087544912 1.5422929296570433 4.898054091447633 0.1993419989698696 -0.06366437092818068 -0.6447090027884446
Ni 3.3186658217935543 4.441429196215451 4.947342263273966 0.7535625686587538 -0.5647821472548145 -0.519585496113518
Ni 4.86423872622015 4.530431266408564 2.703715731218152 -0.1051671181576576 -0.3798537526071135 -0.9946099177872095
Ni 7.002294345837868 5.91854731041027 2.6923948486044518 0.7177203621491639 0.1786818995173568 -0.9040870319052883
Ni 4.988227193955163 4.563791230180439 11.419839362140483 0.3291796232910137 0.16597756457681095 0.1362368429792686
Ni 5.572713276443655 7.937936515018227 12.481798510069943 0.2501043171244015 -0.567218524610449 0.13213464788543694
Ni 1.752401065514955 6.6882751635616025 0.32116103367531496 0.5746819228670297 -0.40716092506249874 0.4471698613552686
Ni 2.789153200731956 1.8341474339451156 0.1674594281105525 0.5132538974685354 -0.8131306580303739 1.0920241314723258
Ni 0.5821873894268534 -0.03675830677691354 4.805547056480114 -0.07040194676233037 -0.44095756189696955 -0.06795502788373459
Ni 8.668440207082423 2.4219767414053273 1.4308885414304509 -0.04551983880866999 0.05686380306657948 0.14087948395760252
Ni 6.882326783812086 0.6318279552366928 4.88059703564935 0.001146712009933509 -0.1091816386336894 -0.5349378101998723
Ni 0.9356963836393601 7.609180035636888 2.663538299226916 0.2305107112631901 -0.8303997295234666 -0.39296612161935546
Ni 7.59695467513219 3.6663070043935324 3.8047924184653814 0.18168700489226774 0.11039108556075827 -0.19674081390159667
Ni 7.675872855951138 3.942376065369182 12.676320892539417 -0.47856148829267264 -0.6371106216158963 0.13565834476797925
Ni 7.89417641086135 8.824604956234458 7.005995386238994 0.14688635227331479 0.3369937200187938 0.005574408763983948
Ni 6.871709785591081 0.7919250598149257 0.4367715603460588 -0.06731122365214859 -0.731624888045398 -0.891995905068709
Ni 1.8123622571699287 6.4990667016485295 9.337593913766904 0.8427644217364066 -0.16632209240042323 -1.082765588988535
Ni 0.101738853761052 4.915769569500487 1.4004588691675735 -0.14370718321438478 -0.1258876385344606 0.34843692885872896
Ni 6.337272684503569 2.1859812013744953 7.054820928015188 0.7088706250680179 -0.8079465427262731 -0.7029576020176925
Ni 3.4029512340535892 4.346120177291904 0.4893044675435952 -0.5459896971386597 0.86984790821676 -0.26959764996232277
Ni 5.782143731564055 5.496117281618578 4.679436092675217 0.46340869181163424 0.746124881433786 1.50257505605298
Ni 5.4215633647492005 3.100046015872504 9.095157696006769 -0.7091519037538626 0.003797005148587009 0.5779055720106498
P 0.25213066660381067 5.546292763423891 12.321673394687892 0.5399522326953282 -0.4653550169047276 0.5220421851841268
P 3.9537520660161998 6.258851469558796 12.610871390484922 -0.3509051878935634 -0.5572110197757759 0.5051898895134783
P 2.471140219975959 8.625276461974554 1.339201951942479 -0.19482174250201287 0.10899934741955422 0.07925425494663771
P 6.1962970196149465 7.708925604455342 5.950384751458538 0.00671674989854327 -0.1005859265448784 -0.6262307414785989
P 4.800988524052458 0.9991634436430574 12.5530796807643 -0.24069767909852094 1.027630338577288 0.39208269057313766
P 3.9623540935110064 6.0209855306924345 8.386630738472896 -0.07525207576578008 0.8296132290664293 -0.43822499345715493
P 4.892005564971769 0.9327145883943118 3.887698072743844 -0.9048095118936095 0.13283270239372608 -0.06343142898176818
P 0.08740726152416929 5.819352921924993 3.5355507650265756 0.6438345706032912 -1.567479727146165 -0.0014639861400361884
Ni 1.5352631214732626 1.0626937538489225 2.657547601507319 -0.2691173678917946 0.9622842090713104 -0.3712660109381025
Ni 1.895039307146271 6.41618182957935 4.899601010677792 0.017744468467614603 0.07221765981483046 -1.4728759863266503
Ni 6.00718795087671 5.582354414402645 9.224667906391021 -0.3277552321396613 0.7946287425714444 -0.22809978782885232
Ni 8.557318637616952 2.279609572069016 10.296795879680412 0.6472988750028078 0.554533987164245 -0.49167977084218545
Ni 2.416139651319566 5.153518043705681 7.086626743962371 -0.6678967537588175 0.2596549369273141 0.3750614734247928
Ni 0.7160374672541268 -0.2581159428775079 8.852801896360816 0.28344149782395056 1.010086416156254 0.31728621428753745
Ni 1.4688775164266847 1.0281139647495274 11.455585665682712 -0.7259833734889045 1.003684369284652 -0.6172269953180918
Ni 4.027257836678227 6.9995926586309904 1.635753235528661 0.23750462608252 -0.4901288814152978 -0.9356455234378596
Ni 5.609280929039748 7.867051109874576 8.062002690144475 -0.10256978974412659 -0.0709202811596456 0.7815557114375701
Ni 5.275536719430329 2.9847860760366327 4.626114365099217 0.15300840601065263 -0.5979216101212607 0.6960685882073432
Ni 0.6776762196394205 7.235199661705649 6.696127224373563 -0.726586297180226 0.12013479521108342 1.180763185980947
Ni 5.111312087373496 4.59855173414317 7.053829706989788 -0.21968970938828616 0.2726744891154336 -0.03786180804277996
Ni 8.131256240072199 7.180063556901755 9.097088634321516 -0.007942651885844386 -0.1531899258938394 0.22194765218452742
Ni 4.733681273202865 0.2417350440903919 10.467395228541433 -0.5912393130050786 0.04568824606573422 -0.7502054792610627
Ni 7.937755800154891 7.079260806132784 4.786000936861664 0.02771109276202324 0.8280212019889611 0.03832743482528883
Ni 7.231504042750423 6.050487232132079 7.007119432688946 -0.02937793894148489 -0.05987405064781301 -0.353313797335056
Ni 2.330480806098175 5.29322870455095 2.5432065967515127 -0.633527018029696 0.04855579742151638 0.3774029770737758
Ni 2.379138283051465 5.135591129262723 11.494308343024091 -0.20365476741261054 0.14794179012102263 -0.06530164942128754
Ni 1.0992523707018493 3.3476615216158585 3.8611167234957127 0.01739711243052488 0.2575530600929629 -0.6997925740261497
Ni 3.668945441398242 2.4419095908313175 2.6800167840402342 -0.14595921247335508 0.22145040083313475 -0.37842370502880635
Ni 1.0160602833649983 3.3782565479786886 8.097828508226574 -0.04961432059301778 -0.21524452913273898 0.38166560900487173
Ni 3.746589582430669 2.671742754022383 7.0205826900074975 -0.5213981238422247 0.3351900911511517 -0.5418175680388412
Ni 4.035227362151356 6.800408736261756 6.119846500254855 0.6174542808375495 0.42197947813257003 0.0069144677316461565
Ni 0.8818713651689695 7.429323567901469 11.294997920250522 -0.29599053813355475 -0.14372672359841054 0.46019352730844615
P 0.1957846757898791 5.571095878416796 8.037577269215944 0.6413092330782763 -0.33954733967858297 -0.027105855077856542
P 8.65341376619601 1.6044949856173867 8.106768472515817 -0.6331549794022581 -0.24683258835166522 -0.33862791318810714
P 1.839794773424374 3.0591592780426735 10.51661743944265 -1.8543706169712966 0.5513779580337665 -0.1687643832933287
P 3.928641735755625 6.237581330144118 3.7378890653353447 -0.4560633071901565 0.2951531298339239 0.4803067531185535
P 6.896783972878988 3.963564883095359 10.382082452283331 0.7969962143623563 0.017202479921215534 1.0135661471747384
P 6.402501714424795 7.666041967385645 10.26251788440279 -0.6436790188620334 0.6651081352700868 0.1936215515463246
P 2.369903753534982 8.374082801937142 5.949617616863675 0.745249163697052 0.4644209351262324 -0.7827613017098971
P 6.740583080754284 3.919063847998803 1.598405798297271 0.8950087237531038 -0.3054987347343061 0.3930949338877359
Ni 5.214852668322011 3.019176114529525 0.30156341032081335 0.6877019614102028 -1.1749254962532476 0.07763985927166629
Ni 1.5604276661928376 1.1271908885736364 6.885928431038378 -0.435753649098527 0.19921935734907625 0.8673539381503127
Ni 6.764672372037009 0.8348990543162902 9.158464823356413 0.42250526872905303 -0.4427542487860762 0.15010640187250923
Ni 2.748438142022295 1.6811271234151308 9.046887852435335 -0.7953393954852238 -1.1615614162415155 0.7355288510854945
Ni 6.358335001825411 1.8046728397349703 2.4902020237606686 0.34486129569232865 0.9539625765794926 0.7277054983863338
Ni 4.255898281771273 6.797661870339045 10.50107867191868 -0.3929177848799233 0.59319772228303 -0.5201205426813816
Ni 8.189455461809645 7.002104595231365 0.27216381277895263 -0.3119126086804499 0.8843311894345995 0.4794768010180904
Ni 7.663557138014771 3.989515537470447 8.29671515464562 0.20331126803026275 -0.9637826479937079 -0.4894884196178216
Ni 3.0081525078660123 8.437224575186834 12.328259547882181 1.2284116410968458 -0.233807636846907 0.4641715381195877
Ni 0.1915812480686775 4.786332548635886 10.188102214403864 0.022458071893200034 -0.4341112283990975 0.18763628049716716
Ni 8.710320876660601 2.226804689002158 5.696020449143891 -0.46728334427569196 0.6824823648824763 0.8213959833629596
Ni 3.7574053670013448 2.594496185689295 11.183328784749142 0.9287693651433164 -0.9145107983417734 0.7542770782272752
Ni 1.0174066090968537 3.336439128602676 12.614257083449527 -0.02445221950509337 0.2003699260137517 -0.005252506648190955
Ni 3.1530135423163643 8.341156553837275 8.00686929606353 0.17532609567124643 -0.08743781919869457 0.7505147829713654
Ni 5.527823704390926 7.853587852556024 3.4650096216975803 0.5012154782467626 0.14353363375099798 0.6012853843871708
Ni 3.0038514941186087 8.386859342775017 3.641943026518537 1.175806099085988 -0.13298825413498386 0.43492523965996066
Ni 3.215920386243719 4.170049685943379 9.32459419007281 0.5596157725625266 0.6201739937615577 -0.7464696663677145
Ni 7.31714481648548 5.967602360062901 11.362934058824525 -0.36467138843972036 0.5006557490885507 -0.03245297832238282
Ni 0.5678756758249377 9.093300850785987 0.33211687226507614 -0.20389799377166823 -0.1853377142709776 0.291536101906627
Ni 4.573468511112096 0.3776633428460324 1.5050394641545883 -0.05173316670823349 -0.15514602117894571 -0.10770916785322095
Ni 5.874254097406552 5.53980509983012 0.37960512405258057 -0.05393737344840389 0.930721603773681 0.00682447912100115
Ni 8.039859697939882 8.80560278835465 11.339076082566871 -0.6317706974602216 0.2988344353402531 -0.13619030601204932
Ni 0.1519784893428511 4.840845187161271 5.817304518949076 -0.5832676076535116 -0.33882665946247453 -0.21579088855451223
Ni 8.063271308485096 8.852832617887582 2.436020093435189 -1.0817924264419885 -0.3104023426835106 -0.12080199648143711
P 8.608596480088616 1.5218811858432117 3.589904374472225 -0.7116942105597421 0.985611056722709 0.2429515081297042
P 1.8290874177717 3.296907752247867 1.6548096178674703 -0.2735142114079096 -0.40859611484712854 -0.1913687509564059
P 4.68395757855589 1.220322293393982 8.329882657088042 1.1856092012193387 -1.5372489532860816 -0.618463181718038
P 8.503827038069415 1.6531253553411762 12.442084611703164 -0.2860609377246687 0.1136234764551269 0.414795301679305
P 6.381168324807949 7.666430504341818 1.3564204641211586 -0.17313911532225668 0.21868749337601692 0.28883078716032196
P 1.8163470199064933 3.2219381911928164 5.977997982576318 -0.19765509818574994 -0.2930934190914178 0.0693321107369193
P 6.872812146257432 3.9432615681995293 5.9608589849375075 0.9006412394485327 0.6034165717975608 -0.6574431625256614
P 2.461824368770974 8.627824541547596 10.200216435267611 0.09815134896145676 -0.768561098950115 -0.8512318357774696
