# total energy = -340887.7092398669 ev
CRYSTAL
PRIMVEC
9.06292669121345 0.00000000000000 0.00000000000000
0.00000000000000 9.06292669121345 0.00000000000000
0.00000000000000 0.00000000000000 13.26450930726394
PRIMCOORD
 96 1
Ni 6.635539433661793 2.2282020391916206 11.090429097031759 -0.6828921987263852 -0.9312450803773188 1.9812082781238525
Ni 4.795982870318745 0.7135731408513333 5.764131803150379 0.08283605876062507 -1.6714867635574504 -0.24857708184659774
Ni 2.83416742888421 1.8638089545789873 4.858762668274827 -0.322141999717942 -0.18134556239244898 -1.349783908259456
Ni 3.685176224495081 4.7344909142141685 4.796459580251111 -0.30488192708591366 -1.4129073190825021 0.5647479515827694
Ni 3.5287319877556254 3.1027563177737068 2.7923909630242747 0.9029166657462708 0.6025148859188978 0.06508799074858468
Ni 5.30180292250867 4.655561887579715 2.3026521675641898 0.626304789249644 -0.44582388885033547 0.4341227983633233
Ni 6.119478274559831 3.2416094142332823 0.06372778006493039 -0.8496850601156399 -0.11645040438096073 0.03387454126025779
Ni 5.939742316790344 8.193646815453237 12.099169064940943 0.6357978163417437 1.0047989425050694 -0.12531428252949386
Ni 2.3509231265331207 6.478197967201726 0.40810901673732586 0.33108712472637175 1.397067009616136 -0.9139685526850582
Ni 0.7948195577843767 0.269199730133631 0.5336568308450771 0.34523616253324413 1.6936818115972507 0.23631960463548335
Ni 8.299057713235452 0.12762413056221822 6.267878257763778 -0.485860335946931 -0.0998251371194539 1.3544702579915318
Ni 8.714882905570043 2.6542320867323643 1.0855500823347568 0.8946832220928849 0.8797471696083429 -0.0179540133752594
Ni 6.98324767064163 0.8958711879341233 4.414163590688001 -0.9183276009847023 0.8899755322045705 0.434803883590748
Ni 0.8389288209179029 7.420760446020914 2.0605088981165722 0.4818010782758928 -0.16417676392264627 0.6516589517437165
Ni 7.806088890781163 3.9056681626038867 3.670806954575581 -0.6466370730490928 0.05055920100479034 0.11772027223231983
Ni 8.000887432345168 4.266345447363481 12.163620972830893 0.16936576432275346 0.09873704626159768 0.7003998685928454
Ni 8.030160684845947 7.683585313674964 8.725261768964437 0.6014085402285965 -0.75213560640424 -0.838152376885692
Ni 7.1773211780879675 0.8889090478192323 0.5884095948259451 -1.0131583702133582 -0.6483085472142447 -1.3577306739103583
Ni 1.7019269619570343 6.844657399049709 9.372967372811075 -0.9664388546696325 -1.133787845672673 0.25987605179918466
Ni 0.39265128934867943 5.313929118126639 0.9280581712952736 -0.7474119756763258 -1.2489614402237394 1.5723152008615955
Ni 6.669090387456802 1.8180139871218868 6.824205092882988 -0.13360351912147958 0.8124079209317364 0.01622443227866238
Ni 3.9155467524570904 4.745683628405643 0.17229710772222998 0.5483772235342297 -0.6432254762643825 0.6382174815268299
Ni 6.143259393619287 5.57424355514827 4.763205890444343 0.15352571196670334 1.5831783688283443 -1.9711668347274502
Ni 5.491381218425477 3.229791358115321 9.404483699613385 -0.7775833570533834 -0.03881414465372025 -1.209739518608639
P 0.5938736331952081 5.832029435684538 12.190269601825719 0.6203873953239445 1.801389436788575 -1.6898601238583153
P 4.589366272636778 6.6090031849552044 12.312462320553971 -2.0550470184818734 -1.5579309071154652 0.12056956875565686
P 2.6459757607174392 8.723257049629089 1.4149521141361656 -1.3472781111184668 -0.6787545224089278 0.10446340722241364
P 6.503084763290622 7.9850454368741595 5.432479446706263 0.5666657374307724 -0.0523664294168582 2.075094424051052
P 5.111481466621255 1.1411040090156463 12.698937225512779 -0.18586633308093795 1.4858343462595314 -1.1963188743273592
P 4.264605365481081 6.180970230664408 7.7970776229912175 0.1389511565866381 2.844704790201288 1.1482618709191321
P 4.845185498128877 1.4152665976847034 3.517959793352398 -0.010720728851613794 -0.14046476501768712 -0.15463899963554012
P 0.30741990364641236 5.76703012703575 3.5125610080537246 -0.5400504488360893 0.0010580089508691456 -0.32214559926236774
Ni 0.9057189638373265 -0.026010598971280094 4.159444604469461 1.11269143001369 0.24011352446027678 1.0703913836938983
Ni 1.9790168758761693 6.690877662692676 4.59383067021631 0.5204028498084908 1.7271776293618515 1.956051833462883
Ni 6.021381158439574 5.817873144537103 9.129377660298715 0.8684947366229753 -0.28908712614550214 -1.0687345648167659
Ni 8.739271240703044 2.3790725761515166 10.214308744755515 0.7651315044432758 0.17674405906469562 -0.6121698925101586
Ni 2.389721514754741 5.4543501008656685 7.091710962059221 -0.761348897472392 0.7683173583704251 -0.7487836592128717
Ni 0.6373086145993048 0.24290274268587275 8.91788883334603 -0.4590776685364481 -0.12724620944488407 0.16604826991374627
Ni 1.769101372958821 1.5239129602170052 11.240981525272527 -0.38674430907935975 -1.8619324884789548 0.9227311293690367
Ni 4.515693743355407 6.768782578635925 1.6180450460062739 -0.0802191899630683 1.4194160667352973 -1.3642170529656505
Ni 5.741844254373316 8.157549179319924 7.678173840279231 -0.39512096317882917 0.021475139154640433 -0.5983954644338856
Ni 5.669304590900798 2.9825728498440394 4.837062397133073 -0.7567227115542903 0.4710721218941629 -0.5076766604910741
Ni 0.7633947665394232 7.62026264642328 7.0009810988671015 1.1583843040651147 0.03819785122596002 -0.822248818281558
Ni 5.1601946964019625 4.767063071950329 6.688907382477918 0.3339122528799927 -1.2558756508450692 0.6842643964835634
Ni 1.2370350857093746 8.080070220920804 11.813291737515693 -0.5370628269626752 -1.405823415652527 -1.1836420501906388
Ni 4.7453029854938675 0.48362403897021683 10.14959129311997 -0.7613902922332888 -0.0287395340265376 1.412532966462219
Ni 8.48426767859332 7.364769686284131 4.7902650700082985 -0.7914773414266562 -0.9471190712950979 -0.46626750141666795
Ni 7.4503962155805254 6.0900237635296355 6.89868512891291 -0.46124793671488956 0.7291118918155574 0.48181316246075084
Ni 2.456497156991811 5.469303929542537 2.8019287868421756 -0.45606562118300165 -1.6294682530338196 -3.340641279437298
Ni 2.755646233940945 5.466793498910117 11.269247886642397 -0.007776301511309188 0.04490637359438718 0.34428151192945866
Ni 1.0263582969684766 3.7023957847896565 3.9186009586777604 1.7955697447830044 -0.09281862389463369 0.05392683192544261
Ni 1.6271668814991633 1.7767867346060844 2.538402448679284 0.15643414386274995 -0.9465909667057697 -0.85991856491819
Ni 1.1627372145015158 3.4386193098561693 8.270301953836158 1.2570629862849512 0.28310236931697697 -1.1595436144805384
Ni 4.023449955018784 2.684620079189055 6.779941759999458 1.0247738429650997 0.30989017893378246 1.1940802148048273
Ni 4.450875693236036 7.17143027588193 5.703553390034061 -0.6497488792051971 0.3651511562896163 0.2092744275922331
Ni 8.29498845925005 7.850615048532347 -0.021390319056451314 -0.8548671185372115 -1.7796692715026639 0.12697290117883941
P 9.387469867749695 5.798315349213053 8.015517714547029 -0.6766631870975378 -0.9943762045098489 0.44474736795670505
P 8.776392987527561 1.8534590925493002 7.857046101156048 0.23641627811434762 -2.255507190216586 -0.810921566194197
P 2.3041040483848163 3.372251499310287 10.38482408113358 0.09612223434656994 0.8910299416110138 -0.12036336628212173
P 4.171746620860964 6.410062885994031 3.6314249138892394 0.37388750772134965 0.24308366283219426 0.6754041178794562
P 7.249226436707527 4.3157837112618544 10.183322599151749 0.6903504547766433 -0.42779042838739234 -0.7927950317968152
P 6.186344546061609 7.915931559607615 9.831203435858558 1.6024850395767563 0.04011486574301478 1.2138070038097934
P 2.6002986113044595 8.68173978346622 5.769490711572581 -0.3393267390273446 0.22259762706370048 -0.25266487876272614
P 7.4268144809034276 4.502887828252125 1.3635780091436227 -1.0320842605835838 -1.3594366008578715 0.28217420107575275
Ni 2.7486405917789933 1.8956742040504229 0.1686220910383087 -0.42633749799094955 -1.3057961898245964 2.030943954786083
Ni 1.9602294293021403 1.3245285778587605 7.036516833559223 -0.5066129951132501 -0.9893414702994188 -0.28159518864383115
Ni 7.017877112686668 0.7767236125000718 9.062896563171947 0.006316943356963315 1.1886238196759464 -0.2470403334870971
Ni 2.78237280410342 1.7212672470457842 9.079079324678258 1.6076437009595603 -0.13881103146434803 0.3041460773611536
Ni 6.594674698204824 2.3094330491496637 2.230878321378457 -0.9910998477514221 0.26740578451732655 2.0914713227471786
Ni 4.198989777832277 7.059367190070125 9.977364876224211 -0.9651900698641958 0.37225819964804274 0.6725368236339901
Ni 7.8804592654007894 6.627727191043938 10.828654622555678 0.025422553838162668 -1.373365552234138 1.1752072891597243
Ni 7.788552128060108 3.6193612524639187 8.0220040510222 -1.1424941151974195 2.5848696189423674 0.669545345105834
Ni 3.3901054644578204 8.588600088125506 12.538662089754103 1.2561615575166043 -0.00238238418924751 -0.14371129697944282
Ni 0.5287238799670048 4.689393792095322 10.099358210570102 -0.8253765652772623 1.529192144419876 0.7228983068056776
Ni 0.35010084956813586 2.0812194976877114 5.5962963741297385 -0.9607112081572358 1.1344658455763044 -0.7205668304590235
Ni 3.95149938176687 2.901649979386004 11.911595488359483 1.3322512986923314 0.4887641398572873 -2.206705595332851
Ni 1.3277277909029632 3.696287372348318 12.361554380661158 0.15701161363277477 -0.3232689142335336 0.6167027473835056
Ni 3.1199577522153406 8.121052774421894 7.903471848295519 0.6849169424658978 0.45492302293812625 -0.9257925419031798
Ni 5.8214258117136675 8.01237922311018 3.4235032547954733 -1.652295021120348 0.27830109127359165 0.2336034912559009
Ni 3.2959960359847287 8.755149487879937 3.6018045513046277 0.7490788218557873 -0.22178850089884386 -0.46183569089755944
Ni 3.539861261461804 4.593553344666302 9.003802657411551 0.07385236720477605 -0.7742951732204149 0.782877001352155
Ni 5.518325298823253 4.79581973764227 11.372353175930433 -0.770336445682983 0.16040804090883343 0.32585698667568397
Ni 8.104277297524389 -0.27380279048816525 2.733815456658011 -0.5120542207334794 -0.8052160311689874 -1.8185217255934873
Ni 4.614262131652147 0.4311225059247027 1.3945904372341535 0.699591256648621 0.2667833204419793 1.0000166906250778
Ni 6.515147518423297 6.056572501925804 0.0966234842760995 -0.2964034573012573 0.4611242666528317 0.10160356917611535
Ni 8.104676066289105 -0.06872235884300441 11.089898915833215 0.09946261157371258 0.4535253712596512 -0.7360358726289002
Ni 0.30665680523756855 5.279607815581609 5.739181566576186 -0.027493320324262327 -1.3658162791319701 0.28417709043839445
Ni 7.248365458692799 6.287731504490777 2.5971374625514345 1.3313056469496105 -0.13668267226743555 -0.30915767164313207
P 8.750509269526873 1.6050714667632817 3.405662884037646 -0.037988820538947476 2.505030952247169 -0.05154419062587897
P 2.0403185105248585 3.675052935627164 1.2524465921730197 -0.03129418212759127 0.14483821149503442 0.3680904414235983
P 4.958780218514252 1.421764715964288 8.274653064834803 0.26992443717412223 -0.17015329322105535 -1.3447784846250646
P 8.599348718919911 1.5734962309389122 12.350491266318217 1.1780406448434615 0.9659009798882913 -0.32621385579447043
P 6.404081354523283 8.084139474906207 1.3237636668646224 1.3283223959515704 -1.4560843686906086 -0.4130500368534242
P 2.246092256045038 3.5491054464620495 6.155939334044624 -2.24430849328729 -0.2018825060035362 -0.9281800682987499
P 7.124158051410084 4.138884449477738 5.959929985504117 1.4855088445993125 -1.0874215997033079 -0.10905488324783799
P 2.403143708858039 8.715943267967129 9.933605442052459 1.408250537036781 1.2782265077364436 2.0005038931286707
