# total energy = -340869.3648595868 ev
CRYSTAL
PRIMVEC
9.26270756538618 0.00000000000000 0.00000000000000

0.00000000000000 9.26270756538618 0.00000000000000

0.00000000000000 0.00000000000000 13.55690881077184

PRIMCOORD
 96 1
Ni 1.7687417416101987 2.9404001097937686 12.730330490184418 1.5078203636123193 -0.09481122884463025 -0.7057819588403652
Ni 0.10120526591887632 0.6815537061181289 1.3963614576115844 0.6566404641187078 1.1647197593648393 -2.0701594486432797
Ni 4.43169598050144 6.691083326281734 9.976677674232334 -0.6002006359634244 0.6455932051656108 0.8432210496578509
Ni 8.271940313597309 8.59282828160306 13.179822812218069 -2.948322304483639 -1.8945836988550726 -0.7622940349944808
Ni 9.11688447090137 7.742345025350656 1.697772731037602 -1.1477849312827135 -1.3806140062664354 2.779126490079846
Ni 7.989316589330026 6.647798695202125 8.048641450591651 -1.9268333029173974 0.4661705708274874 0.578435476372191
Ni 2.8947257002381197 8.260936217358795 7.0134764842191 0.7952285809389723 1.2897329657141465 0.3619886994012347
Ni 5.906522757680427 5.319081862523404 11.669908899894732 1.7164052213366958 0.5656894895604322 -0.4668940792570734
Ni 9.433974728925815 2.9022377558352868 10.841378259875727 -0.7471870041497131 0.8649329874136458 -0.026892710625785948
Ni 8.3254602362119 1.659108338345006 6.106031283330026 -0.7407114237276985 -1.5415416671241644 1.855616573563256
Ni 0.27090176821522927 7.771781909059408 9.671389957813204 -0.3198524323528169 0.8324211308288696 -1.1550480406030301
Ni 0.7573346931182573 7.420623413690472 7.295189684361596 0.29524851776120764 0.23880534717181456 -0.4879760967383531
Ni 2.253431425004735 7.919420200259467 11.19713846821713 0.08430004490066127 -0.43641442261097746 0.6493385311406559
Ni 2.3295338279471833 1.30160488849511 3.3733659095136543 -0.4339271374127494 0.5858165993276104 1.4094869805470436
Ni 5.5319481383291995 8.829462664267464 6.851146613015752 0.7666309718069377 2.002266127235416 0.5281274721462582
Ni 4.183520264576778 2.374911830870145 5.014049796824968 -0.3663814291522916 -0.8680846456687501 -0.8419879485816982
Ni 5.437533363111043 3.159138942009679 12.315610371247885 -2.043732621910319 -0.49445939046985166 0.898382525321343
Ni 4.500999556306625 3.360028537313456 7.630506171484125 0.4540678740266825 -0.7605562263677675 0.06161288771579067
Ni 8.310639904577537 0.600498533597622 10.68836111456312 0.12817412057579214 0.33078681987713354 0.2788826748086745
Ni 6.240322939622615 5.229344754477344 4.096721287277228 0.10200080461453401 1.9973023554722373 0.4619357068105335
Ni 0.4863356664766775 4.645053179792623 7.545490265334335 -0.6154246520020304 0.11026201618206172 0.7078290711773809
Ni 7.58763928850246 6.126169335208942 0.032701061751219646 0.6245399840397373 0.18226293200039578 -0.2965785494265408
Ni 7.029468548323304 4.061706401249594 7.937041574572723 0.19798188539754935 0.011679750330773434 -0.4603249106799879
Ni 8.502535411120709 3.817291344477151 2.813058262766968 0.879739199188543 0.014139781835491777 -0.2515503055423087
P 4.051823092590928 0.14018088557579397 5.360482458943995 -0.7656554952675458 0.26653983697260547 -0.1272058431252519
P 0.25602400779578416 0.8040520835126748 12.816050362086838 1.7906077727920384 3.3190694668037937 -1.7061105242789067
P 5.892628696773213 8.104702133810806 -0.16420093807218608 0.9115098067319205 -0.24115250724775242 -1.1399569505978624
P 5.953077124426866 2.2978646317860063 6.241830908366412 1.0853991699566403 0.31547744321357285 0.7627568335635121
P 5.229881991499089 8.615049516347332 9.141735388240013 0.43223175198819747 1.090195305793703 0.24794279069670846
P 7.389723022232828 1.9459188062989956 1.999969482040241 -0.2577327802039368 -1.2178984002703477 -3.904764967172507
P 3.7249328902732612 4.9048165425139025 12.577814457335197 1.1702872261502877 -1.6373839083364703 -1.6488808532324761
P 2.3030702732725756 7.405756768519754 9.015208659453103 0.5280146007174776 -0.4761037707807994 -0.16499128940414165
Ni 4.691468605929991 0.31234404681854105 3.004942654061415 0.166913446127519 -0.3021683848094925 1.3328089709680142
Ni 0.42701265775650804 5.109587212164427 12.293417850896155 0.1778316357019195 1.1092343247030252 0.2846409174486904
Ni 2.8646126388985502 1.2015305991340808 0.7540788515123333 -1.6576853388979838 1.2353911577384724 0.7187385190010331
Ni 5.296017721417429 1.4086539964315605 0.5014440683071824 -0.22257731534872635 0.27914698421365475 1.1206106848607669
Ni 4.826315098388141 3.983492101049249 10.06547554376107 -0.2561620932827073 -0.5024202971881412 -1.027825742417546
Ni 6.271158492129359 3.040576288934784 3.2598264225920808 -2.7582167365103722 -0.21326683658107787 0.4467263460599468
Ni 5.016960139449664 6.895705792615915 7.743882634757721 -0.01854716687456806 -2.1100012632305662 -0.5408325784177525
Ni 1.2806341192324877 2.5148342869130653 6.2642679641901085 -1.0086378566351855 -1.6394027385387122 -0.49210760240822343
Ni 5.867869480236556 0.6029726027098332 11.817598135984785 0.013899640800227674 -0.7799762827655922 -0.2995147492367293
Ni 1.6707330359707089 3.480879079084406 2.249199294052397 -0.05772152308118446 -0.013348653392764108 0.3140317119059818
Ni 2.7745976496343445 5.871500461486975 0.5189654053819067 -1.08707012990116 1.1058047301961857 1.770637500317699
Ni 3.6518038163649567 3.6907720258560572 0.8520838520689147 0.8245147314975995 -0.6554359022876454 -2.0298635772377107
Ni 2.7249217505374173 0.36618723791690516 9.370697470471454 1.1004084988812792 -1.3608797610623016 -1.3414689606358574
Ni 6.6648420765816425 1.659997558243068 8.475399383898193 1.0888349351110667 -0.6341142579917337 -1.4660296528287782
Ni 4.792117183141851 1.4351453392279825 9.741587384870085 -0.6024351817208979 0.35171945626474266 0.7351951218951597
Ni 2.092325157431949 4.352851816206634 4.766432622148774 0.7347328375467604 -0.4646309942545095 0.04519485136908345
Ni 6.846613444077091 7.939186817576798 10.833474391760976 -1.1693117496108958 -1.046735177727539 -0.6490238281137145
Ni 4.011298748278221 4.271488195533987 3.042536277793428 0.4818203615496024 0.0842041427527453 1.0951652482044687
Ni 6.69074986881996 9.002647502122255 1.5479141689045697 1.2289567149670382 0.3429687066553061 1.6362721633295303
Ni 0.6697576484079039 0.9367375863643901 8.15377503066436 -0.2770515351372067 -0.19601756258232692 0.16003265984728565
Ni 3.074079501135713 1.3292911205295523 7.254043812390972 0.9173642086301685 0.33416782053422445 -0.8313474381487166
Ni 1.3200932522089766 5.994342485321292 3.1261961235986746 1.403187520691577 -0.1927656313039325 -1.7694146836541913
Ni 7.408600419652096 1.8367948519337345 12.93108114487912 1.4610391415927226 -0.4718028294126003 0.12558707657490628
Ni 6.664786500338013 3.6694214855953047 0.7574282464616993 -0.007527161614980584 0.03372258906342579 0.011027204348439075
P 3.929231161852941 2.135026237953454 2.269670803393087 1.5553063250084245 1.566445886565012 1.1113457146190733
P 8.017447431313501 5.362644374821158 6.382361924277068 -1.9213038884587361 -0.2924442155431931 -0.7825764393926006
P 6.128485012026812 5.57417682077986 9.23666053862883 0.8167070625277224 0.23446738191809297 0.20503544981022107
P 3.130239295322674 8.5559904947844 13.306159655505915 -0.9133175493646207 -1.4854455954615449 -1.2381324679290355
P 7.767697055152686 4.214809689739824 12.083774070950108 -0.008700613097791467 -1.1023481391061531 0.45898382327106113
P 0.6512526118209487 5.150037454818963 1.123814632584941 0.4889392319825708 0.802495804024347 -0.5856186243841914
P 3.7044900953251134 6.355263874154364 3.2677571525579183 -0.6641061763681336 0.9345024109723519 -0.020143821937726597
P 8.754860819902994 7.236943928497099 11.465511517347247 1.303296049110562 -1.163809331735428 1.9304521306169076
Ni 8.400293648258154 6.5881931739101764 3.7324875543238774 -2.425019250309217 0.23466072887582168 -2.9292565461014393
Ni 8.697265306088953 5.088134782123688 9.793808675925217 -0.34596841271357837 0.04648657359731348 0.9527533867627397
Ni 1.9393052333071616 2.9205223399891804 8.885848468511847 -0.49505794328579905 0.08821814900814484 0.2963672047466831
Ni 9.117421707923116 3.2089908325447647 0.39303334240182464 -0.6025416253917752 0.08370997672514616 0.5223010952724683
Ni 1.5295508517388683 1.0451761003915623 11.004861338134374 -1.185043558523856 -0.08366678219203656 1.3826307795861479
Ni 4.360928896947361 7.786639291522855 1.4445831116668897 0.5270630354374858 -0.3626900963436334 0.0065627408191822455
Ni 5.366006737560703 5.783847462576995 0.8617457820237915 -0.24709998308043898 -0.8405789840493135 -0.039987596136531134
Ni 8.763966061150855 1.3005489398661616 3.362953700269788 -0.1135363160579593 0.3585789023887373 4.229325603634271
Ni 3.607907846605431 1.1761229930884216 12.247582270233982 0.5227170997639644 0.5307201725740989 -2.043727479703996
Ni 0.6350002656424165 9.402852032493657 5.532167664491534 0.5349966884622658 -0.48470179686245557 0.9473016196195492
Ni 4.616079431447446 4.638032047680844 5.582802253791058 -0.5670655439723524 0.2844087468332263 0.41768033653658393
Ni 2.569539836058404 4.890088837952255 10.608931547168758 -0.9005067707531975 -0.34182559418979835 2.527055279037061
Ni 2.1883516437153427 7.722532094496969 4.716638160398773 0.7561696672642977 -0.4064705838636935 -0.2910648186971632
Ni 4.5596139679205265 7.230904643356096 5.136807530023114 1.1107381629420612 -0.09562395455391273 -0.7567440517105289
Ni 4.454111732098412 6.911100412101109 12.264718278686212 -1.3607386074987469 1.9712714786261147 1.3069354456353621
Ni 3.178322008768907 5.263172161432775 8.524692733184807 0.2573622842383954 0.35829530971004747 0.1467254012154183
Ni 7.429617502451077 7.685120019827476 5.557220508848695 0.704560170618122 -1.3599765325217417 1.987195863165855
Ni 0.3436455135010406 5.922473139601909 5.267671984625258 2.910960576005728 -0.2651426995147627 1.995491527515744
Ni 7.620614526388915 3.423135361954023 5.122288236375075 -0.6745276288117739 2.5996735167244194 0.30701825670262606
Ni 2.2563213896734355 8.569013861208093 1.8190799242770361 -1.0976749020002 -1.2110435821320433 1.4288761837069328
Ni 1.0765674153345952 7.421216226955847 13.552800540835694 1.0261313854342586 -0.3630685627289747 -2.8231175509488153
Ni 2.8243198622676284 6.100067026117922 6.50242235711776 -0.5904931788676734 -0.8996138266252829 -1.8780407068947267
Ni 6.609951273290874 0.39676528716150244 4.864476526075896 -1.047754620130989 1.9449937758765086 -0.8288838070995725
Ni 6.8985679691628015 2.7456331639964384 10.655865684913328 0.8696504474939734 -0.16205020449794671 -1.1301389360661762
P 2.4329519546332152 3.943384578563757 7.023468166552841 2.8885384995567867 1.2915144830946015 -0.8171708895380184
P 0.47466928666825314 2.958258609413175 4.3563772025941585 0.694686620258152 0.268858200693137 -0.030408951309160527
P 6.57221500386688 7.84966275179798 3.527751156690257 -0.3260544473984707 0.1924750966467072 0.29662045840806983
P 3.0941517877930025 2.707100301747097 10.674601362911343 -0.11656019048594767 -0.7288308702400287 0.7139518962456672
P 8.352210934811922 8.998562648215533 7.342489699043389 -0.9188505633677079 -1.1619913046900827 -0.44258944107343773
P 8.757908250595309 2.7951052835333927 8.731543806888507 -0.02406192604521017 0.20239492686358043 0.7431035781089589
P 0.9350795617627958 8.96648589293441 3.52941937026985 -1.2113806537564877 -2.189810105129093 -2.1091003486828517
P 7.122429078499838 5.264376313378066 2.1673975473258094 -0.9001007935640305 1.4633081401325574 -0.7235372259412571
