# total energy = -340887.12854879914 ev
CRYSTAL
PRIMVEC
9.06472709853944 0.00000000000000 0.00000000000000
0.00000000000000 9.06472709853944 0.00000000000000
0.00000000000000 0.00000000000000 13.26714438537338
PRIMCOORD
 96 1
Ni 6.849253529949297 1.9111255131363407 11.196859889352922 -1.4359559733718494 0.9738744850120711 -0.2808544538230647
Ni 5.129393762017299 0.7878807122784314 5.7482028073169005 -1.3775158269570857 -0.7353355041277658 0.88517194016834
Ni 3.071510314527484 1.679358566530434 4.652044317987195 0.4039190210864334 0.20527044863916258 2.131917346577367
Ni 3.484553676896256 4.390192448075188 4.754082326871896 0.5954098994430004 -0.3326274726302981 -0.714953340926988
Ni 4.006990167849199 3.112582593746483 2.36122004171119 -0.9613452421968088 -1.9675315519677083 0.557722926415188
Ni 5.424359987085987 4.768635746489222 2.651213357404565 0.2586930872346771 1.0721312492031405 -0.008093832751727996
Ni 5.226622026617384 3.111603603202309 0.17158803526644764 1.8194766333075891 -0.4894999895820473 0.8184870372462807
Ni 5.947385685310886 7.869805848614271 12.293880434245136 -0.5456176585112217 0.128367724643837 -0.48830571216363006
Ni 2.083636337637945 6.6419341527659554 0.3087346393052223 -0.2934752279108688 0.08149137180727256 -0.11314113750206967
Ni 0.8773314408886899 0.030903468177755702 0.11284497672511005 -0.4983139883292515 -0.44404031458735144 -0.1302178904786983
Ni 7.959093412133833 0.5130617500197516 7.076350329070404 0.7118258510415999 1.0095290009908873 0.17465632329773148
Ni 0.1687462432701651 2.3773606950718937 1.1620563370980475 -1.7802971348946504 -1.0804729362996166 0.45850174142832
Ni 7.074357902018465 1.1122964232722314 4.685756038670368 1.4756450644313555 -0.5074498891922486 -1.0620689798711322
Ni 0.6145504364324447 7.554008880300104 2.1503917086051647 2.823111380301228 -0.6040032975389662 0.04471534062950364
Ni 7.9834503342837895 4.047446045614458 3.621546180571596 0.07531481068291546 0.01629230940212033 -0.2545443551736261
Ni 7.915492074009052 3.809814220470769 12.279326108155084 0.4083613731285032 0.05101582892623473 0.7453088132903939
Ni 8.282386909892738 7.745945415321752 8.697780756040252 0.062375219803111934 0.13893393019545752 2.0630364644452537
Ni 7.034590943525031 1.135919102514057 0.14351910730316578 0.21620997836980183 -0.47009278870002913 -0.09924895290100973
Ni 2.3738979692582416 6.588035284472826 9.132677362889527 -1.0057530788882227 0.18634352982767263 0.22637046384257145
Ni 0.33681172552303895 4.973036281494565 1.240546903977189 -0.46016678783556875 -0.2695415999134067 1.2122707696709252
Ni 6.449689417017439 2.461227551689457 6.805886061787846 -0.08082699875039628 0.9195853846512034 1.0694922689183968
Ni 3.5327689611968194 4.587051129999487 0.4668008209166311 -0.5283742980497417 0.05925261501373021 0.0415881078544316
Ni 6.913413669501731 6.145993859596532 4.789571640570926 -1.9128817258333117 -1.1788975935271182 -0.41438135407033794
Ni 5.48007180083129 2.991550355359356 9.211405425622903 -0.3933913820822321 -0.3844609123618217 -0.015373911352909006
P 0.4112920570619717 5.460283501220812 12.392442120225295 0.22094672172383886 1.3597983550726647 -0.17944963092131674
P 4.060444864506545 6.263780925624269 12.499189254922017 0.8690107570274452 0.6298775942025668 0.5649459265261884
P 2.5698955020927583 8.571633292059817 1.4190540455618583 -0.09881829312149433 0.6365429220378843 0.19423733075345256
P 7.182463839331593 8.137768251172828 5.761363884826956 -1.0687677320475466 -0.3231861247117402 0.3300581692412251
P 5.056721843566909 1.172060170103143 12.533936167458382 -0.9187924564362627 -0.6121935466592425 -0.795091798250792
P 4.126127878238804 6.36973852257657 7.921175658001617 0.840995502761442 0.7112892618118395 -0.5315465251301362
P 4.931229759367435 1.295956862304705 3.6147394768714087 0.7731014100226298 0.3343213153929533 -0.026488276098515673
P 0.49483620938904777 5.921487759526582 3.4436064909134565 -0.7362870694077578 -1.3150940701867546 0.983239471166739
Ni 1.1259479025271006 9.083400599026715 4.374111621914406 -1.3972500721612193 0.18164406746947426 0.3848123821639695
Ni 1.779659773671953 6.731412075557996 4.994284002194042 0.8291018366476495 -0.08882544357484057 -0.3572128752791461
Ni 5.899968097009278 5.540905185478985 8.873835888900857 -0.1998734459933074 0.782515504247678 0.599484069512374
Ni 9.063394745961977 2.5848794962549753 10.099335345625002 -0.4272916343741028 0.8910106583373042 0.7377510555477939
Ni 2.645803528175278 5.169151655783472 6.751437871022708 -0.44149800778147186 1.3503942881499453 0.7319781576197587
Ni 0.8537114810650427 0.5978196693270581 9.17286401825514 0.3619799576504863 -1.12498438844843 -0.17415418685033232
Ni 1.9463329138175571 1.3241028404497042 11.421605298222559 -0.9065336936735677 -0.36868230937132634 -1.2599523920176043
Ni 4.353534691032233 7.287478704648764 1.3310001914224996 -0.3967464145973942 -2.290188543648856 -0.290866329533112
Ni 5.960946517293147 8.221462877972435 7.609410680373085 -1.1721679881127685 -1.1269762220674784 0.2033405786063014
Ni 5.617202994833721 3.265386701182957 4.576448118522449 0.2683452656124604 -0.4782182460206409 0.06061247147573432
Ni 0.5483008772463812 7.997926703719397 6.756293845416357 0.5923849965737474 -1.0197432225197278 -0.7379906823624257
Ni 5.202772729194036 5.131188578014951 6.3185572595162505 0.11166043919148512 -0.37905851039932786 0.41527069865382676
Ni 0.8875773021116505 7.421863286291152 11.379375453332347 0.5992377578295228 0.4964964755045385 0.0032689005592588865
Ni 4.377030464092406 0.6926675365484382 10.217320022707026 0.6815184583073102 -0.5851846221705664 0.7415033235013746
Ni 8.163348911503002 7.7642561643887085 3.980939048174186 2.0376229094681553 1.524021398852214 -0.3267062220498567
Ni 7.418346172113934 6.268811849254051 7.203276453122549 0.11484886422179576 0.5412802074781323 -2.3505603598686937
Ni 2.7376654742369273 5.449079498326379 2.6944638905843505 -0.9045896825733196 0.5915987532270263 -0.3865923568825278
Ni 2.4467511822538484 5.2497280164053395 11.399913405887299 0.9691665380134405 1.0312625360132368 0.2045238002811252
Ni 1.4055856737976586 3.578165115319253 3.876938525837506 -1.2762822395258795 0.17299847597933432 -1.2178464639864897
Ni 2.165563342621682 1.316080556823835 2.6958834268734027 -1.2317301639471172 0.12248529772113098 -2.136770046683978
Ni 1.3346360535268342 3.658859317395512 8.094948292537934 -1.5413920289201777 -0.0020329712696287566 0.13269411993333277
Ni 3.7992991368481603 2.8796553620511847 6.9214821832366304 1.0278619949721202 0.6142630275937615 -1.6527048549642567
Ni 4.523181061719402 7.506509709453149 5.787434040429217 -0.8631951787869327 -0.8086389408076073 -0.040300499391259625
Ni 8.322797464021694 7.11017263942616 0.27898057854414476 -0.26289015603516014 0.2571671375084538 -1.114946544596454
P 0.5952063084577496 6.087064067673621 7.886959032010013 0.25468010942054203 -0.19586663882675945 -0.17672837533541177
P 8.339966057453779 2.4565410876955873 8.072274690240322 0.2523442621985138 -0.9507430412009302 -0.4152616997927623
P 2.070510612564206 3.4138306748069533 10.338223541967048 0.41736846172311987 -0.33171421678740937 -0.8001717838768607
P 4.43212587638397 6.199684239162662 3.922643787159535 0.2666838187496375 1.103429802206106 0.5725563918835946
P 6.908128933508643 4.116156678251848 10.376725064534865 0.06678054795965918 0.24866167114060403 0.43765318011408494
P 6.559100675056131 7.811329293054403 10.130353935838972 -0.31184216045383073 0.14046039414231293 -0.5833372845491824
P 2.588151862796149 8.773831098340768 5.923103093924469 0.5116202185198544 -0.5075239369632937 -0.2813126244064058
P 7.09712849689777 4.241358691178975 1.4442349514198272 0.8014272535505166 -1.2162248692226667 -0.6636197236500184
Ni 2.773670570917101 1.6456921694835651 0.3309187463307478 0.9367703810709221 0.4234594051122062 0.9217268564742384
Ni 1.3962399399917023 1.197649895160577 7.0007269354238755 0.334480723788953 1.3296989645841228 -1.26145160227095
Ni 6.720226202118083 0.7343136130030502 9.10566628859759 0.31072321635803907 0.8244067451648254 0.5058678894171094
Ni 2.8943492849410544 2.0331458067949026 8.755572924691926 0.018038859779581834 -0.6912739950321772 2.216062611067719
Ni 6.727042877018257 1.9674174694263393 2.3765439631456893 0.018713003028471 1.571252821035352 0.18242799682335034
Ni 4.417132817494492 6.942547702918164 10.461104078242668 0.06634423175318897 2.204361520580707 -0.9859861806739406
Ni 7.774000746194142 6.344602033882181 11.312031781565898 -1.2475650740968451 -0.511087743055152 -0.8967712149701653
Ni 8.077460620706264 4.607628060881661 8.538813540539113 -0.3251393917833691 -1.7784685663263435 0.059218419341685105
Ni 3.388947998475867 8.536072367015427 12.495129163581874 0.6195044784983589 0.03651095044184034 -0.5308384433195181
Ni 0.5397111416939814 5.215726224449819 10.134254487979325 -0.13901723393788315 -0.3283967223784022 -0.35492253658307266
Ni 8.635412713067293 2.6438183529051473 5.783121949671221 1.2654172717869174 -0.8044827525473888 -0.33813966069777895
Ni 3.828342522991986 2.7476457389511446 11.55446247332149 -0.0020748802511577165 0.5708021281966491 -0.30985598326173736
Ni 1.4147501130583973 3.553554380805993 12.655688145190021 -0.30666627267984603 -1.0259308393876783 0.07682404823859026
Ni 3.1260255842743523 8.762300765264943 8.188893312924131 0.6505243239186409 -0.7506029718097976 -0.809381989621219
Ni 5.835209685457629 7.992197796090529 3.255943068322584 -0.45513282495608715 0.29209094596883245 0.9516053892012257
Ni 3.233415408133871 8.19137704819361 3.610918694330952 0.9690346404212665 -0.06257088075368579 -0.5263708944664677
Ni 3.5948986018428184 4.4349268771075785 8.935329185693142 -0.19629164217932 -0.08287796774215404 0.3689905846403645
Ni 4.833511999495263 4.790780875187525 11.00487077891316 1.2830252146766679 -1.2006630102286677 0.49058319534389705
Ni 8.091030517415787 -0.032758111375329566 1.8759480260550851 -0.23709324957671427 1.5075704523850424 0.9606261046425972
Ni 4.790799004642047 0.4968059746228347 1.620329969080379 -0.5936029281412486 1.442585048652593 -0.8944947602311627
Ni 6.184582403546054 5.372509747153814 13.070539014174612 -0.6226090855656117 1.0302976009968061 0.5886137024567734
Ni 8.311838208763302 9.206680889774539 10.809340079532578 0.4293071221422348 -1.2231321378654614 0.9479423385273417
Ni 0.2802976834151491 4.948606841526522 5.845477302026016 0.8220891527752422 0.9948387459685641 -0.07885187730189645
Ni 7.412136833940239 6.2748308281552685 2.313339245846552 -0.07845669874600682 -0.5403952337700176 -0.2692868035901233
P 8.946133434115373 1.6127781447993486 3.410478538665884 -0.8023415378346698 0.2940133598025259 0.010650280624994561
P 1.887801969894124 3.394840071195432 1.7406760076138583 2.5685575120459054 0.4111667037877822 -0.9316916809964341
P 4.898025663410871 1.1946313409827074 7.965513958452707 -0.49489339268347676 0.11588861834021978 0.38210038254944517
P 8.97633710534859 1.6783070581681732 12.245242733654216 -0.7541248689201271 0.49400687631346535 0.49209294712020407
P 6.360166170589093 8.036252370578353 1.0842365600362105 1.5214891193486637 -0.21516199672126168 0.8818714150401973
P 1.8453155932224294 3.2668914459082616 5.903494275913757 0.4590110769645708 -0.8173930328511536 1.0957396326506998
P 7.3244899860548935 4.33577689032819 5.930546141478369 -2.2356618733558853 0.2739351009954121 -0.12579585015160272
P 2.501774076727325 8.520200029581645 10.345984761447806 -0.07152551884381231 -0.15902195919458417 -0.465477915635837
