# total energy = -381172.422712317 ev
CRYSTAL
PRIMVEC
9.21978056570870 0.00000000000000 0.00000000000000
0.00000000000000 9.21978056570870 0.00000000000000
0.00000000000000 0.00000000000000 13.49408080761667
PRIMCOORD
 96 1
Ni 4.9640127541782855 5.479794930009291 10.781972634253979 -1.5465424627728657 -1.4456238354789168 -0.0749456002689548
Ni 4.734864331710706 5.316623256201002 13.199153813257832 -0.29477260656605364 0.08705909570303716 1.4053094521305862
Ni 2.7066878159450085 0.928339690120729 12.170702981442417 -0.04875145837209023 -0.2854932381466567 -0.3168344714620995
Ni 7.367858442787951 3.8696524781006194 8.480934873110776 0.798088933205903 0.060525825299199 -0.4313033266366572
Ni 8.986298697071325 0.6835148750112556 12.605077262131314 1.2908789063931316 -1.253395564735693 0.3084922701449913
Ni 4.523805118419975 7.194784724812519 8.522712464111313 0.30056093111305654 -0.04148989171367048 -1.011320288563355
Ni 0.8096977117672524 5.747104023620079 11.001454116955031 0.8479518794746171 -0.1836245882346128 -0.7051163002319082
Ni 4.968143215804804 7.360501058015717 4.131064600157121 0.045996521334772396 -1.6104598302521167 -0.1784993511929055
Ni 0.10467308904468813 5.116692317872786 6.6042190660685405 -0.14265688757299946 -0.19016058958091767 0.22852813361552254
Ni 2.9269668096520745 2.874598456887294 3.502212881256271 -1.9076060792566696 2.5453936723349324 2.2854371450067994
Ni 3.110726253130039 7.795342781571721 2.3070020370945294 2.0235792868908953 -0.9345188660325839 -0.5474925069364313
Ni 7.636716459508684 2.2379818389198074 11.781101798411326 -1.3572606762524755 1.7809134283224104 -0.897072805370984
Ni 7.03123504000716 6.2447508913721546 8.048382421032148 0.16634060434318448 -0.1571566238510713 -0.7664790196101058
Ni 1.5218077357397697 5.11992846079892 13.353013508845624 0.22682580621243514 -0.8705305361060813 -0.2970158940742756
Ni 8.158906382729043 1.1998898827230315 5.517122133002863 -1.3299979838817804 1.6455083372158177 1.6811762229310723
Ni 5.461373808737455 -0.013756834359212827 2.5537952753228903 0.3918824016368735 -0.6170699009149373 -1.7239817481323727
Ni 4.923722313758904 4.250613804903565 3.183226918411927 0.015298578030283332 1.464255077426859 -0.8115800257138023
Ni 2.2206947506391796 6.005045820327871 8.136565932802222 -0.609747399111595 -0.15277932071898206 -0.5055004787753616
Ni 0.9982164058961288 1.5598577695179825 4.689219964803558 1.6510961157162403 2.091533543443682 -1.3244989084404222
Ni 7.983407862504114 2.3139436097699875 0.5273133551977152 -0.052238902700058425 1.0752155445554192 1.4869831151519939
Ni 3.047902669373135 6.995075061214296 5.853664401715991 0.3531975834721659 -0.25581216614245617 0.7776620328101188
Ni 1.017458087625019 6.9396365215708755 3.8330877509474783 -0.8820483069376939 0.671802773681443 0.6451646022686244
Ni 1.4329659316479697 2.297827433602235 0.37041205405057487 0.9252659799757484 -0.3365314356703946 1.0801366360061204
Ni 3.658860638441962 1.3592537872193746 8.032608298717841 0.6505937437039957 -0.228543046013858 -0.5422487420389888
P 8.27608057204024 7.765470693022796 11.413360714747364 0.7608254208687543 -0.893819331430693 0.47229416722672213
Ni 0.36522777152246994 0.25298893066813766 7.761794766570804 -1.1851464026503074 2.9803934739865703 1.378200511728936
P 2.181105013531439 3.9353065344453384 5.42559184094166 -2.489839589218712 -0.1358231524806177 -0.3864607164006699
Ni 0.7823223397550717 4.848322949514119 2.711824155614948 -0.2576283934155886 -0.02383489763606863 -0.4922834658644553
P 4.650023912319596 6.150285021226391 2.022047205744918 -1.1321112293011986 -0.8161000250713428 0.5815223428276308
P 5.4556483250989105 0.2582580351760728 8.40997022324625 1.8156459467075894 -0.33836180401091404 -0.5035358988498232
P 8.235273823917542 6.667680658630254 5.268372457370155 0.8904820395273437 1.0344985264520312 -0.5144654012781333
Ni 1.2044628938095334 7.127452668432028 1.320479078700438 -0.42688385741272283 -0.19057787962399436 0.3227392669823087
Ni 2.8129181259020153 4.304955190677441 9.781332348086396 0.08661635173866374 1.793345740548492 1.613343836668131
Ni 8.1628893278689 4.759416606959404 11.841176965626119 0.05556668152171075 -1.416481666697322 1.087383804486837
Ni 2.8301037965980633 5.585407514678403 3.6553709515543797 1.1322870927574307 -0.24655413787929795 0.8507597812370573
Ni 0.2991496052786 2.4516594698487775 2.3921089081396727 -0.011961800347566496 0.029240642032672223 1.042690061123888
Ni 9.100891347865947 8.969896707710665 4.216602956925748 -0.7329058116403506 -2.476420744709645 -0.9732952154698333
Ni 8.435370718293251 1.4855094602406602 9.801249839719803 1.192811375394733 0.7268058693902 -0.873608917921089
Ni 6.920155125551162 4.883302796413693 1.0022712653232326 0.4477339613888547 -0.15975986580187324 -0.2001650090917972
Ni 7.025463457466534 9.31870866020185 10.956221874232495 -1.6005040045909853 0.1671898397173572 0.7916691457224881
Ni 5.734362287084705 2.4455467554327477 1.902395661435853 0.9211416733947297 0.3589506839058592 -0.7363940272992672
Ni 5.955609357735486 2.8923649737495705 4.704509126667966 0.485032440728997 -1.3281660728793643 -0.41383936552393885
Ni 8.213607339939156 8.503633972495791 1.2989794727475874 0.37288374904718363 0.4219306271725056 0.5194929363997117
Ni 2.5856597584197845 8.422841036707453 8.197762225315643 -0.9901153723509658 0.8982827665186852 -1.3590985007921625
Ni 7.392253981769573 8.507727555000645 8.793971311652461 0.9159128208956226 0.5531875004386796 -0.23939824356080705
Ni 6.6249561961809595 8.980066125509882 4.458673823624862 -0.01378934047460851 -0.43467841375647714 -0.021536588520195167
Ni 3.291175795438539 1.8822089522142884 5.796936014792326 -0.15110141879592687 0.5234611770188404 -1.1146174433918095
Ni 2.8743218634748033 3.6787108256783307 7.573579403217625 -1.1272197055368522 -0.5107205895237203 -0.8053098764343743
Ni 1.3830869195955995 0.4635705593333027 10.219350285995827 0.7396852964560293 1.5286918077446898 -1.0366723941748983
Ni 6.660959438706747 0.5066693448675004 13.434382680909984 -0.6224129103944055 -0.5811762723421218 -0.20333620773092723
Ni 2.667227155763096 7.277375517782044 10.089861235982534 1.2973444595128172 -1.3428470719303067 2.1079981167576083
Ni 7.484949654075401 1.3635594246738028 3.0878777933022783 0.7668122345798084 0.47652697436114705 -0.6163168247989967
Ni 1.242568246270244 8.115259942238115 11.810316516616565 0.22095314948174205 -1.1380689895465301 1.8743226346131912
Ni 6.172818164563912 7.192507439049684 1.0865363704163642 -0.05574614452236851 1.1072154945007835 -0.4769049265258561
Ni 3.678563309191669 1.4115299421799918 2.287529860855231 -0.7541613785850173 -2.3091697127370487 -1.4346876481823871
Ni 4.210323364484182 4.265946299735929 5.58027486292063 0.6702624257775166 1.4049800938156254 0.16031291009186585
P 9.044281896109652 4.216058067903143 0.905603711614048 -0.45518193302646764 -0.29558764626818124 -0.23596504950954197
Ni 4.921979775260216 8.057424259686448 11.922128481637621 0.2427471054283819 0.5037940376072162 0.1181355053928675
P 9.006969444764746 5.767258463610187 8.945226419272636 0.4169642843061657 -0.8549784473040952 -1.362262500342441
Ni 1.7879827963593489 9.275467890049242 6.051865709238102 0.2525589493124812 -1.7611614425064634 0.6042220984179917
P 4.01963986591355 2.5925284948299536 0.46472303188534453 -0.44452908129831187 -0.2219021436585727 0.30610165842562764
P 5.089807438178755 6.159384944497313 6.692308536078367 -1.5538382251033305 0.5120665620286535 0.1544374251476953
P 3.0414949219837824 5.743370012551464 11.838127062264396 -1.2635285394046367 -1.0635453073063426 -1.7986998057715542
Ni 6.607208118879516 6.479163808457462 12.3993332522506 1.0976574184987031 0.10710418727937038 -0.6341672227168561
Ni 5.1082930979135055 1.5768221654840382 11.550960405592907 -0.32804782367941565 -1.5554346230561729 3.0619365249673844
Ni 3.147854308866618 8.824261056254244 4.283182679224266 -0.33547316960920937 1.2775019708655935 0.3018372267223189
Ni 1.423663173207888 0.08753997109701357 2.478997962739293 -0.5631065593246045 1.2779735111853734 -0.3099724542349436
Ni 9.104874293005803 3.6523330339071975 4.55008241458457 0.7856183115427179 -0.3445270522813615 1.4642159966588075
Ni 0.21312721003811508 7.457871158992627 7.141769143462512 -0.02986182055643889 -1.9734168071038913 -1.2878275211613175
Ni 8.94412742144701 6.606682591395785 13.211676119019298 -1.691794621876867 0.3745179422164969 -0.1679089772715689
Ni 4.692785253890555 9.14854839283798 6.423128749021105 -0.0997531462309379 -0.9574669901883253 -1.076068636584334
Ni 3.031519119573308 4.373919148191623 1.5986306340808358 0.5841546382441553 -0.2047091768190539 -0.8456479139317886
Ni 6.14530633980157 7.116914459416157 10.086757857894396 1.5738866591137732 0.993938859862114 0.5647865181301885
Ni 0.323191104692234 2.730742223051225 6.953567609779958 0.24090696689584962 -0.6996318800785692 -0.48696488186501935
Ni 5.324137377240314 2.7319500142857653 7.074055388172784 0.45744450380839924 -0.38260946097537973 0.2494170612493898
Ni 5.744347309275596 2.5144553942644325 9.754937960710514 0.30334337895420016 -0.5876258846222072 -2.5670601015647723
Ni 7.275522341918361 1.4683698884466942 7.754535111470982 -0.1748247305547957 0.002829756139311256 -0.22403075996580127
Ni 4.858307971705009 4.668030143472697 8.353497224240117 0.39693179113532284 0.766857485995447 0.4553313141201384
Ni 5.713202891029217 3.3604255661456284 12.869669286453409 1.7094470448513075 -0.5653634736795812 0.17498131073731799
Ni 7.07472474423101 8.348280672480556 6.505846774960375 0.9038507475247658 -0.9662305953135681 0.6149675098599539
Ni 1.1644121676809758 2.7852403450921788 11.737825993093134 -2.351286439401441 0.5297359542839586 -2.4446884466033705
Ni 7.373325772574838 4.125980813235554 3.23252047440786 -0.047107752121080156 0.13238970131903652 -1.1872318244244262
Ni 3.372402060906447 2.175527046379557 10.132260240183133 -1.2241436098491112 -0.17087731587127344 -0.1744778887383382
Ni 6.414717543347283 5.410858631836358 5.277980390542019 1.0995795752220805 -0.3917430478455318 -1.0198244693796246
Ni 0.5902429664294068 3.6829795840110937 9.138637128890421 -0.1699478620784686 0.27781155323168283 0.7377045185805747
Ni 3.3733332587284965 7.12073144850852 13.324905164290344 -1.3719319051114052 2.0392475895557713 1.7237061258734832
Ni 4.3292032131724 0.2650677649915776 0.2289004103743803 0.04276695865388118 0.024042899881816657 0.9429374291135825
Ni 4.22363672740537 9.23711360351729 10.07628603129752 -0.545566236447996 -0.9478117264867483 0.014574812490381351
P 4.812780696009149 1.045292604701933 4.371096973406184 -0.0822004820591552 0.03175903757915175 0.022800028613651057
Ni 7.544758369636163 6.636591559066375 2.9546639520007845 0.5562705102393773 0.13766380523378227 1.1689245414748062
P 1.7961884009298867 9.047407401670789 0.3225567837995902 -0.17002268118046204 -0.11119841195340205 0.219641372648854
Ni 3.304987026502208 3.311035202455324 12.039405010511437 1.0986349519206242 1.9748288569600698 1.4839924079547862
P 7.3434352444650814 3.4004762922741856 6.25862205100853 1.3130752399845127 -0.3527391557785086 0.20951122619338758
P 1.7447512459871561 1.862745995755406 8.558795918726723 -1.9536113423421904 0.6917121110108604 0.2646930135718539
P 6.67407918623919 4.186711506837949 10.499001899649963 -0.03271780194799527 0.5137796880650184 0.7294201670845953
Ni 0.4057560822765935 7.728628450479124 9.548964378297432 -0.923767283943035 -0.282152860919514 0.06871864552263648
