# total energy = -381170.6776913046 ev
CRYSTAL
PRIMVEC
9.23220472514973 0.00000000000000 0.00000000000000
0.00000000000000 9.23220472514973 0.00000000000000
0.00000000000000 0.00000000000000 13.51226482080993
PRIMCOORD
 96 1
Ni 1.1236054412280856 8.791892912531075 4.607641827268407 0.29906712017634945 0.6772224020351175 0.3415864815957988
Ni 7.7317588768199625 7.107689553368215 4.045179927257431 1.1987457386012967 -0.23818005488298977 -2.07946581364587
Ni 4.800903255668258 2.1459243675577424 4.589049090749042 -1.1475746150441204 0.5579219297998714 0.5746274154800103
Ni 6.593215728809845 1.6111119966206255 5.96235427255245 0.21302772398707828 -1.1891400971907327 1.2020745458642135
Ni 7.000309783540156 2.2174000943231817 3.3047755956719578 -0.13528244948579926 -0.2477065063161863 -0.45431007194447565
Ni 2.275535285674509 1.0855502945312188 2.70868169811076 -0.03146104672275872 -0.16740966903764715 1.9632797186698898
Ni 5.929540248315508 1.1768383320223927 0.6412541487941898 0.5298100020550037 0.14259903775187055 -0.5940197039636931
Ni 0.8665660981238922 6.602983401106131 3.7489240261379657 0.5739352745089922 -0.3073188186621804 0.25312459200796406
Ni 2.043640774579919 6.603445011328072 0.7079494401012022 -1.0990463284264298 -0.9935375106586373 -0.4296498501936342
Ni 1.8392028394864166 6.233870635437176 6.801858009804793 1.4099595493080876 -0.4443231359350928 -0.6180901146493355
Ni 3.6514014809892483 7.1679019907182795 8.342606760294858 -0.6029987675338517 1.6958420524733635 1.9096645044475946
Ni 1.8669456138251077 -0.02984402406896931 9.37525467695068 0.9670235235285087 0.19470244331532918 -0.6356396934973246
Ni 5.576713091276654 4.158757275925278 3.937149287016435 -1.1588833551887203 0.12229940696257002 -0.6310363903973584
Ni 8.146257159510217 0.2607710001383695 4.15379127315763 -0.35155953364811066 -0.8612138866908458 -0.8654058132850062
Ni 2.8202907407922475 7.790069480055627 2.390981232520775 1.415020508770763 0.6252668349034328 1.557264220065744
Ni 6.128429628541273 7.167588095767359 8.211741185594853 0.09241187537451827 0.7549213966794933 -0.18233543710954403
Ni 3.606505270803207 6.183388941565641 12.484021340181789 0.2609420311698538 -0.6357186263643761 0.04361979357247972
Ni 1.3017869868975491 4.306832602919709 5.12301302209823 0.14868021094894393 0.14572755607852322 -1.4395493471500627
Ni 4.27884055906117 1.343304210258978 6.981273901207728 -0.25025035578396254 1.9585967113719234 -0.7483026058113951
Ni 7.864416422401543 0.29189645418344873 12.524950472120466 -1.8052499481852458 0.7047992832121216 -0.41012026480113883
Ni 5.7949531720062115 0.2207309294871538 4.413267918233675 1.2299594451999398 -2.084075801614056 -2.020806609241765
Ni 8.620072355719968 6.1401914569963445 1.516967515076077 1.6177792467316654 0.5688537462210268 0.18152708227563577
Ni 1.338457302928591 3.8410124957539864 7.402829280971025 0.3713215467663863 -0.49506848480876026 0.7673058863867753
Ni 6.255141634464246 0.8545688484556296 10.582400489704872 -0.2379432562818354 1.069510780861158 0.1709387652368282
P 1.2687910882331626 6.033725675407731 12.203804547833908 0.13428049058384617 0.44732824131000376 0.2693359116605039
Ni 7.641809508972419 7.8665121328091585 5.957192547050699 -0.23749845543493292 0.8610215681743818 3.2282681304495044
P 8.630218548398245 8.39662531168691 1.9026751682238325 0.777998333103615 -0.9738282051551681 0.41588519230937404
Ni 3.500233365507808 -0.0131688164115504 4.593561792278743 -0.14085968646326066 0.03859560088501095 -0.8889612320074434
P 6.481616841553241 6.025767515181457 11.854620418666617 -0.3253021426134785 1.2947103643240798 -0.0757254158577728
P 0.3748653522547908 0.574498848158325 11.047789452923302 -0.07892026864598667 0.06081867394926946 1.290389882571855
P 7.131748678135812 5.0701604981268025 7.419422322008939 -0.4163893856393022 -0.12780053928645732 2.714725755206273
Ni 0.3475435664385105 8.237776002112362 12.748456602261932 1.279104539466023 -1.510364984411044 0.27911870207888057
Ni 3.511856710896298 5.32017782653482 3.3633779365678897 -0.43180186353963057 1.330665185152134 0.23904754508960765
Ni 3.289388280533756 3.9097093289833373 13.540639752442594 -0.4326264163234549 1.8871316134524014 -2.5218279691998506
Ni 4.4376344754090855 1.8875888229503366 12.204358480100236 1.6519764614386647 0.3181781299741875 -0.840351698529856
Ni 7.5044250747181565 2.6160005209697665 12.806721967695847 -0.4855584884357961 -0.9074088971896694 0.5679332912892864
Ni 2.304487478794687 1.978858396032633 5.546771205840633 -0.21633519109375648 -0.5645970278272018 0.42293078630224584
Ni 9.450176785633134 7.231991953932654 10.6011418647157 0.25098774817061936 -0.1068409063156547 0.519275421072267
Ni 5.003697858371649 4.978253902938228 8.3125420865398 0.634488867722333 0.0013086915090945203 0.6272185593131651
Ni 6.507356227528705 2.7617124036278566 9.107347182781092 -0.8427546515443937 0.1505933688112568 0.2049017524458342
Ni 4.798309006220947 6.026663039012024 10.323194348218884 0.9707894183288442 0.21352034735278067 1.131845634344638
Ni 4.422872180511392 6.414784913620534 6.56078576427756 0.049015767777070424 -1.8946209798509113 -3.615756773894056
Ni 4.5874269924291395 6.132140974725683 1.0621789689943149 -0.2255788211792115 0.960245581374727 1.1946340304257683
Ni 6.557865618013557 5.949029431885883 2.586531324401014 -0.913656163650962 -2.6717695633597214 -1.6099335254350018
Ni 8.125660111407182 2.79908436719625 7.463337148863133 0.3174505077795436 2.006313300721596 0.32151105100216243
Ni 8.37637908735255 3.6785441620394153 1.4680534495182558 -1.5402005797152378 -0.5230014637736025 0.28547292643168254
Ni 8.760401863190218 9.506493232710012 9.154856106823324 -2.0782422256514144 0.22634938079664887 -1.1260657944380672
Ni 0.5914251717764801 8.29953944980815 7.17363426645435 -1.3179788479337173 -0.7338944008058651 -0.07074647458594266
Ni 9.03277035854465 1.0630421801093457 6.395827505025836 0.770816470643195 -0.4284139209040041 -0.8167060340864579
Ni 8.468350307972198 1.2191402927611223 1.406816237475481 -0.38888038158575605 0.3096690640619118 0.08711411731068869
Ni 5.9478477097177125 3.6992150677779607 11.288753681658598 0.08719767816343046 0.22126708117773505 -0.7997310967950163
Ni 5.23218568602831 7.121630182070852 4.0243714616727475 -1.2131986808018331 0.11875719813726644 0.8511526458001019
Ni 8.436933116266852 4.670959978191694 3.7149670549914964 -0.6510981941442399 -0.2342663216508804 1.1387639587310259
Ni 8.442924816947654 6.925695107265514 8.545183482973492 0.5369959782804816 0.17662218877485064 -1.8027940304455854
Ni 2.6574715833090012 8.892006937465773 6.775805652098851 0.5888286466810569 0.0637823845632837 0.3463237391704681
Ni 0.5912673010805761 1.8527003223759893 12.968003963140028 0.058046767631087126 -0.0937899866689675 0.32908474958436224
P 6.157123319937163 3.7247790418690876 1.9354698048314527 1.6101919213027107 0.6777592483751941 -0.2628942698002182
Ni 5.483975597688583 3.429791645639518 6.877256500236292 0.8183978199665841 -0.5843040193378259 -0.8597815251196934
P 2.7798352209412847 7.156915667436069 4.910478443711871 0.2119820563313833 -0.492788430525332 -0.5172108252337544
Ni 3.6237417964905068 4.206349289807458 5.729726724425417 -0.17971111211281954 0.2665640053423216 0.14128623247771796
P 7.862717696784799 3.0414205015111593 5.15917187400336 1.504744552900473 1.0766936717628424 -0.2732267620744778
P 4.340567077939203 8.43077523590615 0.6739158416578906 -0.0063624518829180745 -0.1283666962025725 1.5209954675416966
P 3.898344485319135 3.896239542707081 10.74437120760019 -0.8445312838288423 -0.10014446813208559 0.5955273988574711
Ni 5.001888346301638 8.549418295149584 6.291958742545866 1.3859834981084647 -0.4144816270936281 1.3887039823634215
Ni 3.684406611858074 2.860330811443464 8.864261393465751 -0.08037885546938416 -0.865787107883825 -0.5821849161122941
Ni 5.486976064131204 8.572471109633348 12.345398867312278 -0.5305756765764346 -0.13910079479062495 -0.2363615136170123
Ni 0.38122726433359017 4.7526188264531655 9.549158019083189 0.755310404587796 1.6074356987138123 -1.1664310856289912
Ni 4.520345794976584 0.19404524255670905 8.903555501998309 0.7983234178142122 -0.11093281699684121 -0.5146304661010879
Ni 1.2655136556573772 4.672381737675274 2.4703523405223042 0.7141935799428282 0.36039024456586316 1.0972540124126975
Ni 0.3476238866171283 2.045791878214167 4.017898763140682 0.31009715273826594 1.2033626685480179 -0.22357130383087948
Ni 1.0414572861313558 2.400437779527471 9.623745921964959 -0.6785838011590184 0.22495969953797385 -1.6551314621278785
Ni 1.3934258481573987 9.249376339088533 1.0685796563317573 -1.3758266121801208 -1.4813521421184617 -0.556419634222732
Ni 7.343720092051401 5.601667739874817 9.93205446597932 -0.9144902295164831 -1.6715669819760826 0.3079453965025858
Ni 2.8396599057049183 5.07445347319086 9.150748699068487 -1.3774386938622472 -0.4566780579560199 0.14435458699039655
Ni 7.164199876738308 7.966552300108346 10.489138606904676 -0.3860351988274771 -0.7095655942525134 0.3944846151464109
Ni 8.969308185232117 5.4270590573231825 6.4463368955106874 -1.1894494009010355 0.33799850713422436 -0.630929689616165
Ni 6.009149547191559 4.575434358863096 13.42215087101329 -0.9348582516498739 -0.431648882901534 1.3200020490113333
Ni 0.9464855990690879 4.3508148248663066 0.2642413857869266 0.7930845380127761 0.4907330906582 0.8559423538792613
Ni 6.522672454692728 8.188900711813183 2.137180546733724 -1.2460962028608022 2.1394339666693862 1.2764164511108984
Ni 2.93618260311291 3.071166664213077 3.685024246335032 -0.6113381406374826 1.2145713927796438 -1.2879514483336916
Ni 2.7618878155121944 8.598736731261827 12.636534587849967 0.6278708481851832 0.27225308530729886 0.3931851796086971
Ni 2.7093658044596776 7.152936587322933 10.607222194559116 -0.7706596333503566 -0.08127874157583422 -0.18589924320140241
Ni 6.485318955533212 5.3856156915972635 5.5049234695602935 0.6426302658825449 1.4100569941179006 -0.5824919058297517
Ni 3.0508742788565235 1.6831231912435176 0.46517292963456064 -1.8939164975847191 -2.2679780689900877 -0.7033715496266596
Ni 4.527934667025304 0.7284874020958284 2.4242485579956634 0.22325402970077682 -1.011353970014768 0.09574711039533833
Ni 8.193378330966016 4.815656318361513 12.661937921583858 0.6357191405850084 1.6048208867987845 -0.4078738919691234
Ni 2.348128109177047 1.6261881864692387 11.277876298388769 0.7527976654682712 -0.5986543745222271 0.5847935573797348
Ni 6.988714134764983 7.1924504223211345 0.23140151137755618 0.047456650820066656 -0.7809479026502422 -1.9880479267535052
P 1.1793033306075609 2.6596134547388104 1.8237776723100154 -0.4105439826021187 -0.6109658448997284 -0.7130916051279009
Ni 8.308494688113816 3.480467215804268 10.74100699230268 -0.609127506139409 -1.760792232092503 -0.14413372922884213
P 1.7474901205910565 1.6943403196366986 7.561787530557953 0.00083303742425663 -0.6873867441626291 1.2670357812269468
Ni 4.276486346929268 2.9501786250421795 1.6470095771401372 1.5163538550046272 0.6945873756761264 2.8744617097487466
P 7.022790201348713 0.08830972833920653 7.522642060516859 -0.019090698082863896 -0.4431512271141787 0.6805568657249892
P 1.4602670082945446 7.011000676280325 8.784376974897421 -0.18157567612538406 -0.4202180153567731 -0.09919984483062916
P 3.8541591548748833 8.9937919914039 10.78057068120485 0.23011578981761657 1.0447721404638974 1.0900680361872195
Ni 1.3029225480435256 3.832943549074447 11.72033523544247 0.9827183085559461 0.15220056539737659 -2.5905409582955317
