# total energy = -340891.8177239927 ev
CRYSTAL
PRIMVEC
9.07295957654588 0.00000000000000 0.00000000000000

0.00000000000000 9.07295957654588 0.00000000000000

0.00000000000000 0.00000000000000 13.27919344908291

PRIMCOORD
 96 1
Ni 6.321693526076053 1.9589790143394514 11.626345472201322 0.7742859172490343 -0.5400741029851731 -1.2115778573689586
Ni 4.654183341157829 0.34933072242514746 6.031661853466664 -0.5925130375111796 -0.34808777304942634 -0.27653165807799474
Ni 2.5054161564266817 1.6517776728492308 4.8008930990330425 0.4542959308770885 -0.9234194136853128 -0.44583623014550966
Ni 3.4995947853032696 4.474284696807195 4.892466480989415 -0.1118743549745041 0.041050233073090595 0.09162074693179059
Ni 5.092144177422173 4.587905370763368 2.8063716724795924 -0.5109723005232103 -0.7670919706037563 -0.6748523591410441
Ni 7.26877442130204 5.948186995312359 2.500046778893561 0.04346989825817675 -0.30312843472991663 1.1239569756251804
Ni 4.989111647401708 3.972187108630675 11.455787439831672 -0.1651571255580446 1.885085272446334 0.630033917274773
Ni 5.812119819130876 8.04046593313373 12.371706347772674 -0.6144278353063999 -0.22654067087184854 0.03610805857646685
Ni 1.968532840872698 6.33928599487754 0.5017183384622852 -0.515304609349977 0.749985907051089 -1.117877345090004
Ni 2.819621822782682 1.646760326151334 0.42705876792403163 0.2496700578004603 -0.2872140774925053 -0.8951048830113358
Ni 0.38690275571748195 0.15734417390524097 4.928213942091971 0.3651501278483518 -0.5226641350388418 -0.8894299441137455
Ni 8.410125528997048 2.529486718433047 1.3365503912343095 0.7187403187732461 -0.2953760444780074 0.6017504969490475
Ni 7.045697561878546 0.5665410061255662 4.910074373822341 -1.0216031585466019 0.35097409345828584 0.10642695870668768
Ni 1.0151462386755754 7.601089715160756 2.6044883395508864 0.41546481694250387 -0.42803339763613374 -0.7086407684453989
Ni 7.482515205224383 3.8992314399185783 3.9183581462003807 1.5622773570096191 -0.2260061385246172 -0.26871524735736946
Ni 7.416219088910579 3.904330443253512 12.695865050887432 0.40117796800618655 0.06198029835753841 -0.8745136891235455
Ni 7.93231625385899 0.0443168715115326 7.110942122166515 0.23302704992714063 -0.7266212641832195 0.0497017381005015
Ni 6.971308365538479 0.7664963351242482 0.48171427698032654 -0.2453215510237775 -0.7334495999589626 0.07960983851384354
Ni 1.8167966633399166 6.396291400488546 9.554804598299269 1.0693380027287198 0.2597238424920366 -1.4308926999163292
Ni 0.09239085562270195 4.85817976639384 1.1681217824993744 0.11982266328730332 0.13378838143877606 1.1819530925239903
Ni 6.26123132283051 1.9667363948578995 7.031757866640484 0.12243130455474398 0.2274927503724727 0.2610818991818278
Ni 3.5398968721605177 4.176628108890551 0.3681906836926309 -0.19404064136161422 0.8896988815044161 0.12479826212502378
Ni 6.152872965483343 5.63425351774648 4.731655529193999 -0.08494899133856984 0.3703573830809041 1.305813673326093
Ni 5.527682533454441 2.9701512966792607 9.301437663015143 -0.8374419810822287 -0.26979305380258056 -0.29824128184094445
P 0.21614784012297975 5.770465861282694 12.449429856791722 0.05167017468078198 -0.9758084688099904 0.31842418454672256
P 4.28373439780316 6.064148492863572 12.66613296204655 -0.714285368325686 0.44114602375869183 -0.10287523679968734
P 2.5046903196530255 8.718533574123471 1.3642247328218775 -0.5291844526558628 -0.5694695254281548 -0.01980777875454653
P 6.479626535063923 7.672493907769162 5.960060777633403 0.5363102650673667 0.3963988014499883 -0.5734701619471155
P 4.7822209480307425 0.9053225983415911 12.774385165765569 0.5395709380965095 -0.284638089235213 -0.5589861093983276
P 3.7936131163919637 6.102527112270631 8.380140304581353 0.8052085749698197 0.09613560408300863 -0.49777817043043954
P 4.649637788362808 1.0370120714819617 3.849346493057138 0.13237813135481072 -0.12794657794601835 0.2779642767594633
P 0.298687276135236 5.680480247268694 3.5229168281368035 0.2456640219648608 -1.2066297693350638 -1.8367292497404497
Ni 1.5405522602461235 1.2999192238598265 2.475693140545469 -0.8334490578727518 -0.8903154320424925 0.41626905801135405
Ni 1.8662805853839126 6.727980660129985 4.682389358182101 1.2848566114584516 -0.24653434038495609 0.7887146910798546
Ni 6.038118171568334 5.746486028873035 9.18528472601488 -0.45079743080552687 -0.4271931611230256 0.5294654742313913
Ni 8.83912228110674 2.5238342645582015 10.417500617515977 -0.8579244173062968 -1.1156152885287043 -0.37424180573697485
Ni 2.23581315981184 5.23552415909824 6.95018379353719 0.18273472943049174 0.34766714057223996 0.5785419200430681
Ni 0.7389825849228515 8.810424509668318 8.951730412763663 0.009763250034350928 0.6795291957914232 0.41254327242033473
Ni 1.2540191208857567 0.8159612039529358 11.570984994178612 0.9679043834715653 1.2052035784114985 -0.9972049322078956
Ni 3.974174086798558 7.054670718992869 1.478173847918129 1.3409318571854647 -0.1445142524967124 0.27210910353026685
Ni 5.651029420177603 7.776869235820892 8.004060682455048 -0.8352534580713421 0.9365166131889031 -0.3647593201678363
Ni 5.341705006124439 2.7668081245395393 4.904152453045276 -0.6125072212449193 0.8070669683347971 0.44200425799392906
Ni 0.6026767899020289 7.232673114772325 6.909164035569988 -0.003151401144788121 0.5083999118103438 0.19798959870703323
Ni 4.915203317924187 4.413486794053837 7.194149328010535 1.2746267062003274 0.9899209969519726 -0.16078213641880051
Ni 8.53722862102388 6.947237803532114 9.377792969715852 -1.4239273243420896 0.3265452709919602 -0.6998141712927044
Ni 4.629196410224721 9.203428830764345 10.353495423519027 0.12368985955219343 0.4887325152884034 -0.721317335471803
Ni 8.19242893465828 7.186827449556279 4.395957835970045 -0.47249805570741205 0.6829071111247206 1.523415389837099
Ni 7.261534199484821 5.904355527143209 7.031027493386992 -0.12036336628212173 0.2645557166630412 -0.09264893108598883
Ni 2.4839948986441596 5.218739183707445 2.5381985743088533 -0.14901702546307238 0.13086915090945203 0.5970070687267911
Ni 2.5705146420639515 5.1638931424980665 11.545103469421974 -0.5844233185245096 -0.33497951780224244 -0.02939567955329776
Ni 0.954284825204522 3.400100709554377 3.3509379702827236 -0.6253498815355424 1.1309827721237102 1.2283309084575813
Ni 3.4653080707076955 2.7592140572951633 3.028837921717247 0.5870622988092534 0.5608750988909244 -1.4692157638662438
Ni 1.0642128045747192 3.1813788707728197 7.928820442497869 -0.12775297387797352 1.7509716464576555 0.9588792971548196
Ni 3.5046756427188615 2.6987609270092916 6.778191326243604 -0.7230880542189805 -0.28845386343687734 0.1385580349132775
Ni 4.435661107489027 6.833354013745491 6.111456719178534 -1.480934852075385 -0.18017005402710906 -0.17845847065264103
Ni 0.8442933351166297 7.535800697370402 11.494589766455354 -0.13791448779200766 -0.22833710065063903 0.3662693290544595
P 0.14919937800885388 5.332214690308887 8.053937463652785 0.9176804543190067 0.8697910868368954 0.023793502875171926
P 8.780356721319619 1.599000266444771 8.403366174042375 -0.6922690119555949 -0.5556668152171075 -0.45361176032587036
P 1.9193211076188232 3.2337117021534154 10.621828205779972 0.016192550599462435 -0.374298112896207 -0.770170352418764
P 4.229151472424231 6.267428154285597 3.8145544146079056 -1.220976010754407 0.8725100284299554 -0.2702388830907475
P 6.9612827451023565 4.128614006313208 10.41080840246287 0.36757364968817985 0.2397258021035549 0.9215615345409677
P 6.425034536725322 7.933450373817827 9.970496762347848 0.5777173672592437 -1.5475588198525219 1.7212975164319906
P 2.2952954834129473 8.462648892530728 5.97361850126933 0.4910012567179222 0.14685292793221805 -0.7052949919016175
P 6.730230754128318 4.044807077834955 1.520613524073794 1.0180298393730467 -0.03398946957156727 0.18559071082204812
Ni 5.305059322014483 2.7738033764456484 0.45668107395289903 0.15401525000861216 -0.11177433906153007 0.5150729529551452
Ni 1.3666780611168345 1.1763999509029208 6.762535934331811 0.12928920801684182 -0.5215354207510373 1.9038993198290437
Ni 6.7292145826451994 0.8267743572884757 9.195656026214456 0.6200248697782031 0.5792224910498606 -0.1359928452892626
Ni 2.5698250971289784 1.4839732837396402 9.062160126803649 -0.24947311129830582 0.7445107428691307 1.249223178525558
Ni 6.355762489639529 2.168809352643723 2.8188143293719894 0.10462487250094239 -0.8159362457999689 -1.001824433257778
Ni 4.072534042588614 6.8623965576514 10.588430641232126 0.7165602804027917 -0.5064196481555214 -0.4307525963395097
Ni 8.206764210937983 7.161659059429758 0.7297862330006303 2.8320292516161487 0.05293670009803141 -2.2841659916038597
Ni 7.637944077343139 3.8187452146798018 8.250535797573308 0.34135096854622504 -1.110865689658861 0.2521617138740625
Ni 3.172795850924338 8.397677428328846 12.518468728813978 0.2652967085941238 -0.38934060905162626 0.4167166870717339
Ni 0.13665873315201277 4.7923191521442305 10.292052433333081 0.09358661240890978 0.4775682711414679 0.43641853637603545
Ni 8.4368635411466 2.3434003155869974 5.93364848473603 1.2079297190934102 0.4705414462016735 -0.027200471674191862
Ni 3.6279680916839996 2.029439619142105 11.296995221562987 -0.31650048516144846 0.7500895225084888 0.07692663525472558
Ni 0.8010398144785031 3.505274458057128 12.50708851549902 0.8177979815990561 -0.12294346830447213 0.21203476394618967
Ni 3.0058533929834637 8.463401948183396 8.08984370154958 1.1013320391368129 -1.1777344264569523 -0.4881969544999076
Ni 5.81917858175468 7.970740238064403 3.7342151713157943 -1.0394227032265262 -0.07348135701860249 -0.4544699945611076
Ni 3.21510306186881 8.444847745656816 3.4600666219059324 0.30283841429332364 -0.07345873131078316 0.9419249286886682
Ni 3.2962788320425607 4.024991733914147 9.083632193160328 -0.1219880463697383 0.30650377896005276 0.4166056154151664
Ni 7.406937451167454 6.291662029566036 11.384000368325164 -0.3405243588798716 -0.38720453654522996 0.3563811234064701
Ni 0.45541630337480354 0.12945661776541137 0.4321741025863722 0.43097576809390936 -0.4343778517969229 0.6422721112121778
Ni 4.8038781027647035 0.5595303301880166 1.695673559032043 -0.2034490791597077 -1.2398589637018391 0.1338205202282921
Ni 6.1977115321759415 5.887370946639659 0.33751047056615996 -0.8631105894929265 -0.29040275963313217 -0.08658755538325733
Ni 7.870148334195355 8.917394704185867 11.31840105531407 0.5592321639708627 0.11393997925428119 0.11699265003767595
Ni 0.13374631309771817 5.207733683626888 5.623871329995297 -0.4961738020577971 -1.6944549423178494 -0.08477749875771205
Ni 8.235434763497395 8.901898089068311 2.7381965462179876 -0.7698142546309258 1.442896923466057 -0.5937268553136227
P 8.461433115934854 1.7981245123376168 3.7003403690892696 0.4235897600424834 0.0725714436098234 -0.5610347643972403
P 1.8241820525118664 3.308155336251507 1.3199396166691924 -0.7162836297026374 0.3761598486952941 0.7546285480294229
P 4.502855446810229 1.3210410739732155 8.127158970083233 0.5339469070415127 -1.0664231430747697 0.5464216424697558
P 8.556626608799835 1.6717291111650994 12.483636729342196 -1.3409251723172455 0.08350865934761748 0.3706885411680777
P 6.633150085651832 7.9399919777404016 1.6402196295247264 -2.9301911421005666 0.6959878555680787 0.1496034940941617
P 1.6232159958058683 3.4382162131309864 5.755734096665378 0.027386619543068966 -0.4415833684064266 -0.28390301084140135
P 6.943064242083592 3.8616330950431994 6.042377926133727 -1.1106864837685195 1.3439644733642016 0.47756338604546134
P 2.5158863518866688 8.470732899597321 10.39363782628607 -0.6743103705946452 0.2335705811354365 -1.0592937311188402
