# total energy = -340872.34418434545 ev
CRYSTAL
PRIMVEC
9.20743339730143 0.00000000000000 0.00000000000000

0.00000000000000 9.20743339730143 0.00000000000000

0.00000000000000 0.00000000000000 13.47600947857994

PRIMCOORD
 96 1
Ni 4.583248438430199 0.21269722963656545 4.349529718227014 0.9699340123070845 -0.74116625187693 -1.1640461303365823
Ni 1.392071814098003 3.189187818777296 3.079376288360877 0.31729932691366 1.366495307476866 1.3458146391990629
Ni 8.990174532525609 6.761837604891979 6.527226684419028 1.5944595981691185 0.575104612226745 -0.26599142066830317
Ni 1.4004137485088293 4.951748326940221 12.1863415856113 0.15282122970051099 0.010658765265426804 0.8174051170360116
Ni 0.09667528557764934 2.157605426370973 11.825562129776198 1.384806447081228 1.2703424770026768 -0.39751903109736053
Ni 4.44666537546089 5.530665684645175 1.3071903296095668 -0.12540247136792596 -0.3569431665575272 -0.792672647286338
Ni 5.618974175742561 7.197809563338573 3.414550793419968 3.150513599976845 2.1638486480683246 -0.11614444310476772
Ni 0.9790724012971173 8.61498084013405 10.240836747210423 0.6985859553125582 1.7917174609164497 1.006775092394834
Ni 7.658706043253274 1.9311854384056049 9.301707111550838 -0.779649752664109 0.6135914554480335 -0.4787324666528981
Ni 9.008193479150318 0.6089980417228 7.7481525730848535 -0.8155595791868406 -0.5774715697970249 0.9975833985932367
Ni 7.3117423408215325 0.19583105363904763 2.3935551076202315 -1.0912072919979852 0.09049743196062479 0.7392638926478945
Ni 1.5518852308405062 7.941687292902643 7.738207624567046 -1.3479250006738461 2.107799884703873 0.5392575206211487
Ni 1.952565098120768 3.8415252482172684 0.9641480729455633 -0.0842005432083195 0.47679411197960464 -0.4296696476879761
Ni 5.503347230564688 5.046179761065421 3.506457549382422 0.09904146487589394 -2.8900677917171196 0.15387563910695437
Ni 1.5478063379663385 7.150382075314108 2.8919921338702754 -0.051534163323549965 -0.7364266803094156 -0.3829146509206244
Ni 8.220506782779724 0.40623194945435476 11.16347218717072 -2.1801656400607934 -0.8192475695613891 -0.7145787311963886
Ni 1.056092579383828 1.9782354216719633 9.468877267359842 -0.06285575898395626 0.22371400005633083 0.7783909405563433
Ni 7.0420290023046155 4.647221683779447 9.31809450102588 -1.8432343978488188 -0.2814923445173797 -0.8240380489714969
Ni 8.85852665371105 4.751394582150403 10.596252873250485 0.9145179974306249 -1.3566068447185604 2.225376946490109
Ni 7.0435298139039135 2.078504368398118 6.314628895060207 0.7745916214149111 -1.5180068172270178 -0.32959948443725173
Ni 6.389286445807163 8.468877291313976 9.530745693496824 0.3706078085288133 0.4136131084457457 0.5305504797654541
Ni 3.452023204750189 5.97799961556744 10.927453450173028 -0.8372596898680935 -2.9996718626002083 0.9253803940664256
Ni 1.3628105916282403 6.369564124054415 9.946696088614122 -0.6505181532710539 -0.6130718354991377 -1.1396931554135146
Ni 8.448289470847522 7.799635014657363 3.9660834035259387 0.5096294133420707 0.26940970232123285 0.3905994211593918
P 1.688716894504177 7.171467097169287 11.905245097522524 1.459480538856351 0.301855481554764 1.1218219315600486
P 2.10689088472105 1.1486641120178736 11.393386396006848 -0.8390376077041228 -0.048565053392897004 -0.3501202300984228
P 7.220828146149904 3.285083234769298 11.043131036233085 -0.03004616865310309 -0.22608841382577835 0.8360607844639859
P 2.2526353436492683 1.7694568755731988 4.821513789110277 -0.9550318983842713 0.40167341958536634 0.0780401800338785
P 6.049191488486322 0.8791984534520055 7.8586960944346735 0.0503555696344165 0.7459194502911993 1.0015066449070429
P 5.05371144136129 7.5310357755485136 5.771262357392384 0.6412498405952505 -0.0933223030039296 -1.7307476061012965
P 3.6120760147539297 4.046206486575617 7.189356218986941 -2.2551418364573674 -0.3617202762311964 -1.5105467614045467
P 8.753405389728266 7.828896237127125 8.882523065920203 -0.913642536804207 -0.6994393044517889 -1.137262434484835
Ni 5.4478172013906345 2.8897713010006383 12.847798056817808 0.8322210990029216 0.7921671684048294 -1.9429962858305054
Ni 2.324757167313728 6.628955930038733 0.6484233496187338 -0.8940545873699506 -2.4286326786920887 -0.159255415361629
Ni 0.34472077172260585 5.466287312238447 1.6400307503715892 -1.2159687873478027 0.15276929341665302 -0.10067282983172986
Ni 5.767720257869377 0.7156725996736911 0.2660948172989767 -0.25643411599717125 -1.0493466472084574 1.090713125970386
Ni 3.4190790090306127 2.060687985302148 0.39498322840611394 -0.6674771497228956 -1.7568664146755357 -0.36606492635313725
Ni 1.7867023978154475 1.8443317217418935 7.113324919217804 0.31273510458174525 0.02541098387393688 -1.8268518427257374
Ni 2.3799188991627993 8.755449439881911 0.5965293357855587 0.5785815150317519 2.94372645758284 -0.6848588355344527
Ni 5.288270800208743 2.98260064176217 1.712598213799276 0.891204005295033 0.3737111300444855 -0.38219654180767726
Ni 6.801438774760592 4.749635962423617 1.2041029876039935 0.41414404124855125 1.2058134440813555 -0.3801080347097647
Ni 3.350207409259113 2.577326265352767 8.798674655428341 -0.9430179046425307 0.6613972620774029 -1.1568038469518722
Ni 3.831728539372767 8.048640836077208 2.4113429476735146 0.1628996969824356 0.30719283460727737 -2.0843725069188683
Ni 0.2544105846639455 8.669958423320631 1.5588911667049627 0.9946410281354611 -0.8685854965645687 0.7140025469779445
Ni 6.030721377638511 5.12305262022214 11.788286757514841 0.1042032115824915 0.17244800279250302 0.2581747528373618
Ni 5.086591185048993 3.2944287793906977 10.037766809648867 1.7920139091109462 -0.45237660236718863 1.88340531364075
Ni 7.12358844492172 8.634979384880534 6.5892829421917485 -0.17303601408548908 0.1705351020405063 -0.6842476843130151
Ni 2.8313777601248558 6.244177299764537 7.522752768709684 0.9803863179886599 -1.6043647730979724 -0.8780921505034232
Ni 1.4875621030325252 4.18987006561769 6.541659335841732 -0.5124619976948593 1.0332412570061624 0.8164720636987809
Ni 4.672486880273163 0.8719374716899995 9.787248206966662 -0.046410983164371686 0.13710690428904773 -0.9842049204038017
Ni 6.093285885719706 1.9280272888438903 3.876778668164477 0.2092335470519687 1.6058282450173764 -0.03922654960079051
Ni 2.2074268470078158 0.1996641080487903 3.2765028278405466 0.18731746370516772 0.8677329187562861 0.3378031032939666
Ni 4.23001447404065 2.179067952984257 5.79313461477971 0.06991318005136991 -0.34419152331881364 0.5999337554552829
Ni 7.9882953193790245 3.6684347129091908 3.115343284375237 0.013219584014067557 0.33091897457962366 0.4987955559513603
Ni 7.452137281104398 4.588690031406797 6.825867936326601 2.2418086096835714 -0.683971547833493 0.5971515647244555
Ni 8.922601180824666 7.858185081896262 12.438949354869463 0.7664227124508737 -0.18984640077460854 0.3104409092309299
P 1.2108050781753403 1.513932191501185 1.0398543503254034 -0.40596459076155245 0.3914923652873064 -0.03907819694838431
P 3.010885876320733 0.4443323077236685 8.134388740022663 0.310119264225453 -1.2871901446876348 0.7926700761831768
P 7.710700418107508 6.092079711980393 2.8645410927527952 -0.3224754717979607 -0.7912161173454696 0.32181341273392966
P 5.976756612095628 0.8992476390806741 11.526569153923267 1.726412983281685 -0.28776712178249797 -0.0848731437953119
P 2.900857050482575 5.2485867634420105 2.814706781709578 -1.1541070168459995 -1.7955563750465655 -0.8333963502579453
P 8.470691155639509 5.727041818325195 12.88235079110424 -0.38345355414322996 -0.78710980848658 -0.031150714571191514
P 1.5426501754166004 7.224087577475988 4.978550244022421 -1.3387402488507847 0.6429519108880217 2.137183994292945
P 9.124271588551293 2.9173843929411096 7.636342108937099 -1.1768545949551603 0.48212760837737606 -0.11415749458172599
Ni 7.660096365655079 6.780169604242923 10.580405960099853 0.9569733383813583 -0.701510842268837 -0.7369046483870987
Ni 5.604896010495152 3.400074867061579 7.446262938770946 -0.2971249088483141 -1.3085966353878689 1.687365639571236
Ni 4.924199687031621 5.283657876213352 6.035567249691952 -0.019881055194643178 1.0545901549955838 -0.05654344361268327
Ni 3.2713733668468694 7.7910168572528 9.588126416728906 0.6217562506470131 1.476414081386896 -0.5130502660981616
Ni 7.5934990018653385 7.457735400444114 0.8340811103984859 -1.0289793964060152 -1.0601851325848581 1.2124322349494538
Ni 4.050441905812901 7.378708001936255 12.637774665760606 -0.4270383807127161 -1.008653283254153 0.2886631512342061
Ni 3.1132909475317785 4.093689219198828 4.871146457368067 -0.620596683121273 1.6982185231253395 0.07162424920520569
Ni 8.185205484180267 0.758285520917338 0.24988328979661312 0.5580525418404648 1.1341226033042726 -1.4960416258098364
Ni 8.58704548803422 3.514412771602018 0.10801608095713548 0.43970826287090087 0.24765996934896703 0.03600701422222831
Ni 0.6028456349089876 0.19596456141935334 5.64792971143259 -0.4794554608618517 -0.6437070438864914 -1.8164586724168719
Ni 9.136830527333155 5.24188375212735 8.374625402134704 1.1743889070234872 -0.530410354643164 -1.008258618918896
Ni 4.75953395303249 8.180951650076734 7.7060672377592425 -0.09059719076328268 0.431648882901534 0.3888320448463239
Ni 4.041271302420868 0.2756797551816146 12.028618256188064 -1.6250554686781045 1.1762912662525224 0.25266565009367453
Ni 3.7661255783604752 2.628445934060169 3.3371181223292785 -0.8273735411026332 -0.6201837639535707 0.030387354042605733
Ni 3.59308108021802 6.646477675274717 4.2188937363128405 -1.1642808720552078 -0.1353472412854637 2.4119811861783367
Ni 3.0199275756490236 8.942240635679294 5.873491566630752 -0.760147163854807 -0.8306840935331048 1.2727698554972466
Ni 2.869984527216019 3.2295716204614937 11.059437400296634 -0.11563485045820085 -0.444703402092647 0.7177417023054027
Ni 6.411614471134153 7.775032753348613 12.208860204803969 -0.8895991227017583 1.4172745949122623 0.3996221934832924
Ni 0.2040661818256291 5.146982738912799 4.580522117482024 -0.07555957970386987 1.0195976980807988 -0.4153964255984136
Ni 4.623263942789414 5.107381569044186 8.713884324527836 0.21078649336138539 1.444884386209731 0.5742900867452497
Ni 6.9942240095220445 6.639433988934451 7.967945971430496 -0.13128207007715453 0.15320740939533617 0.6095052011938019
Ni 9.39802699020988 1.3114239073602267 3.1104780767122344 -1.911356547438037 -0.3571869071372171 0.5363778850805085
Ni 7.023236631297445 6.381653483746926 5.504248638267579 -1.110733534956371 0.6422037198680876 -2.0910164945979473
Ni 9.0990524292232 2.763749163825168 5.285182627138775 0.8785966009436675 -0.3752777032006569 -0.20159094290504634
P 5.276973279764943 6.510354983961636 10.18338880971653 2.6637119831625675 1.6104788564155104 -0.15978943348822802
P 7.565747798427999 0.6212273543988034 4.661984882051322 1.673881231931556 -0.8385938352984847 -0.051030741324570174
P 4.322871437101556 0.9905080332377861 2.147348345870244 0.26712347739021736 -1.119381440439356 -0.13730359368088613
P 6.394368948891905 3.8946705522120677 5.187953974830341 -0.06314552231023318 -0.9826972255100237 -1.46690485634488
P 3.5497416925008474 4.075283560382889 12.988541038072782 0.6412256722255344 1.0277000154729592 -0.08698530504230825
P 7.353553294640033 2.3472509264369594 1.5055258050584872 -0.4632765371091441 -0.1847461034335657 0.027577652507952504
P 1.8308336247813297 4.310579513880306 9.484172655266313 -0.534509207302886 -0.0857822858731426 0.27843118909355274
P 5.301188828882462 7.556356216640976 0.8486638429811199 1.2269204012633 0.2200769175243758 0.13162274124602494
