# total energy = -340870.7873825704 ev
CRYSTAL
PRIMVEC
9.19663721681559 0.00000000000000 0.00000000000000

0.00000000000000 9.19663721681559 0.00000000000000

0.00000000000000 0.00000000000000 13.46020817714501

PRIMCOORD
 96 1
Ni 5.62105833994112 3.57418115148152 4.914227782484371 -0.2551272242602896 1.703405723753234 -0.2596834761724044
Ni 4.551618165535037 7.301477118707729 7.225547841168459 -0.8106821964898812 0.49683868933530567 -0.20065968934002862
Ni 2.1269063269430095 1.726006510260778 13.021714755149265 0.671954468767959 0.0289472791619695 -1.4348817664710642
Ni 0.6336740660876412 2.6829166296814555 8.797713001331504 -0.02526571654532423 -3.3724833636485596 0.5901910742462223
Ni 4.308551039573591 4.942015422328961 6.911628901165409 -0.5646767320252017 -1.1896201221509448 0.3266105770122568
Ni 7.352389703245094 7.504364135954625 9.45533878981241 -0.7366161706124024 -1.060430672936761 0.5162970551702334
Ni 4.536489697044437 1.8982135452069786 0.4273383098231307 0.8115440302695442 -0.4098222739447458 0.9006823770991134
Ni 0.5633372637393348 0.22286855128308386 12.354761737037256 -2.2697341324492455 0.6683862918007263 0.2437801746785866
Ni 4.980935591722409 5.991618449905727 9.175715949927993 -1.1177027671853523 -0.28223745021352037 0.1823331231166989
Ni 4.114833069794858 8.280753460237307 9.523945704669481 0.9463320566174281 0.7967959254260922 -0.8921668834289345
Ni 0.38661927815809466 7.800109600830456 10.535910574103614 0.35399873921722264 -0.7896588001606788 -0.634724894992539
Ni 8.408835029032806 9.245655457541469 7.961941909147935 0.9038970273816691 -0.41418620734039635 0.01735648900057656
Ni 3.175083875725828 1.5651021426549714 9.23141446455807 -0.35979863372845133 0.08540304815685293 -0.4141499547858222
Ni 6.395718696396305 1.464711649011568 5.377972820704913 0.4800519567952701 -0.6423335605777325 0.40834723206111606
Ni 9.219077175512389 6.545697458794309 2.1368892768193297 -0.29670170526796646 -0.34056575364076835 0.5352378579387943
Ni 2.4460020541274328 0.40033330381960464 4.3477820553104936 -0.4148387533227307 1.0792876577422637 -0.18022481852444444
Ni 8.24306564025282 0.7882667814593448 10.582698466775913 -0.80718035398421 -0.14130757263395666 -0.4012479020121735
Ni 9.187652265583889 1.9035843814370765 1.2325232254072835 -0.058409293176828435 -0.4309372015464901 -0.5639115717244031
Ni 7.071910656420569 0.5953875450096957 0.4601657069521274 0.34719560025246016 0.5509326429662319 -0.21075204057902414
Ni 0.17131772011152532 7.4773260220565305 6.0807301874659245 1.2210590573865163 1.1360738134933726 0.13264989695895862
Ni 2.6091412046166536 6.638463940049441 5.914348302636409 0.7645404078264962 -0.3281637804319897 0.871981152509679
Ni 7.707306333025804 7.143184596117929 4.438759790595155 -0.4701879195169966 0.1985966361634128 -1.468321791297065
Ni 7.705163516516193 8.115683015898222 12.106299863588523 -0.31465983240828393 -1.0327434914341374 -0.09053162763266989
Ni 2.1140954110722454 7.428813759875425 2.1942698564262635 0.5770411671278256 1.1333630994304287 -1.9631413933198127
P 4.286387143487057 5.350870330345156 4.240449939772437 0.3148454660565287 -0.20043600336499673 0.7182350970020533
P 6.186384836345815 -0.02815642500354009 9.804819287237622 -0.17080429654149293 1.5113366042956942 0.8739495890899593
P 8.777408665323268 8.06662815211168 0.5250157954393442 0.8895548997273841 1.1400623658274753 0.08981094741656144
P 6.85837393308728 3.3191216103761567 6.690935354622767 1.6158637748765075 0.0447644486998842 -0.2073000774746817
P 1.476979963276894 7.553225870356183 4.349370314586072 -0.7929778372315828 0.95208592838207 -1.297223874774553
P 8.055647367079596 2.203974148189961 12.67460331151322 -0.40193490077686905 -0.39859555199099095 -1.1000148629872861
P 3.882323683546001 2.107933664027441 11.853598340307467 0.4734583627381523 0.3613338394260552 -0.850844884751696
P 4.089965362318515 2.07074246246149 4.731801444081176 1.4184290202316796 -1.7847281740828103 -0.5655763610213357
Ni 6.48166127271525 4.817575721936062 2.4559362618256375 -1.2515315149437607 0.6537867967199966 1.6412955846860509
Ni 2.4224678590712334 3.715965709973674 8.080190433256414 0.5875906605088977 2.026583106714226 -2.214041209762316
Ni 2.8555099233976295 -0.02176016370553835 11.15510729362718 -0.27695177633454887 0.4414311590992785 1.3192055212519669
Ni 2.359949118159924 3.2125141898636675 4.481737516400794 -1.2104077483202573 1.0233435382764764 -1.854249003791768
Ni 0.40612994436041056 3.6107745716177515 13.097375490877031 1.4474287498981395 1.3256265942869623 -0.9441715586309998
Ni 4.579815055743051 3.0965445924980286 2.674193619126237 -1.4935869936217567 0.7884614374184679 0.5929760931905272
Ni 1.5211238227023554 6.36539738295344 12.186294054849887 -0.2966538827491665 -1.0383143006536957 -0.945789553850397
Ni -0.2274668699732361 0.5095728019503369 4.951364723889778 0.629439992444516 0.4159348146003869 -1.4519657185365444
Ni 5.072414543744298 8.664988969986426 5.429700227314174 -0.20436722009860286 0.10090782866067137 -0.948392795801199
Ni 5.495735762359712 2.2387742240370327 10.214400729606862 -0.7288470681899448 -2.090156203480181 -1.5116577350805385
Ni 1.1964181467159463 2.2175667782380506 11.048704038464534 -0.5669328750492301 0.9393378846877822 -0.028902541966963128
Ni 2.1520867200902827 8.306053409670525 13.294782231909004 0.24065422745509524 -0.4148372106608339 0.9767986006374015
Ni 7.255070886486712 5.664098602880945 11.393258816908855 1.1369413036999902 -0.6651837257030286 -1.0100342227620798
Ni 2.6986980594260577 6.630361702517392 8.666315125096666 -1.6384969388949908 -1.121330850856243 -0.02361044033008837
Ni 8.267970134278684 5.488893464148765 6.449068389839451 -1.576669364065233 -0.6569708508749331 -1.9230316697831205
Ni 4.6882526070942205 6.912247834861104 1.8304131754481603 0.16098731045107115 0.6493549862008882 0.7991896224692494
Ni 3.8719590732183975 6.656470956040077 13.215878761840944 -0.2006892570263834 0.9364675051185226 -0.9795571372191453
Ni 2.7400461410879067 2.222211080115104 6.458975007625515 0.06968229498748645 -2.158485841094515 0.5335910663639907
Ni 0.40171555841786444 4.065033278380509 2.265635762497426 1.1789068494984987 -0.5105239001318821 -0.08148648671126611
Ni 6.979769546507299 7.31448116396348 1.5048108273171714 0.08231875280457436 0.20289114977370862 0.629339976531542
Ni 0.24381757157167935 3.316932810679644 6.43714311014841 0.4550430934557582 1.0106741703389237 -1.3969240562803684
Ni 3.1112592123065155 4.537418557419847 12.491436643800911 -1.527412426811634 -1.8445808845743845 0.20168324550853656
Ni 7.31145547026536 2.072002401782592 8.549790050833257 0.003618827699509897 0.23297357098138588 -0.5702285150813663
Ni 5.11535364367294 2.2862564628315445 7.562793132222914 -1.1189335542686598 0.540193659282173 -0.4307518250085614
P 4.31034438386275 3.671362018679197 9.085263342637745 0.2662547016320188 1.3872065718822884 0.19164617298750866
P 0.1751922634398476 5.222788761549656 10.424971537385002 -0.6111409370250119 0.30819839305365626 0.08289982211902497
P 6.45176300459188 2.403228493671637 2.1177216451912995 0.44604834615631567 -0.2900479473968747 -0.44173197816914894
P 1.6416181656591042 5.522488780499017 0.796638480466636 -0.04727410249561535 -0.7693601978126428 -0.17028621925449383
P 3.453843151360237 6.490618797523667 10.949112732609478 -1.7557107038045376 0.07862844843718071 -0.608963469757719
P 5.822455501932407 8.108665981577051 3.407518769211905 1.0948315190141338 -0.634164908724011 -0.19167008424690862
P 1.0014218443413512 1.9397271663416729 3.1475353484531263 -0.14141375919451774 -0.011179413655587198 0.7467902829319267
P 4.080235319970153 8.845178686178732 0.6021948959985971 0.6409911876172251 0.060561049412508595 0.14014491978442314
Ni 4.719898236319848 0.6660085234530536 2.829093502186443 -0.09061775958857296 -0.0973584207465162 0.09648475989231124
Ni -0.08281939826459367 6.71065754348483 8.28864785376456 1.3718362600738052 0.9012901858864413 1.3095911380906542
Ni 5.731703084263563 0.23292783324966088 11.965142515765706 -1.4955942538597726 1.3673494279470453 -0.10909113580241213
Ni 6.530798906238217 4.302462865627829 9.453333003199766 -1.0437521838398154 0.8018383729460061 -1.66224081947915
Ni 2.4549043991115673 3.113631944750634 1.1829165633779213 0.13395293204109832 2.397873543132361 1.7522150319464533
Ni 2.3477083938067387 4.122319132622425 10.228237070545529 -0.351348188968253 0.9761558248470802 1.4860168945839825
Ni 2.7186271726291777 5.310487895608239 2.7855897287226505 0.6347498346932036 -1.7036278670663692 -0.5551716207482438
Ni 7.538961885779331 0.6619095821726518 2.7888205074343513 -2.4082070638478843 -0.3004562872143922 1.1338459526041182
Ni 5.0156988810199605 4.925838537177006 11.239677731648985 -1.5036379500998556 -0.21226539189975704 -0.38117324274948544
Ni 8.039277352542653 2.8677414511134343 4.111555388232517 0.5352268021952009 0.478756377912298 -0.48414438169708884
Ni 7.978901428140955 3.1663746601266802 10.546301854679621 2.3860243571032584 0.12097580305514002 2.088900476696209
Ni 2.2942667339897898 0.7937351020456739 1.5399686523583371 1.1553210917587584 -0.7396899244417197 1.9813116364709362
Ni 5.42591489136844 7.155268977635649 11.31567414464113 1.4423420794038515 1.871771071835931 0.4003287326320138
Ni 6.022749067438058 3.211318627004228 12.039564464438344 1.549670466878886 -1.0401737224599374 3.4482972254550806
Ni 8.47596128527165 5.949313917956326 13.298619069024067 0.5058753456162771 0.18877836452141036 0.5458796539233567
Ni 1.1302115542151348 5.306386195336623 4.512400025090467 -1.4573966597441286 0.1932348576308672 0.9086589675466867
Ni 8.66176095026594 4.4167218884407315 8.329500236671612 -1.4100729349575005 0.41979172645263185 2.2957053597020267
Ni 6.012871878891611 5.8984841031553845 5.669533815572705 -0.26539775294836226 0.5680417918426928 -1.3969186569637297
Ni 4.361008659190848 4.727752164642628 0.9385563902008041 1.5560660859925846 -0.7930554845470535 0.2899080793849007
Ni 7.579767365835741 3.8323583526588068 0.8337413943137362 -0.35042387738177067 -0.8893618098799715 -1.1722145250799878
Ni 5.911883603818488 9.254300296678956 7.646933167615319 0.735931742950868 -0.4547649000937071 0.21438243824275982
Ni 0.3464327317973784 9.028237753233691 2.4488695656626116 0.8095015459182188 -1.134990864841839 0.307328074633561
Ni 1.698701693878654 8.856987168575044 7.847624947519537 -0.06609894851160229 -0.15087541882804986 0.2221461413485787
Ni 3.61162985889412 7.514222931226311 3.7992780480018515 1.6301241414502634 0.04806985892403334 1.7261275908307823
P 0.6639475570161274 1.3447691042976373 6.6924831486938725 0.3396368140685957 -1.1153160121207308 0.9947996652005126
P 6.378447411396094 6.328978698927435 7.717881546349416 2.2403294540348835 -0.3083827411503205 0.006845562166923694
P 8.339713102482438 5.111546235797493 3.5517450349285293 -1.1991326896270702 0.15232783500386024 1.5044619886630475
P 1.237940964488021 0.5184751469344716 9.831928215243547 -1.0717057316299479 -0.5792379176688282 -0.3890315624516397
P 6.143381359955511 6.04245746134405 13.325888938184146 -0.4850270414123582 -0.6542277409121572 0.041070544788064746
P 1.2823607230348915 5.4426803613127355 7.159632782072603 0.22097706074114204 -0.54275936312682 -0.5110103528499973
P 3.692955723248152 0.2800789930984818 7.377796333671924 1.3837114142448363 -0.21542476346434508 -0.2681894567608865
P 7.440235983501762 8.680660040082467 6.0133344697518405 -1.1490499140380663 0.45892263101582254 0.37466115266258054
