# total energy = -340856.63628606795 ev
CRYSTAL
PRIMVEC
9.41175954055382 0.00000000000000 0.00000000000000

0.00000000000000 9.41175954055382 0.00000000000000

0.00000000000000 0.00000000000000 13.77506144283092

PRIMCOORD
 96 1
Ni 4.113635396790499 2.042408294512872 0.7766903986590394 0.30252653947985964 0.3464687493887646 0.4478270353232933
Ni 3.01179129364627 5.54938990551212 4.947919175709129 -0.6221876817574767 -0.865490916799645 -0.06074848283296635
Ni 0.13029922284049544 1.695575543063171 11.077464057978641 0.022094260795878076 -0.5672974574775004 1.1523208714798543
Ni 3.595339209724107 8.715308173670351 2.891220065484302 -0.0771238388671962 -1.6592485696200456 -0.8384822494212849
Ni 8.898686896886709 5.652966319441293 10.617431368452328 -1.2695978855271683 -2.553844374205447 -0.5614703092727621
Ni 4.303743528090396 8.31261662924749 10.06674649322106 1.397809287098799 0.3792264034357598 1.2576242581050598
Ni 4.507762240016128 3.9661719480451754 12.539052905509367 0.44123601236933685 -0.6760384090293454 0.17148358199670466
Ni 3.4449204684777603 5.566039308169159 7.843919473872633 1.23774963066832 -0.7296559372444853 0.004121735477857417
Ni 8.549830617132168 7.884212157713813 10.6403254735757 -2.3777731728380602 2.8952722187361943 -1.2417651795856164
Ni 5.862274440238283 6.144147227222818 6.495974799469631 -1.6167911717867833 -1.2480859795973214 0.42257443140409157
Ni 1.5954155978533333 1.368036898706137 1.1543504273630445 0.16515429734456719 0.5601896427881256 -0.22162060786241186
Ni 8.524512983922765 2.407481035984812 7.236563570818401 -0.5698503058063412 -1.4912652874671157 0.5394087014870322
Ni 4.500242244129767 7.312701882109889 5.392385756103461 -0.8588361304872886 2.690182261538954 -0.8309453176142916
Ni 2.037523591302582 7.972428580045312 5.258698299822303 0.9206102263712919 -0.4459586146559868 -1.1413373758851568
Ni 2.238596422486849 9.1279667714645 11.31242487062528 -0.08940497022739441 0.3500091584418553 0.2519256866038565
Ni 3.5284780698283464 3.9385578455037673 2.2706396990759683 -0.19013076478424676 0.26400755746905497 0.7809221916186293
Ni 5.721634517172074 0.7853162762933954 8.84664739594194 0.49172990735383054 1.6319131150298862 1.5972050221247396
Ni 2.7013914634432594 2.076657687542246 12.445162133340713 -0.104866041977471 -1.9860874605930248 -0.3618670862217058
Ni 8.649623503719265 0.5091084273864588 3.0693451445157196 0.58040134184931 0.11572278218631685 0.4790695382773428
Ni 5.788015657330408 9.49213598401893 1.478890485125091 -2.7164535365306572 0.21453207644674663 -1.9274362266087195
Ni 3.070454790967537 3.5897203892683405 10.700123087923634 -0.3980605054231273 1.4718735132040652 -0.7010346739633668
Ni 5.311592388534883 0.41761388920111836 12.559811482389167 -1.8909062500034852 0.5635071371971327 -0.7368802229070665
Ni 2.1107847276973737 1.8262860597963244 9.57843428975263 0.8342455856321181 -0.283246351094009 2.8521345070064554
Ni 7.011694987945162 2.378238699039974 2.0528007594161517 1.5465278074848463 1.0429204319671395 1.0254623843916921
P 4.760364454777154 4.3052211743409075 6.214770247413671 -0.46872290493569596 -0.42085179228603004 0.8061084610762698
P 0.031788217905114255 9.151703229068259 5.222483731397343 -0.11856693650333129 -0.03892058832459749 -1.2040640654904167
P 8.778658727251203 1.3260416275610238 1.002566980980875 0.4045774806060387 1.3494573781579726 -0.17571561780018125
P 7.5133888311523025 5.903902652760658 7.484982258456162 3.6040765093426512 0.10871498340991599 2.036186434131945
P 2.5828785870964945 6.350500055518786 2.881509011972978 1.2114356753641393 -0.1994445859860049 -0.6515219119452198
P 2.332874017973312 3.7305014887279104 -0.1306051050261109 0.4785602027410919 1.2235725678369895 1.2558501969237728
P 5.255564183889688 2.9234525184405253 3.698548565030542 0.8092179532395289 2.631457751114552 -0.5849593935336377
P 8.66527525986322 0.28097772865062637 12.754935140357201 -0.5910369671862853 -0.2117851098292288 -1.0493201648458959
Ni 5.2918747522621326 2.0994247339115937 6.500919737941088 1.6137184463987304 -1.010696024715795 -1.2243081604514334
Ni 7.072400837090385 8.238094317072006 4.330286572394171 -0.31313799644711876 0.0378828910887025 -0.20702702631895314
Ni 0.9740324083547535 8.74107757133851 7.102545761776777 0.8053715829102452 1.2900376414387589 1.5665060503789858
Ni 9.104155019784281 4.906133786802145 3.0555155050220777 -2.2880882094764012 0.2557810557942047 2.2949782517280157
Ni 7.933078013335828 3.6769862238845414 9.57569264419356 0.7960271655808678 -0.8170557041163928 -2.317441465827538
Ni -0.20414294715189024 7.071036131954561 8.468852779076265 -0.5880526877469808 -0.5360634391638832 -0.3936868018354639
Ni 6.715328091242234 8.119844969992847 12.263083174119233 1.10498891916311 -0.5005277081511187 -0.6010876665540681
Ni 8.126828495584439 4.092496584824581 0.9888135767396482 1.0087576700425014 -0.2957105449992907 -0.7633255615827885
Ni 7.415845355099422 4.082698943125329 5.766502257334105 -0.7431133483009718 -0.8838329096419423 -0.4857199537143247
Ni 1.7327896403531253 5.968919087783169 12.938391981177885 -0.08768027422680383 -1.091434577517443 0.46534550382303086
Ni 7.1008619979919585 1.1601311300831987 11.23808044070543 0.43266215465739677 -0.8542102016795031 -0.8408417507923971
Ni 2.3004034475002864 8.00120032901228 9.214303665412386 -2.0547809093046805 -0.3791793522479083 -1.1445255438051514
Ni 3.3838005019120128 0.6293304792688474 5.274208879572895 1.0683704966091279 -1.1570640425917944 1.7934048759212018
Ni 4.2127506366894645 3.017099526036643 8.21350421287639 -2.410238492455617 -0.0520578970375039 0.9935925322662889
Ni 5.430914676203584 3.362087572613094 10.431536881906279 0.9098894975196782 -1.3683796689837724 -0.1362170454849267
Ni 8.894216311096946 6.1729283879493435 1.2145565120757684 0.1543312385871342 1.9198568715995648 -0.6739236766791877
Ni 1.9162436576459416 3.6194239024314907 6.635832605316621 0.8724223538121557 1.0255567438777113 -0.014368610016846221
Ni 6.177662503006715 4.224797688922935 8.183213405916858 0.14840484580037022 0.9700900782689744 -0.8776794884460369
Ni 8.710602293891652 7.167732549647276 5.702751703972065 0.6172190248982918 -1.4641267793791106 0.6231518454429591
Ni 4.973719632183825 6.895243286941469 3.0690562034973077 0.0025235377528021056 -1.143424597431489 -0.38427810692705433
Ni 0.30266148149491734 0.3462953399789736 9.301858441046999 -0.30862519617842976 -1.3833074939381984 -1.453257954985407
Ni -0.18407895812742758 4.408487000204686 7.129255394224719 -0.9271642254397258 2.3492503828080187 0.873948817759011
Ni 2.7908878850745644 7.287751307523225 0.8268635476835764 0.23094651324902807 1.2249691910742 0.7688799157421146
Ni 8.99792448965992 7.494028841742733 12.917370816206434 0.06164091274024869 -0.5446563230392167 0.678141057194645
P 7.778254568616617 1.4070015832737677 8.884171140121333 0.5654133530809101 0.071906813442631 1.3664742244309436
P 8.610564701556061 2.8348408022076166 4.1150518666038876 -0.9592785894757674 -0.15185500913249977 -0.3188378750453734
P 3.609710966568255 0.1281175769750904 13.726311550164857 -2.2411488646123856 -0.6964529681299554 1.0873550081314307
P 4.632788053976613 5.166397173842893 9.634952847070764 -0.5459045936240211 -0.10819587768165237 0.6697546329031627
P 5.631253390142374 9.25217376234349 5.720755458829413 0.024638624484286598 0.7966997661678602 0.8442543760183718
P 7.312315999968036 8.356814252129034 2.1136590790662035 2.5862155914473006 -0.8649065050510846 1.4967034277635514
P 4.030689559811144 1.2487146110374356 3.325547357307449 -1.1754392026648723 0.5061203717475478 -1.565640359944581
P 0.8092306161527899 6.977539712511363 11.252971726677147 5.16082702299677 1.1495129697174138 0.45775740706312773
Ni 7.197341945214853 5.45455701621177 12.707562930976946 -0.3421531527325462 0.7033098431507888 1.4657185493462628
Ni 6.757972773796807 5.888279131895376 4.481178725146256 0.4883103401493203 0.38735237497700387 -1.8530277297901572
Ni 6.243582466946736 1.0087618011215547 3.4708743366332433 -0.9238832406956089 -1.7716528289560909 3.0636115986769625
Ni 0.7000466758793186 7.1968995925156545 3.467224456276884 -0.7786693910287106 0.04274741826985541 -0.7547064524552098
Ni 2.922247813217179 6.19066955471504 10.711350375899654 0.26624570277095433 -0.18502789634004263 -0.036873733097897786
Ni 6.1841660288608775 7.084269065892265 0.9153707933853985 0.7961984010514094 -1.5610967064379566 0.7934524628751561
Ni 3.505438082431834 2.913061935889157 5.088080981389822 -0.23019960778067453 0.9001763839969723 -1.1225827209854733
Ni 6.174980151532857 4.602501011720904 2.296771449487086 -1.089939738139471 0.9263967511460821 1.1445211729297773
Ni 1.3238298640650352 4.632609230545023 9.00945483629369 0.33243978209952424 0.1143169029777257 0.16863171437020633
Ni 6.511930555447289 5.933380283694431 10.518512834328112 -0.6846451768617499 0.3964185989443302 -0.8230381469520729
Ni 4.278952953416208 5.433408792486295 0.4637220992728148 0.07273445155024892 0.5173730618432315 0.9111110286316051
Ni 6.6891822231917795 1.7216555287967228 13.791178338210404 1.3387099098334816 0.6159404152961845 -2.4345991806881684
Ni 1.9189354208793579 0.6562001116292651 3.595993327013346 -2.577170707636213 0.6619834735981761 -0.4782380435149828
Ni 1.3378345622864445 3.27251585690533 3.8079508581257446 0.7103317829945767 0.23960521736529058 0.4098760100008167
Ni 0.007685642854571815 3.1643747395908184 12.931876220036298 2.1012322587886842 0.16196844341741784 1.5684629169950406
Ni 3.9744072376578994 0.25331844966334294 7.606106898080104 -2.1294547439694873 -0.11703738723268231 -0.7018078046839655
Ni 0.13581733746899832 8.674771725256635 1.061590007517234 0.09142225776773932 -0.24924968243359008 1.0025952499855313
Ni 1.0756511762959877 4.046454257069787 1.6789731992039192 1.7459399975710188 -0.22520703966208958 -3.1026157478543017
Ni 8.052353242206742 9.044155052605863 7.390279251437704 -0.8109441919020162 0.26695172769904346 0.2862152039143458
Ni 7.712409898753056 1.1393970237782494 5.389782463409885 -0.5862377460254291 -0.03253499651322784 -0.1672309773679378
Ni 0.639911179363275 1.9132601298662462 5.571268481779249 0.8866660082153633 -1.703411637290505 0.3882090665503443
Ni 5.686123948362009 8.002414445995184 8.042459600560004 0.13570873838994046 -0.9255660277146706 -1.1953022601373866
Ni 7.629049944353175 3.4271416546738345 11.655960682702023 -1.427405255588361 0.17979852962030327 1.4952965201136956
Ni 1.3732416017413787 6.089709609942824 6.937272440420988 0.1500341538736771 0.9337531915111531 -0.9652209231021311
P 0.4326501162700186 4.978679629470575 5.074663576964794 0.8312656770681877 0.9860082921611277 0.8021628461649605
P 6.16194486454586 3.866332002660289 14.072327360884975 -1.3128993765282808 0.041710235254592685 -1.3197521377840562
P 3.068073615799515 7.594537022056194 7.20979840898907 -0.12176770282881609 0.6811597894163107 -0.4948612538939607
P 4.038887202385638 1.0574488333119785 10.682849685607941 0.07252850618702993 0.49988801768459074 -0.2602172371886874
P 6.525596430324632 8.505463582578589 9.977043012879493 0.3350191127909263 -0.7066247664566346 0.638441681722494
P 5.053324294520303 7.091939649931545 12.991839481352441 -1.678816464449644 -0.6840738777393122 -1.0196702031899472
P 0.47301338830787887 3.7752073466255545 10.79967597464202 0.6570492695213522 -0.6708596930418833 0.19610575142075903
P 1.8204601806302947 1.7923849018705742 7.664650866054992 -0.3270101264435207 -1.1808498321574825 -2.9738047650254593
