# total energy = -381163.49127503176 ev
CRYSTAL
PRIMVEC
9.27693353040170 0.00000000000000 0.00000000000000
0.00000000000000 9.27693353040170 0.00000000000000
0.00000000000000 0.00000000000000 13.57772994856332
PRIMCOORD
 96 1
Ni 1.4935213825831404 6.46001131604812 10.99065699022338 0.7831716497744383 0.3695282023113894 2.8911895640263885
Ni 3.9619278939079927 0.18662221928374848 11.17462136801023 -0.2754314830352805 0.45789753218541784 -1.101346437314516
Ni 0.2902789653561304 3.887452670392825 11.759536674468016 0.26880292197516936 0.7168996660200814 -0.6089979225400802
Ni 1.9525904453195742 2.4930089394217916 3.4383971298614573 -0.746170904180373 0.6741476197645359 -0.9841954073221049
Ni 7.288033307835594 1.2900967810334885 3.5683085259176806 0.404274090433007 -1.0871655178284436 -0.8765867696024903
Ni 3.199252622902886 7.990640433317443 9.602062365932257 0.09085172997624999 2.0435876116920224 0.12965456177606058
Ni 0.550242766860384 4.382571897376885 6.781655594147746 0.7604284425406517 0.6126429754918352 1.1905246362430852
Ni 5.915696509803853 0.13184378134000604 7.327100330913207 -0.21669488842602033 -0.5025416532573539 -0.07623115184959774
Ni 4.641064377200831 4.339898002487775 12.062768094616358 -0.7824581686471815 0.5033047566756236 -0.4082605858845808
Ni 8.406172846333313 4.0019949704353985 0.18169060134395484 0.4700902175968678 -0.2962306791688189 0.6158612253188167
Ni 9.22527042792876 2.7380591423556684 2.351133082009376 -1.100754312256472 -0.13555395797963107 -0.4443431905397509
Ni 3.6371424460671817 7.391554610676371 3.940148436727305 0.9196388635969582 0.759123350575983 0.7715890871431615
Ni 2.475930104532476 4.5997634684951105 8.375612771432507 0.36444384580994654 0.1910198522574194 -0.5370515141087654
Ni 5.234110916021727 5.756290958525685 0.19510411973964262 -0.6080000774031852 0.43780333253870407 -0.07482835796480015
Ni 4.379232201255128 1.8358309581295016 0.9367931113929788 -0.38054949312255754 0.6582574308968405 0.148926265521479
Ni 7.583698460881423 5.064918199720078 2.1104003640062365 0.3768612456376929 0.3974349560239865 1.942987029859125
Ni 3.9001806233901855 2.1148069075002205 12.25975357650459 -0.48919788496059613 0.7904792391794451 1.0931070801238594
Ni 1.7915243229141997 4.567730216527264 4.518491963372168 -1.4092764071981343 -0.6066463915887682 -2.265846624469382
Ni 6.523048080346272 8.303588513793361 13.542740515572207 -1.8353539666594778 -1.827822434169123 1.1893113326612743
Ni 1.1654519002226018 0.9410707055089286 9.447031816573588 0.9932642023925926 -1.0332284014903559 2.3205733265883004
Ni 5.775150964679938 6.873855327135769 7.835029147910936 -0.926512965008972 0.2998687901420384 0.40304793133538974
Ni 8.135490475664955 6.871276339575079 10.880337550388095 -0.07040477497580779 1.1460432660012585 -0.3524131398976576
Ni 1.1715468456448075 0.3101362418800737 0.31399451859406957 0.90263512995011 -2.1169959493808443 0.48956786670550534
Ni 9.136731372967528 1.925993476483253 13.229027088068385 -1.1440951411359521 0.0446484919473102 0.41422888765287375
P 3.9983676893698243 3.32759900024872 3.6123006730815166 -1.641348035190541 -0.04474285143332939 -0.6383642915173393
Ni 6.488074040404546 8.998653492200244 11.142115920118503 0.43408834558096204 0.6509187311435822 -0.6832269563579846
P 8.04465074115318 7.951055757340957 4.0321644864286315 1.1843547599869475 0.7272424427069862 1.1844663458641471
Ni 0.93609826906098 7.698964361750377 9.351810586288742 -1.29130339552506 1.8333839874173004 -0.8569630818342919
P 8.941535411584537 4.283253045489318 3.8933323909538506 1.6013666097015968 1.939830229397698 -0.7791183056406711
P 2.485587392484555 8.474358308819173 2.445308801869438 -0.6855052108692 0.26237619251321914 -0.07171680891901197
P 4.61416126955335 7.704883045432823 5.942755469937018 -0.0905200576684441 -0.15000252930479327 0.7498504099144891
Ni 0.6109918393151332 3.1434704207358823 8.93267965070168 0.4331689190904862 -0.24465923484943028 0.8741719895134107
Ni 2.9871726422376823 5.59654216070167 2.620569560485645 -1.2638717816766685 0.3970798866774129 -0.4247331296183073
Ni 5.666258317243336 9.182197624891774 4.683760536730753 -0.31145443809710877 0.19998786008398461 -0.19314769723369962
Ni 7.042528535151812 5.788287102758847 4.789340391153246 -1.884945147324044 -0.8801495472530841 -1.789470573863802
Ni 0.6587402169225784 5.6224155287116115 1.9071687226769527 -0.10565691330988256 -3.905855886243841 0.7015856613708304
Ni 7.312988259412052 1.0339606423621146 9.162266132898457 -0.009242601644190534 1.0939295760251548 0.04423505855897543
Ni 4.148440645374417 5.226234799334585 4.622701614691374 0.7716132555128775 -0.30628343541913056 0.9797589688173061
Ni 9.094252293685521 6.052930189607028 12.920486478779818 0.5355960126091613 0.7828824006687937 0.22558704870932758
Ni 7.030505629113487 4.803967332473172 11.831009882247072 0.04021256766314364 0.38490082811271775 1.0610299970836565
Ni 1.7245355848719688 7.200765192787364 0.7351552472684666 -0.22278660314605506 0.7692105596086559 1.2509267914802262
Ni 1.1215534500888482 7.082280195934384 3.68008073356593 0.8119700620633694 0.4313784028489667 0.5863411043725127
Ni 8.106147534461858 3.1163168358792688 7.3706434744873395 -1.9296766859034638 -0.6556382481064386 0.14539639799134962
Ni 3.955981379424532 8.965933747140703 13.380486017963507 -0.280679104587465 0.5792898539526862 0.051670688901414234
Ni 4.569316572185098 2.05634367150214 7.421777005191532 -0.5443171945322431 0.4913817799857924 0.4374163815129305
Ni 7.783755535508305 0.9537337199705882 5.872721114570419 -0.7849876199372545 0.47502339323242704 0.07789774091874326
Ni 7.923633141407869 2.0537275762067644 11.3707246135063 2.098094998711283 -1.785267848636364 -0.08870408750562789
Ni 3.9474837081813967 6.038207695870285 10.19748658285317 1.3736452882580859 -1.0613277308297335 -1.846712843315723
Ni 8.146186780188248 8.376495935518038 8.14791414523789 0.11070398881548676 -0.4972971170289629 0.050101544642081455
Ni 6.404516698824935 1.2465601313129249 13.081532191931114 -0.18017468201279935 0.9773565300234005 0.7784580463488529
Ni 3.2108673438596615 2.476199135608951 9.637011358153071 0.4089074754399603 -0.8287022872163857 -0.49339392531981485
Ni 6.449018149647338 7.6440541913484985 2.679279562919388 0.4167686233555919 -0.1753150399276529 0.65610901709527
Ni 5.175953818834808 3.895486494952383 9.249584343388515 -0.5305041999085508 0.9604211877206429 -0.23391330918683587
Ni 5.354451299609017 9.343078208623718 1.879157949149088 0.9341080037474105 2.3745428388262204 0.5580993359180002
Ni 5.986024943967841 3.310158364946214 3.0804883903463924 -0.08957800547014895 0.11326352201254689 -2.7145005265693443
Ni 3.2510179127901107 6.258905947916355 12.83984858822664 -1.395379337501068 -0.8030308505922106 -0.837482604512177
P 6.267988065980797 6.046482720705304 10.166841160162585 -0.9238971246526798 -0.4686293167806252 -0.8843432736194575
Ni 0.3093245101838135 8.644877626635854 5.759157531030193 -0.08053132188684842 -0.49319492193513126 -0.15045864300560538
P 5.11840899927021 0.3389652409577688 9.34985593636415 0.09362723583885811 0.3815853905862396 -0.1998114824071204
Ni 5.86081417020299 2.6638807807179896 11.195639188936484 -1.3867967380383794 -0.9762057042484091 -0.496857458388383
P 7.162015440841318 2.0299786260076074 1.4826747917343692 0.6982905355593264 -1.3937700840324188 0.016786218319403346
P 1.8753878033049718 4.737609425920606 0.3860206316199496 -0.38623137399868324 0.07003839277532453 -0.9961916604520328
P 8.77930967247022 9.085216560289437 10.446949823134599 -1.0597542156950264 0.20772765193040352 -0.11626425651208365
Ni 0.3457559564053402 2.738105527024026 5.323746504542934 0.42713351152968365 -2.2543360527266207 -0.5802427047842588
Ni 7.838795582981584 5.949362502097892 7.891852222035888 -0.006542686214524217 -0.8027485434651013 -0.7733114691509069
Ni 3.7316187385782023 4.091174133819966 1.1685633837760383 0.8135219799315214 -0.890012556090093 -0.31234378268059754
Ni 1.8014320880754102 2.287803166607203 0.81661878491841 1.7587705736767838 2.5280806349777816 0.5471016992559158
Ni 4.483013258238709 4.808206891161069 6.897052299781469 0.550461102646452 -0.6333817507010834 0.47466446723111155
Ni 7.395274661078661 3.257790074370339 4.763950351387593 5.244759657255684 0.5290625823660179 1.3960889619735828
Ni 4.911505547593729 7.366432674293825 11.622536773393366 1.5114371344293003 -0.10838305399179399 1.3198431548359657
Ni 3.3689834013574846 6.822090037248544 7.745144937567332 0.17099558661669262 0.04226045133110787 -0.6621719354598983
Ni 3.472300611657488 0.9780207323226947 3.348404379393895 1.685376119945033 -0.893079625051191 -1.5550451009272381
Ni 6.184857463350077 3.706654510068073 0.8692004449687304 -1.5093421995734844 0.2541298933440268 -2.576965790714259
Ni 4.273076249251632 7.494324481889754 1.5105362066301222 -1.3922109670754153 -1.1749900309425958 0.1983580377900455
Ni 5.36318089419394 5.724591676170014 2.608349983453485 -0.5340160697165514 -1.8154677692585122 0.2498965719889696
Ni 7.445982380527329 3.624061969590302 9.916047607592654 1.1310280235393488 1.0307138625986185 -2.582369221118017
Ni 8.452854376568531 0.20681346541986745 1.4660421773546553 -1.0420246596257474 1.7283652219120493 -0.1871374864838777
Ni -0.0011345689880300266 5.336964279638153 9.544085241258564 0.7878736832357979 -1.2196421224343317 0.9764926393612087
Ni 1.7196373638933928 2.090009663796179 11.436182657492724 -0.46762375833424624 -0.2676947765126551 0.6493259327351656
Ni 9.101952148632904 6.17827084044328 5.420365768732083 0.7956332725765588 0.27817305033615963 0.34992559758911346
Ni 7.181320739811805 7.7956763952762405 6.041886000071053 -0.10782178217168527 0.0016172238884488276 -0.26174730067996854
Ni 0.8215485474714693 0.2448303396058613 3.5985327758195758 -0.23289592366591505 0.5797056013338662 -0.6420651374076941
Ni 1.9248987983100108 8.93824210013114 7.478287446651752 1.3903217204725022 -1.0084457952290373 0.09288264436334971
Ni 5.518402548386242 2.985363640171731 5.171404410562282 -6.110402783362477 -1.59920534038422 3.9890146184512076
Ni 8.650165478828633 7.363621763391348 2.0528165813202186 -0.3112631480219091 0.2255914195847018 -1.0408859180356138
Ni 8.473319292247961 8.65290217426174 12.64320171441742 2.0471429331434483 0.523764567191872 -0.7395837378811585
Ni 2.1165231402294564 5.94736796135851 6.0206102803887305 1.2046351075025383 2.6160033642326948 1.533594644362946
Ni 3.232269229839917 9.379722096626322 5.365077099436404 -0.6001913799920437 -0.1292706960740806 1.8801063311745039
P 6.683641079134398 4.5782873670454824 6.542728167437089 -0.6709933904062703 -0.08051949481230648 0.6098574423268981
Ni 2.5697477347528164 4.491752129757305 10.698300919418191 -1.3234763807131786 -2.406436602211023 1.0403123049203309
P 2.03005284147698 8.279644747987103 12.530547270377006 0.840038023944179 -0.7743877329342211 -2.358649050414099
Ni 2.9868572264928495 2.8051128189336 5.55592588970091 0.08217939901323268 -0.5219072022681592 1.501003340690486
P 0.7674816503403344 6.307526357288926 7.828932347101998 0.9513220536328519 -0.17493631643199548 -1.8714216589163126
P 2.2960132529065205 1.8460912467702308 7.626855684014821 0.4577746334543084 0.42028949202465676 -0.3555424295552586
P 7.160967147336434 6.196648446046612 0.3404495503452161 2.5043030729422098 0.7452699896326584 -0.26531753452973017
Ni 9.429446461105806 1.0445920083497058 7.536047491077529 -1.2628405121986768 1.321636756401279 -1.8486496553271197
