# total energy = -340888.16961675324 ev
CRYSTAL
PRIMVEC
9.08270589771822 0.00000000000000 0.00000000000000

0.00000000000000 9.08270589771822 0.00000000000000

0.00000000000000 0.00000000000000 13.29345817529698

PRIMCOORD
 96 1
Ni 6.45535167555269 2.284890949109243 11.071616138556644 1.2913478756097503 -0.9229846401407396 1.5659612336191095
Ni 4.625240901399617 0.7479317790952995 5.8193706064982775 -0.23480651042506656 -1.3100881323317308 -0.037379726200038856
Ni 2.7815696471041544 1.8080307157296653 4.6471274981840205 -0.40825107280288403 0.0565447291642639 -0.023647721325927015
Ni 3.210954575926286 4.39681084407806 4.404082458546912 -0.8516897492504946 0.6051214703038095 1.8331610727732168
Ni 3.8099953711782133 3.030163311871193 2.750110786406781 -0.43156197961468257 0.09912502572863573 -2.5465216152917884
Ni 5.3906405407828215 4.890737482137845 2.4549291974640184 -0.014691283463587602 -0.1714565854135112 -0.2550089535148705
Ni 5.797627516469567 3.152843422576651 0.22022383239948828 0.7418473371043546 -0.5274037066063563 0.46365088972942736
Ni 5.932433039760483 8.148649648376354 12.329071378551992 -1.1416891027976208 0.07276221946439082 0.8172531648391796
Ni 1.848112697557102 6.561782825123028 0.08063626436981243 1.1721857287245814 0.20250548429951576 -0.7283662718987843
Ni 0.5329014380189312 9.699149316579364 0.3388367073328352 0.5235539938429629 -2.724514973382553 0.7758617463765864
Ni 8.190203028584948 0.1368663892951415 6.714738319926695 -0.8937113450979189 0.7353221343913271 0.1688975664370833
Ni 8.808272093025291 2.4668357168335144 1.3038833085444752 -0.08776974861681658 1.509594939014239 0.750931815904126
Ni 6.902983760842376 1.0222040704253401 4.692763554765021 -0.7002142349446006 -0.7407916421463306 0.05814626932342889
Ni 1.380689395770252 7.572342866383905 2.2581332970667263 -0.40341508486682137 0.2498605765447116 0.16645887508860363
Ni 7.8134614640664255 3.945227781653786 3.7125306690268745 0.0795365620737469 0.16827124570699406 -0.20498119953351795
Ni 7.938775559528275 4.18145080077184 12.548413280193392 -0.046153615737926965 -0.9441255358844127 -1.128228863527657
Ni 8.727499588064632 7.7178296519972935 9.217844006855724 -1.603092848364084 -0.3717169824325921 -0.493484428151092
Ni 7.019751029905037 1.035364911501242 0.12100162662621254 0.19231825935386876 -0.2619352483210586 0.3878069460159192
Ni 2.3066985263509556 6.9512038472964575 9.279046913346999 -0.27404720109324415 -0.6223002960759412 -0.8430582988277416
Ni 0.34966238468160515 4.936968455965547 1.1220248265277406 0.07752467385004068 0.5735023007366317 0.8122143168636915
Ni 6.247693766982401 2.418433976258303 6.5848746970011325 0.5662916419208054 -1.0876532560981396 1.3836119125524944
Ni 4.004565100321051 4.3860478374010805 0.19768055596719783 -2.0892105517374597 0.49157384139194055 0.29010374033547454
Ni 6.19124474884111 5.909281222022406 4.576618451067231 1.1831933926889946 -0.7440721126698153 0.5272047032216727
Ni 5.246979379086795 3.150309347586881 9.136048789193099 0.7041750193645615 -1.0814628110167117 -1.2351237630096985
P 0.26145114346065246 5.84338618958233 11.994820529507093 1.485265875350571 -0.4432394159526109 2.01242301316376
P 4.155837569692444 6.290327989211721 12.635870656811651 0.2824948176399651 0.6628013415137811 -0.8768289675202834
P 2.690742586538923 8.978300350403405 0.9279909770422369 -0.5299732671057454 -1.7574683099255926 0.931549241881299
P 6.6174507305434584 7.965478715334453 5.415250132842971 0.3099896806261242 0.5557454909738428 0.7832071309980639
P 4.95239997355558 1.4494545633241884 12.44592039196916 -0.16148918978815413 -0.8481570535068876 0.591314132107072
P 4.529118623203432 6.195368297390772 8.035788851188604 -1.368069079721889 0.8584820895819795 0.5660977807424444
P 4.857894417037457 1.545576841520373 3.7030792051044563 0.7898973985340461 -2.0963679887178475 0.27379086210806397
P 0.2942905754786175 5.6694886994241385 3.358299683198838 1.483726298777593 -0.3789330405650571 -0.18483300672041716
Ni 0.8269585879518961 -0.009336113555500134 4.644389062307979 0.38886598340805284 0.6171935709769951 -0.15210903412483479
Ni 1.8442252993649102 6.677841643113281 4.658187509349048 1.2910228881701635 -0.6147193984048898 -0.48343989943089655
Ni 6.467722321201674 6.033641633348321 9.003592961959004 0.24824052444278538 -0.2655898143545103 0.8325031490197146
Ni 8.857382284672912 2.7836859176153244 10.104118114980349 0.06198544056386099 0.14698045464901785 1.0195611884159086
Ni 2.5652831677801693 5.3133285468296965 6.722873699741522 0.7293286358120535 0.70367236869653 0.735353758960211
Ni 0.6685062394428217 0.626566844226826 9.748890756297913 1.1178053542014879 -0.8492163480093373 0.6782917238398963
Ni 1.8535259903667898 1.1982632446249846 11.826219165250462 0.45654590325352984 0.3896524838650902 -1.387951934688745
Ni 4.183666981049631 7.269425536692803 1.3694658958962063 0.18917045775350644 0.23658005738572158 -0.3651580982681518
Ni 5.97340512678146 7.94053760450324 7.602515615903675 -0.35752217898944877 1.693472523799922 0.6920106160878856
Ni 5.3219662002894506 3.467195879192917 4.612298045269071 1.0886210193280477 0.05811207365138379 0.36978608395846635
Ni 0.9252552659780121 7.8202644109027615 6.811980495779648 0.6922003635011886 -1.1661207534774238 0.45062748088656585
Ni 5.327742801341399 4.425757428280199 7.110192075462867 0.05469662021193161 1.5499502029028338 -0.6963215847584137
Ni 0.9891521030856524 7.684750436539436 11.195311695799223 0.406157680608965 0.5508020309256385 0.9858059463423344
Ni 4.7799920471906585 0.6968406492567513 10.224663789762525 0.19848376473463236 -0.6660167631272852 0.5563018776979451
Ni 8.577525945659321 7.188653031732142 4.625764973539078 -1.4438906548378938 -0.08684852235412785 0.5614050032524653
Ni 7.770463933594845 6.700112438363875 6.9703983300057075 -0.5095890470224386 -0.9763823390355894 -0.6899437062565279
Ni 2.804875870845193 5.47209424869772 2.245690898039895 -0.7348392812176376 0.5309567140649373 0.3240502724842484
Ni 2.7295893203426727 5.26203850572851 11.193584165107271 -0.19678092311091272 1.1488516819843313 0.7030280502443118
Ni 1.1596072476484223 3.4843167801094626 3.399097382263529 -0.3066127937340913 -0.07434421923953002 0.004517171144063188
Ni 1.631835300939173 1.0411051817289647 2.544992402449896 -0.2652260032571884 0.6281778379026407 -0.2321564743967292
Ni 1.5230789786183652 3.413780484874504 8.149926676847903 -2.4347786436888263 0.12543640992965494 -0.48443285947178505
Ni 3.523699393570547 2.759980054807799 6.9100991527670566 0.9463305139555316 0.3332512222572261 -0.42938811189181536
Ni 4.507747015852433 6.96668986112283 5.936140600372756 -0.7386558267502504 0.3516348669707363 -0.4382663882180517
Ni 8.501685350087353 7.330661140925881 0.1600091243271625 0.6033065285822578 0.4993398584906046 0.08405141922496492
P 0.42876548826907646 6.087347674260542 8.012671547733541 1.5127417121733366 -0.6120670483837072 0.7637976161232007
P 8.937137526555242 1.6928710856390086 8.198208525703167 0.3423770958178942 0.6571559703025456 -3.0911869371920697
P 1.940338494855038 3.3970319749062754 10.429954745134484 0.8429549404806579 -0.5003392462893963 -1.478499760271331
P 4.132476849715067 6.261090758415773 3.860487042417031 0.04073167339140727 0.7042135859119807 -1.256346419833901
P 7.030786517763714 4.031368165893851 10.108306150743012 0.26961744745666466 1.8272719609822916 -0.6059835611937886
P 6.405714686953791 8.163245557009187 10.130399833225505 1.6030619951261489 -0.478158339316983 -0.9830098716544362
P 2.7058380440048646 8.3824929985076 5.69423998169877 0.3499507944000941 1.2868206771633581 -0.36357609849301253
P 7.310806345486323 4.2904886869804 1.3373621630688195 -0.41185267411121335 -0.6116271326328111 1.54250094571364
Ni 3.1130430046369666 1.8855879427463167 0.4831282088291844 0.6623578262184593 1.0192590837944575 -0.5352388863800588
Ni 1.6730435383176185 1.0261005513235886 6.7432135116845 -0.41872626130259494 1.2080893845997258 0.770032541289319
Ni 7.091368167160723 1.1070274622872096 9.04266222206114 -1.2517567435806893 -0.9685512730269448 -0.3158325125601464
Ni 2.9260210042270987 1.8244976618101418 9.005998970793376 0.27754287295132846 -1.3922575040426346 1.1761133459137616
Ni 6.6866518679881075 2.10284627161835 2.5202665517522234 -0.1003540130397304 0.4278727036885534 -0.4809721546166942
Ni 4.628492510167852 7.015264173113115 10.415025501189376 -0.8320987144924444 -0.5459634718864146 -0.2875817452445692
Ni 7.391406279031908 6.328983986188284 11.43584355067049 -0.5988937442265427 0.7905897966153804 -1.48476785266823
Ni 7.951673002128538 4.187708785244784 8.173083944209614 -0.03599364448578962 -0.4292672700432349 -1.6673647709692767
Ni 3.4864693814448584 8.363664548852428 12.146511711627692 -0.35956877710583235 0.16472877977137437 1.809293779237316
Ni 0.17821994997049137 5.175117008767584 9.966970161797457 0.4316578817625985 0.181005662554527 0.14039714500454528
Ni 8.598334425234816 2.5036115936563768 5.805093500848028 1.3273091241957078 0.27201397271329925 0.20512595264149835
Ni 4.013756798850253 3.039954469000125 11.11858190330432 -1.4182945515363445 -0.9300271488098175 0.951320253860639
Ni 1.3200441674308467 3.5801665771239515 12.454694286019762 -0.34689118163816385 0.1513202196749523 0.833835494677893
Ni 3.479121472245131 8.480640720154389 7.78411705733901 -0.8860065202544934 -0.9635821019471276 0.16825581908802634
Ni 5.920552860238551 7.96021074582167 3.3234711385544946 -0.8037348186377706 0.13163174010708945 -0.03716940996144567
Ni 3.552082849997182 8.67355739679494 3.453719868216853 -0.6022950565986079 -0.4450579572185883 0.8702289457052625
Ni 3.360128940198622 4.564223282111895 8.983081486871558 0.5647037286083952 0.5643206342373636 -0.06966018350029939
Ni 5.53717183759271 4.731481314142767 11.432586492278622 -0.3165863600070354 0.7574439059910311 0.2977342602975388
Ni 8.132091875235313 8.696945364890487 2.711346705228146 1.1887212644857592 1.0735201591308672 -0.5837304062225431
Ni 5.005606465634693 0.5193227924644291 1.6654176983125617 -0.10509127061439966 0.2693940185919489 -0.808116492645234
Ni 6.221880716369762 5.915221311783372 0.26350928465306056 -0.30517451862566797 0.4753668926147749 0.1954264659655473
Ni 7.899402028773247 -0.05922469311216477 11.409336581315134 1.5035461617169976 0.6094082706046214 -0.34171992184986955
Ni 0.2737218793430152 5.102836833969772 6.095316840554535 -0.42613823749595003 -0.6523822030629861 -0.9252130152506259
Ni 7.570980460475426 6.318366302808208 2.445890088396567 -0.36286390291733633 -0.810504019040804 -0.7477315637992736
P 8.722322445612413 1.5378111278420454 3.6317599806074257 0.34685672885580265 1.6213294259767692 -0.9249821301867425
P 2.159540522823167 3.672410539834001 1.3444076181568645 -0.3733969412381763 -1.0534524418467148 -0.4539012665418312
P 4.8722905061370465 0.8961379269020101 8.036413741365292 1.8107742204375847 2.995581494580918 -0.4379557989561683
P -0.2687627218361536 1.9460424342585345 12.221380457651613 -1.2336538633323917 -0.12469593221920461 0.04965288714043707
P 6.743573186844339 8.060865294340058 1.1574982433020973 -1.310966421171626 0.1829638147221623 0.39759642130251527
P 1.6939246795415652 3.476632810785644 5.816712098435533 0.9793506776352939 -1.163689775438428 -0.38717265486603
P 7.3088808118023385 4.364440079692612 5.867932202700084 -1.6718431184556046 -0.1375229087805438 0.33576678959022815
P 2.7421416201127875 8.89696471766724 10.252354235717046 -1.01045459812895 -0.2235237384223957 -1.479675268636671
