# total energy = -340855.2005025688 ev
CRYSTAL
PRIMVEC
9.34638207501640 0.00000000000000 0.00000000000000
0.00000000000000 9.34638207501640 0.00000000000000
0.00000000000000 0.00000000000000 13.67937491356578
PRIMCOORD
 96 1
Ni -0.007073341768955729 8.042197055836967 6.901354323710699 1.0267841885269091 1.0351227902995916 -0.28882718761589615
Ni 3.436215972568858 1.8112072956932135 1.2678226756688575 -1.9172708560399432 -0.14436178607924816 0.6647808338376551
Ni 0.5226711686126757 8.048487170808567 10.864392193062944 -0.6154295370980368 0.7847523639979969 -0.4946617362886449
Ni 4.251005501364119 8.76076558369222 4.719630282406548 -0.3410426932771869 -0.9407738458033604 -0.2946221970311184
Ni 2.521018263773741 7.964659472175157 11.95067074806558 1.9990162528395508 -1.4328449385466937 0.877941998078804
Ni 1.7243700621105396 4.859305416388848 13.46719410176387 0.13265709604781023 -0.5656537512264904 -0.034400074746424626
Ni -0.004922739309869163 1.9035121626464466 3.4587613148192218 -0.6250848007996137 -0.5709479097458942 -0.09049794618125705
Ni 5.412162594397925 3.5971513212998953 2.7960364837601297 -1.025776573198001 0.7018682256082557 -0.5821910867598813
Ni 1.769438315294874 5.755885132578575 8.021954662069518 -0.44110257211526616 2.3910809456905597 -1.7288593879396486
Ni 7.5651016489419955 2.590088025497555 10.615919566750163 1.3924927599818921 0.3194749944087401 1.716859278154979
Ni 2.8924715168440467 7.9182546863891305 7.192929659108961 -0.48051938334999184 -1.5922780171367674 0.4110959984508468
Ni 4.8334626706288555 0.8107808656283675 2.9065938997892 -0.6119312941367913 -1.0136581926679122 1.3181649958025943
Ni 8.672227308616481 2.3956085123785926 6.244949516045064 -1.7560284921552722 0.7085443520768507 -1.8978016915717382
Ni 7.695427597179731 8.504842956422733 2.725547006636336 -1.3754224347631667 -0.7096571255250552 0.13872129996401916
Ni 8.332635871204698 5.04165332589245 10.925921293926303 -2.479748009310665 -0.56586098214129 1.3805952372133576
Ni 6.9270895860796475 9.23847785178797 11.050677733231533 -1.7632327232131957 -0.8431680849327284 -2.8397644154768766
Ni 6.101981651744048 5.075720887662857 7.741568814998152 -0.6998074864244851 0.0851204839194276 0.693288968579677
Ni -0.004654498151347718 2.7894837354591058 12.684186009743392 0.7155557503976774 -0.1852544105285519 -0.6870712698047393
Ni 4.620533399777442 7.115110749354069 8.459749468007457 1.2957637452892588 0.13278667964713906 0.4910459939129284
Ni 1.0497388752381906 5.716004121309898 10.83762135158723 0.3829146509206244 -0.2775300174355221 1.0571545732886503
Ni 5.427911247781501 7.765974087232688 12.308619414029696 -0.38777737832956444 -0.5328783565676822 -0.06876569671048802
Ni 9.243375355866899 5.7398560877400975 2.2846062085744134 -1.0390354950904364 1.5834588761832407 -1.9770477189882596
Ni 1.1395295654791497 9.254964869336117 13.200883905728505 -2.241100527872953 1.902760321128594 -1.5620518712623743
Ni 4.772150405823954 2.7017585956025805 8.343885176375304 -0.8709115735945839 1.4755530189381814 -0.5243132406064905
P 8.764597600242524 4.828107193840257 13.4681380863287 1.6470916225425376 1.618416108984716 -1.9020404122434342
P 2.0139116248225895 2.445200414368655 9.156590462022473 -0.02227989444412292 -1.8374944100412485 0.6299950936170375
P 2.2109333537993163 6.441432893428382 2.019485806946011 0.3454516209781599 1.9952084490576862 -2.6521240212146515
P 5.552442439284627 5.0900301982446114 0.7414148236005416 -0.018304711846458797 -0.26453951871312503 1.0601324249700517
P 6.991084262469763 7.533688459611313 9.101544946234595 -1.6193350212545594 -1.061216659173166 0.3088874487008809
P 6.938258512366516 1.2561163324267628 7.186363825873375 -0.8550265269332112 0.597718492971519 0.41580934476611614
P 8.690508831475992 4.758289721570041 7.097489081051759 1.2137630379457354 -1.3781359770395878 0.5878061189538134
P 6.523839942023629 7.412475233657842 4.457246501377973 -0.8669255923636423 -0.357984463337848 0.016554819034887615
Ni 6.567001533314641 6.041725528085939 2.5608749744496584 -1.2023247142018065 -0.061916792109454666 1.275777531975319
Ni 6.235980728040981 1.3380841010759987 9.363600669260938 0.052402167750800074 -0.9986923153866993 -1.6205701792132412
Ni 5.60851138388289 1.724108363419299 1.0824381267086831 2.3822551198688133 -0.32226746955221275 -0.7473600393924676
Ni 1.452661395930159 2.1240493883074922 5.395760628924431 -0.6660208768923433 -1.9789212818618886 -1.8128773828235167
Ni 0.2853375601649092 1.5983901814237607 7.989274103362686 1.0574628485576887 -1.6626838205538397 2.1254181120062685
Ni 0.44135390813880887 6.825270102423458 13.029481543986035 -0.7496568058464443 0.0007368781660245374 0.40743500465949184
Ni 5.671225605962294 6.200165392868361 10.359390359299912 0.22781799492237542 1.2194996833191964 -1.409132168310786
Ni 8.607326033188853 1.1799433205121366 0.6863459418580902 0.1549958687543266 -0.6207442644427309 0.8662396220402113
Ni 5.233515852099009 5.333512791298345 4.4783805399720045 -0.5239951951454395 -0.33540066450006106 -0.06595908049962834
Ni 1.5699211023695334 5.532590724277674 3.698054859536742 1.7175231369912227 -0.4056781698693852 1.4344364514035295
Ni 6.302115725870171 3.0510796164994094 5.899284799720136 -0.5348935872254982 0.4971765322906986 0.3116117896105795
Ni 2.794044769792153 6.8831802842422345 10.03607844975965 1.322791438831012 0.4683315830345483 -1.4285403976340687
Ni 7.619282624410595 3.367828496718635 0.6288993405780829 -2.2720216429318416 -0.5507544655171547 0.41974698925762544
Ni 7.5168369331717955 4.813807229640332 4.284626306083052 -0.8576873615948262 -0.47914178627617476 0.6808237462331307
Ni 3.1983785941404537 6.550645365112113 5.151091980016468 0.24294019527579452 -0.5506413369780582 0.04448059891087823
Ni 7.042601519116809 6.863113602453192 0.6300265142267828 1.090734980347257 1.4048163145442516 -2.4404399557396617
Ni 4.186094879554662 0.14506425774548756 8.96343720048519 -1.021357618194699 0.23046700250944824 -0.6431452578457505
Ni 5.21610354274969 6.822307299383343 6.246864589682034 0.43196384303879154 0.729969354719846 -0.2069552925407533
Ni 3.386044594905335 2.4813148337598347 6.274291547162215 3.911756310888676 -1.8863723666888739 1.7162429847272183
Ni 4.575567956793238 2.902350642438373 10.948274100710966 1.1549621657574431 -0.8090744856831292 -0.2769435488044327
Ni 4.071760590628083 6.045370616999645 13.03198450504011 -0.32134444351731106 1.884214954026239 2.9220782831854453
Ni 2.7838385208337764 8.380732352101958 0.5591622471916052 1.4070164075193639 -1.0775794168019053 2.110300796748856
Ni 2.465846571831159 4.429932635117936 9.489997398577334 3.103545715867739 -0.5583343347469416 1.1470328836080377
Ni 3.375987888056238 0.8134576693844839 12.17270059090488 1.614192814931988 1.0491967518941543 2.7089644272424636
P 6.167266128826707 4.053637956259682 10.09510458956893 0.17431513790822883 0.7738889389209317 -2.889221384556424
P 4.483814526367976 9.079327661986467 10.925935313499048 1.6975855175270314 -1.6777875089644976 -0.8335341613873903
P 5.6708050187799435 8.634271652004788 1.322499009374448 1.378066300143917 1.025798684685188 -0.9304488097282685
P 2.9795704491179613 3.0706042081423117 3.2923788947576513 0.1241475159149023 -0.4449103758971305 0.5871700280317114
P 2.7046559739698854 9.300444363320972 3.117816521318452 0.5376343831954289 -0.5132922069056386 -0.43702351694988606
P 9.204101859417174 8.246079029076924 0.8780626645081001 -2.5835814962585633 -1.378325981563207 -2.280837441451259
P 8.39476127122881 3.8679907739700843 2.595469672155278 -0.10162902309741206 -2.4461884281876647 0.5179124792864693
P 2.579760273575388 0.48082741715969635 6.70891232183068 -5.964959334183275e-05 2.2400810854695035 -1.1814442712083717
Ni 0.4994865338451393 9.216289541323514 2.4085682054240922 3.163649880248487 1.4608375671048777 2.9461422661131844
Ni 7.794433819905086 6.330080100305577 6.199082147214263 -2.919087833098553 1.2045608026211772 -0.9839241559385893
Ni 4.194048650492005 7.588906883463045 2.357462189577567 -0.7507358978432361 -0.8342399292051632 1.3458917722939014
Ni 2.59878016059947 4.3101120200571374 5.514593331425797 0.3651575840475195 1.7293414697823895 -1.4276983613487477
Ni 0.2145985346462539 3.91353569262775 4.527585501754304 0.6605048321701206 0.18904730191208086 0.6960361923075109
Ni 1.4168927926666897 3.4655168796059566 7.267030578171872 -0.6098762113799755 1.0858257159710978 0.7168490152878041
Ni 0.1606951467180055 3.7364404497126165 9.520707739994398 1.2250514663753613 -0.5229320439882478 -0.17678596804622457
Ni 4.797843609474667 0.1331971567359169 6.787842516385161 0.6908271373027458 1.140071878909172 0.3985312744119588
Ni 1.3856478382089479 3.0559490814328476 1.6500336142255112 -0.9922925825079427 0.23526776633220126 -0.20152512266411746
Ni 3.2825334161379134 4.696846607419518 1.9245377832112494 1.5551795696225732 -0.38109739520622754 -0.9986635190312931
Ni 1.7049389342859373 8.257864816564574 5.0407401843876585 -0.8881518487322705 1.485129349772707 -0.5644980403554923
Ni 2.228551283548896 0.408866819535858 10.418772596256915 -1.8637695416876934 0.5173049276094575 -2.7838781458322184
Ni 7.716382185242626 3.3839510053754114 8.193972950374588 -1.8641148408422539 -1.9184314520069479 1.0339441966104579
Ni 4.194646818929126 3.5040239727456206 13.329648073562446 -1.739777577514049 0.9880870290670274 0.661961619221305
Ni 7.774339098970552 7.213528150024132 11.597346671830953 -0.419529988150813 -0.704665842958051 0.39196673382056363
Ni 6.2175216239267 0.8547677424349696 4.974340683952679 0.11825069081449312 0.058770276060672984 -0.6241224368863445
Ni 7.077715875652178 8.5571453091435 6.365819729785374 0.06660597005500787 -0.020840848004751205 0.7109917851760787
Ni 8.838312513735858 6.3669702693886485 8.657758174905434 -0.4465101162840826 0.16601895933770763 0.7871746002862443
Ni 0.6225363238282084 5.937419906862966 5.914825028788903 3.028653851654855 -1.1290732138058233 0.3215403615782011
Ni 6.947745089923981 1.9468606815740583 3.0956011063466886 1.3310678199071915 0.2612652188372275 -0.4536608683962509
Ni 6.672793229248586 0.1491261952888123 13.115373858365693 -0.023900460766681418 1.3198171866940367 3.1194431038242856
Ni 8.483673401577748 9.024155970043886 9.062366782879536 0.14728204504983666 0.6153292640747466 -0.17232716094392259
Ni 5.96974904161299 4.891924288975602 12.051118182869123 0.8982832807393175 -1.0680514227068123 2.897905285483667
Ni 2.3495588891021066 3.1656101794444194 11.44967757746944 -1.9515680866599165 -1.1920205040623213 0.3758842264364043
P 5.910801411411081 2.4986804112000036 12.878747771022459 1.984642243506066 -1.1281234482980442 -1.630953322219778
P 3.8044166847623186 5.042083259456631 7.381719094969809 0.5369818372130946 -0.01436912423747848 -0.27824324145246276
P 8.704173241711475 0.7840689063581832 11.167486009428517 2.5139385391494447 0.29790600998871275 0.6751796605734759
P 9.314660210084426 6.978896580563423 4.303216259542952 -0.8453326966842151 0.9768171125801628 -1.512666378850711
P 9.05195210960635 0.4333347125286556 5.288309015577474 0.15581630777309294 0.04789810923285945 -0.15739830754823217
P 1.2266471905167242 8.021270506919562 8.715307586385572 -0.05655449935627679 -0.4860220583357759 0.6884792058958594
P 2.093935346051182 1.9235975371991498 13.231621351652878 -2.7123857942191867 2.387288311417347 2.4386424975196066
P 3.3584914612704493 5.00486596700951 11.563038908047517 -1.4062412199162362 -0.5898144076330938 -2.455251566831197
