# total energy = -340853.31457856164 ev
CRYSTAL
PRIMVEC
9.40303679466705 0.00000000000000 0.00000000000000

0.00000000000000 9.40303679466705 0.00000000000000

0.00000000000000 0.00000000000000 13.76229482252279

PRIMCOORD
 96 1
Ni 7.3101839380951095 7.358506143184032 7.393531514216475 -2.2975827792303978 4.068136975805671 -1.7880364125204367
Ni 0.39678557724466085 7.892250709726647 11.073706083395319 -0.016232659808778496 -0.8308129058014853 1.3527717872431864
Ni 1.133498450019311 1.472073588886178 4.787557965648153 1.0704230082627824 -0.1639610483674144 -2.0433011907998555
Ni 2.415310996335095 2.995083427036161 3.167323549962087 -0.8067882607521137 -0.9051247291411831 -0.07322193270962873
Ni 7.524921084936074 0.19528038350763235 1.5946647382588803 -0.649038997622366 -1.5863490532468423 1.133109845769042
Ni 3.3973547358334346 6.8512969459274515 10.075623584367856 0.7196646303597283 0.05330333940883079 -0.36817965870329494
Ni 8.281959561625925 0.3067618451370846 6.519570038616581 -0.1146208073713897 -0.23144196482820784 2.104864456224633
Ni 4.530768558523343 0.8037048070334609 2.348603974085273 1.161059794014749 1.4690594407940376 -1.3475537333773566
Ni 5.360238626145275 6.721939371417176 4.1164538404484095 -0.8376250436273122 -1.785443969202912 -0.6582710577435954
Ni 0.7078408488934407 5.992846719503406 9.207745873448353 -0.08137670060627922 -1.4241849488788505 -0.12856878491104956
Ni 6.504804450243135 5.317906155370743 8.329380955808539 -6.7271196718133695 -3.581244856160116 -0.8240187656977873
Ni 2.5568831153891556 9.239546002926893 11.433907266139208 0.10813365698514926 0.36035964843824386 -0.022123571371916735
Ni 7.951320585649708 2.9366153454555186 7.885904600325107 -1.9161976775804224 1.4053673019517152 -1.4381671220905554
Ni 6.250527534497924 0.5650115438459208 7.671364917252749 0.3042098407195535 -1.5832243915749316 2.139439880206657
Ni 6.923248981992918 4.291376649716401 4.0274663229741865 -0.67379203619733 0.19076042794844564 -2.0005635427220123
Ni 8.87247966316113 4.699957396072473 0.41684601552773287 0.6404417428716583 0.8737590703457081 0.5611797746155368
Ni 5.115204895378156 6.935360093134101 12.848725765166181 1.475534249885104 0.5780428689194625 -2.423349575916278
Ni 0.37908153993362304 8.60299803723324 5.072973977398905 -1.8497760556220786 0.9028624154695678 -0.7183921914052078
Ni 1.4007985714559323 6.264820150130375 12.89789894506743 0.8956268169530769 -1.9976291426840371 0.3299784650432252
Ni 5.785481553357073 1.4066472602213167 5.714751912049644 0.3735481221040599 0.18404342093958626 -0.9483123202722509
Ni 6.795913060351707 1.6013277299938502 13.679418227546153 0.3162238344612941 0.14373675090073953 -0.4280071723838887
Ni 7.971988460097159 0.4572677892650863 4.405571827708699 -1.6768156319695315 1.2124121803447958 -2.440269748710384
Ni 8.062530299521411 3.457825664209939 10.13195247512193 0.8570960078677303 0.12903261192134552 0.9389900144300602
Ni 7.418497516693921 6.095537282215242 2.722044632362379 0.1699028677731461 0.14927053623477518 0.2279558060518203
P 1.8752381861604799 1.1771191368080853 9.760136661569355 1.2829560520016292 0.44945428651407104 0.9053376164829375
P 5.744117595352369 7.470298845324954 1.9687654897053264 0.12648593424009186 -0.1905110309418009 -0.5731150926005419
P 7.538564891043104 3.2643957983052454 5.665234581008825 0.5840638783025618 -1.1896391483143383 1.3738877432861953
P 8.138262356300197 1.1591969490479208 8.873060770823027 -0.06430971782166345 -2.5048172935744666 0.8064007955057081
P 5.715513558014268 9.098331199263646 12.645732070735326 0.09239901985871184 0.587685019994917 -0.026600633306663866
P 6.106905553464999 8.409003989132527 5.809298504761964 -0.3719974897874883 0.47771148158755145 0.32028232080138386
P 7.423650380750884 6.475015630293397 12.156083044329801 0.4883748748386686 -0.033804607254270806 0.31095847229729673
P 6.681562732255504 1.868797106089277 2.5871740574933497 0.07709092874673175 0.41883321919410443 0.16722172139655717
Ni 0.3426616985733556 2.349104215632409 6.5327822453436575 -0.36845579518281707 1.0172209703185062 0.14262552011443178
Ni 4.71858481157766 2.9055006973451385 -0.2537729129834352 0.11876388300548578 0.8942391925769309 1.5406296968328566
Ni 8.754969914767226 8.148079126510908 8.844999288696764 -0.5502888387346458 0.7360268737678356 1.0969107701406655
Ni 3.1655604805995314 2.414079198540456 11.760128695520606 0.43991009446906176 -0.14831460007940908 -1.763721747034472
Ni 5.043045992507483 3.3384353084959786 4.769172208183594 -1.5161679642460661 0.7569217149389739 0.1727285101473993
Ni 5.067352842119248 7.198005711453575 7.998342350776809 -0.7505752038956557 -0.004801535153701408 0.37444929376209063
Ni 0.23450232977478805 0.6584250706479039 2.738118183126925 0.9767533492217629 -0.3040056951285474 0.588720917458599
Ni 3.611997852308397 7.608006316336292 5.484150902160319 0.7221984525251756 -0.6905260611225591 -1.9204893629772408
Ni 3.9291340677265882 4.553279428144452 8.8480684398431 0.5988117260356978 0.7359391991500357 0.8279744079114257
Ni 8.887646761197407 2.8621150864713716 3.841772335280556 -0.6691879617664153 -1.931864180473086 -1.1248964567203144
Ni 7.8351648745262485 8.843226816297609 12.05260450715086 -0.5088213156184785 0.6845469607209888 0.7168844965114299
Ni 3.8049387603098754 7.581677813855463 0.5857546425861744 -2.0381921517080643 0.9231530473978038 0.7396870962282421
Ni 2.184748538895831 3.9050340849200293 13.3171671828234 -0.7141943512737764 0.4899548177312788 0.3207314925236605
Ni 9.158181527224531 4.787311606089226 4.969372260440501 -0.3138658757520788 1.3311310690449591 0.349610637451856
Ni 4.537613969168359 1.6063771606482091 8.858073270785816 -1.3362529636525566 -0.44324738637241085 0.9710041054428117
Ni 1.1458916522585016 1.8921260398946118 12.686357890366907 -2.003064197656679 -0.8283220210588315 -0.9289516563574517
Ni 5.917566008481434 5.890720338987588 10.89792101567108 -0.4283043919093333 -0.784738480040926 -2.131319822202684
Ni 6.4691293293816114 5.7944896624201565 5.676395985453376 3.8078744872013455 0.05213682990455537 1.4958181969451207
Ni 9.359876662300886 0.9309043846439684 10.897879642310041 -0.4928915317620995 -0.3704815673635942 -1.599729588318806
Ni 7.096951277110191 4.100824113011397 12.566047917673435 -0.7478611473986023 0.2923935648109158 -0.1082457570829813
Ni 8.367884510079431 5.590453171230329 7.466484973679874 6.360798920695684 -4.766368118881972 -2.9431739275134796
Ni 1.5800204490575789 8.082192049052631 9.125282182767414 2.2379061893053716 0.9295417245329668 -0.43159848927957284
Ni 8.417466722072795 7.3650036414748365 13.718502889478945 2.2743091534144377 0.17676334233840527 1.839883479098715
Ni 1.71495402427183 7.953624329616781 3.240965311704627 -3.3241795343368494 -0.7237038334261083 -0.22193351111714038
P 5.0094959579176255 3.12836206780876 7.343725509952026 -0.5347655462880662 0.38501241398991753 -0.251508910781412
P 2.9969734373928203 6.051568683072256 3.7480644934329836 0.05051960601610654 -0.03600290045717026 1.5036852583980231
P 8.753427816764779 7.735031937769693 2.3589125231101784 1.2565734482430424 1.3057923331698544 -0.46249286486558416
P 2.522082476931459 0.54213113488642 2.7614593408798402 -1.1937714253151568 0.07523047849922529 -0.015017556454754784
P 1.5240159630662145 8.234568257160433 13.132380588161698 0.309047628427829 2.321427447058479 0.27733692758810946
P 2.187484822546517 9.377686013621846 5.803848504748432 -0.24212541268398305 -1.6500823297397453 -1.2013921750852083
P 4.732125184282086 4.3616361391938145 11.870598390411866 -0.012255163218269216 -0.7711633124596525 -0.4278349084720825
P 8.339496742583137 2.4053719866485817 12.130912055654468 0.32137709652745944 -0.2696128194709744 0.8833670257491173
Ni 2.5031917764014633 3.8728380876006145 7.184385412938046 -0.20387433962258436 -0.15557359563466755 -0.15158864284499055
Ni 0.14664693790724015 0.017680529719537028 0.5787127084762125 0.7754745382404967 -0.3114832344525152 -1.7961258743967907
Ni 6.66587846720621 5.977388127332519 0.5431908571112734 -0.7682618225421414 -0.46223704010103617 -0.3477630427201559
Ni 1.4132011767317234 6.887216545740584 5.869770373442128 1.4756401793353489 -3.1213896860276953 1.2925300688433095
Ni 4.04883472364836 0.7146740355908761 13.56790197468128 -0.4672036400776921 -1.0155348408653349 -0.4220995486502021
Ni 4.788618628176667 5.02486992275911 2.4174295004811417 -0.6070086600241933 0.851034889275315 1.1471167015710955
Ni 6.558138473840016 3.887535033806878 1.6654028422992488 1.415232110560937 -1.6045969437134366 -0.9216857188236577
Ni 1.956405198094237 1.7160259704442637 0.8783150815458315 1.47609037949889 0.18250101615313086 2.993985096628076
Ni 4.516099821426881 5.250646234568823 6.347555588569062 -1.889436093215862 -1.061818297312907 0.9806992212433885
Ni 5.936710590999637 3.312877855016373 9.669263835256773 -1.6442518391008973 0.4290417842959901 -0.05254666374846434
Ni 5.786873202773917 8.848069380146761 3.671835016018042 1.6839280746445968 2.2228801482101845 0.7074336355111752
Ni 2.3865941225577902 5.61111164264118 1.7141622885900851 -1.2086717394657571 -0.17189727249535555 0.2723903822161115
Ni 3.802099043256586 7.952289098419539 2.888210393644514 1.1293570635948291 0.16632466350358452 -0.418174502564183
Ni 4.051862501433655 5.172554015603362 0.10908744851101683 0.6280587958262732 0.7883591075126487 -0.7051695220673468
Ni 3.563891917061281 1.4223879434902125 4.590110182204152 0.09565275090931914 -0.8568707792308016 0.4927236387256676
Ni 0.8230581369641906 0.5714977584928052 8.026142428485585 -0.8417277529417763 -0.033171601655962224 -0.13034953096055618
Ni 3.4568477484035087 8.758731129407346 7.329536327722178 1.2453456978480228 -1.8499130954205751 3.6981853128036177
Ni 9.199940412766447 5.217274857674371 11.591870758594904 -0.8963719226492176 0.6777973007019811 -0.15337555954208426
Ni 0.8866706198688548 3.3259762850005856 10.78456082732889 1.7857920965709506 -0.5336337466764681 -1.0486789317174714
Ni 2.8417481091951298 1.3482355968602766 7.109972602194282 0.12374231005668367 5.165668410249471 0.5156409096434732
Ni 8.923020984887723 2.4711368246310537 1.0261740708708498 -0.1642433554945236 -0.49955865936963 0.2647351796636989
Ni 5.5200714422771116 1.7844800768944205 11.660558060352749 0.3717992577337532 -0.8583861874340636 -1.4286833509698362
Ni 1.921717396075744 4.190284603226616 5.014443835776701 1.0139351004783828 0.6058668331102662 -0.46361180896137577
Ni 6.693899516275093 8.891859321594339 10.014973057992284 2.160627570027866 0.5112540934296872 0.05538567585915623
P 2.9751019742605314 6.26119998103926 7.6085121997053875 0.04189612601315366 0.7272241878745411 0.3630464512417877
P 2.0302096323699623 5.293956621149787 10.815966029270221 -0.23376212832095225 -0.19977805806602367 1.2300250083305526
P 3.469617072106711 3.52734231379593 1.5022507542475088 0.3049379771348297 0.03854726414557877 -1.9944173206149587
P 0.6087544701104989 4.34628098042553 2.7591339699285875 -0.4026928619888162 0.40124173136458635 -0.7929518690896538
P 4.780701271359217 8.902813859233685 9.569584124864353 -3.137333353841145 -0.5082037366391376 -1.2457689014283708
P 7.861784871141688 6.108927206334063 9.363411263758936 2.7091477468978633 2.7824367854000016 4.9562050065748835
P 0.6084037368453078 3.670306082266834 8.147787632376298 -0.2668550542201791 1.2957670877233685 1.3835316941338625
P 8.658993120188004 6.741196790374583 5.69619972083726 -0.09454871921186297 1.3682624266796177 -1.0127109982632947
