# total energy = -340860.3114856414 ev
CRYSTAL
PRIMVEC
9.37273040391714 0.00000000000000 0.00000000000000

0.00000000000000 9.37273040391714 0.00000000000000

0.00000000000000 0.00000000000000 13.71793835624280

PRIMCOORD
 96 1
Ni 6.310884473040583 6.474363640542074 4.89711209608607 -1.3697500669687377 0.7699142705438998 -0.7144275503305051
Ni 6.163067138407743 4.590116740033977 11.495125485353256 -0.9897929560145406 1.682297481019709 0.8962639363164435
Ni 1.0864025790772451 4.622696351674568 11.974087016484674 2.3772975187532217 1.5610679100825502 -0.6989058005458222
Ni 3.743074955570485 1.2080418770840304 2.838364634138573 -2.203028917812212 -0.2704970218481406 0.06345791134432942
Ni 1.6142091585699327 5.95396151824043 7.564180705384758 -0.6318442310106344 0.9543724104234016 -2.898025098890983
Ni 8.586189813272604 5.150662267587823 10.545733482502177 -0.5042995164887251 0.5651467296830848 0.4179978677770027
Ni 4.5720273699343394 8.98154096362121 1.022632394474181 -0.4212577694751971 0.6029563443316907 -3.1821584805756356
Ni 1.393696925236165 5.458790786772063 9.620952395717227 0.7243995739415524 0.3202869487870742 2.698322374147585
Ni 7.683539618031315 2.4080700694866155 7.619876282557337 -0.8616208923212774 -0.4704326885379511 -0.14635927612525115
Ni 3.5346441720079262 7.622073250615034 6.890218576398435 0.8853904839370494 -0.4230536850333553 -0.6190072271469662
Ni 8.932399736972298 1.4428662700769415 9.620143529064586 -1.0942499354790511 -0.05471436082374447 -0.27966943237602804
Ni 0.26383580608586843 7.570335777583947 0.9209073372190538 0.9628801907840965 0.5679176075600025 -0.1616578541555345
Ni 7.550999834311639 2.5706400821178135 2.2379578205242368 2.0949384553601726 0.10329329817371244 -0.11486943304708604
Ni 5.090273764193022 2.973208235045031 6.139984914705993 0.5794487481280537 0.0873930820036882 0.014193003670930394
Ni 3.5548236610361745 0.8796748206686261 7.486263321181491 2.0088337531506046 -0.28489031445533514 -2.468521544467226
Ni 9.201181533007173 3.978949094393012 6.573540252341195 1.5883601701396 -0.33826975851774 -0.8300695998775575
Ni 5.343065681787491 2.8064954754790974 10.32431303157118 -0.7201282002597081 -2.306126555035351 -0.43904877491003097
Ni 6.392033574762169 4.130777957731887 8.502419158796165 0.3594448499334584 0.7929613821713505 0.7050368531442245
Ni 5.369262463874789 8.567116306457702 2.892413422540941 1.6472037226403695 0.4184966617902921 4.37769599665228
Ni 6.319582367057404 4.054699503276572 4.051113496540758 0.893569677313732 0.31160279074951497 0.37455496610201944
Ni 5.335895542861986 2.6559131853128926 1.8762435258303347 -1.0711724848342972 1.8994158301363933 -1.4173694686189138
Ni 7.805984970871556 8.112698207731938 4.567799331150948 0.6654398075778927 0.06839648629652736 -0.5034587657549845
Ni 7.791935247669817 7.497594015229912 2.3220218414691325 -1.4309875736229807 -0.14263683296834143 0.42864274908535854
Ni 8.945043550580802 0.22977436573400697 2.2535418597287276 -0.06746600406245801 0.5943130668343959 -0.41852751502822755
P 4.40968230283806 3.1901213398201147 4.025749012932654 -2.444376057569274 -0.9347111845490483 -0.1177819787081907
P 6.34320164822377 2.6734683097671 12.665128135209628 0.7313580075372565 0.5947550394678208 -0.0006453468934827596
P 5.312313752618106 5.493591735569966 7.110789857935118 -2.965032418149468 -1.1799340052114324 -0.7175866647847771
P 5.539743061150596 8.878693990510682 7.108485103475274 -0.0007618178666890105 -0.5390184080271491 -0.5779644502730433
P 1.3915318244625814 5.117079773770723 5.390738201548001 0.22230452130331388 -0.0026117265912342117 -0.16702657466661558
P 7.709820754694208 2.7199476809194847 5.24549274419772 -0.2592643863571148 -0.4694433280414883 0.3124998486424876
P 6.8822555044623455 9.320655730240373 1.3486600173264405 -0.7314446537137919 -0.668891513571919 0.1288577769063781
P 2.602319911618733 6.914994452523504 1.8159534361070608 0.03817034042213426 -1.7245167947002367 0.47460944562345997
Ni 3.047693325294679 4.088731888163506 7.093642447262949 -0.172368041484187 -0.1313265501618448 -0.2606036739938286
Ni 1.0961783371155467 2.948811017237075 13.535174349710712 -0.856907288895692 -3.2037014968537343 -0.7534738655996894
Ni 4.895752112872879 7.685507891461845 12.628706641287254 0.25529691706893454 -0.8707467658819456 0.020424072182306758
Ni 2.7930737252290037 1.6424960595858427 11.902795215557797 -0.16524042930047025 0.6386921071704033 -0.7119554346409287
Ni 4.496998661308641 7.753497679390742 9.128177334195733 0.5337167933085776 0.6170760715625243 1.126005630624093
Ni 3.370574522477276 4.72805521659168 2.964089505423302 0.5183742494142363 -0.12113778255430108 -1.4098057973390432
Ni 8.37164800934478 4.014996616363585 12.854599759270867 -1.414034747818726 0.13142348075102528 1.0238037657423467
Ni 1.8046630448003131 9.11690193925798 5.621089927488297 1.7062617051447904 0.38991730749070264 -0.8917017708670578
Ni 4.078703066398423 5.523846910016407 4.940076693255363 -0.06892844754059742 -2.1719928744420143 2.167849541697602
Ni 2.8111162316755336 1.9520117429020756 5.352931418039759 -0.7148103875912205 1.5872450826985502 -0.16497354879232878
Ni 6.710912615969354 8.685643857898125 10.932346436092288 -0.3095137694309702 -1.1846558361671338 0.235193204340524
Ni 3.496787713027389 3.831787850903681 11.409498092940682 -1.0855488081606273 0.2660760099623095 0.7716741906578001
Ni 7.714254056278213 3.114858312928877 10.813467407253558 0.34302192849074475 -1.6237696599871454 -1.466864747135564
Ni 1.7924878677228888 8.87434504350227 7.858595982396574 -0.9354856008212277 -0.9122615972962805 0.1908100502394585
Ni 6.550601431417955 6.875675847566001 8.028519839473459 -1.2728133071406724 0.6154305655393013 1.3219218917418654
Ni 2.871082962192363 8.700068490324727 11.394449236654683 1.2171358110727104 -0.7469401782462297 -1.0503105537836233
Ni 7.454001445108972 7.640228229829022 13.26897755278127 -0.06062327010901172 0.24648523231457548 0.3409884430004837
Ni 6.110345528661389 5.2800434410880275 0.16163180229597868 0.05067695752957724 -0.08954123869494257 0.27598658420780214
Ni 2.654254211992874 3.091548331873023 1.4416318814540803 0.8539664610998132 -1.6436170337303757 1.3677281514427024
Ni 4.383157475179005 4.86413789248631 9.652257315993284 0.2037624966350684 1.729124725785893 -1.4544411766602308
Ni 5.196776102245965 0.7564056048067492 12.52043098260071 0.0071384108169941585 0.45991224862260144 0.8258473342660938
Ni 8.387656633246428 7.279884228351994 9.62445123605826 0.23463296096167977 0.07499882210439342 0.4394149000001981
Ni 5.783330957274678 1.5980224527864748 3.710935862269108 2.8145079549029335 -1.3297755834583294 2.5981475669981964
Ni 0.7195810834676478 3.3747172694120118 8.774034331297939 -0.4563214459475496 0.34380662917556915 1.1233828482892654
P 0.6577294968228198 2.7639151602652876 11.171080195027459 -0.06624935804653752 -1.6534317058279526 -1.0130750664709327
P -0.07553108698701494 8.342967453642764 6.107693045895484 0.005013136943875237 -0.05960228504366509 -0.19537504390232158
P 9.410034089447704 6.276167878818273 12.737078839099203 -0.7779818780433827 1.0779915646386595 0.7149960212394654
P 1.4248987454753843 0.581210524028291 3.4357946685074974 2.0426892682474693 0.731310699239089 -0.5171745726791803
P 6.401575014534932 6.386475545503576 10.335753386567873 0.03918258373673252 1.339482783443764 -0.3367471512256265
P 4.742564203593876 0.5571854036260108 10.500286048991228 -0.915211938173856 -0.8210285727212118 -0.6760978015123711
P 6.874260565242143 4.92541680529016 2.2380684187455713 -1.4293999174208867 0.06638819761724696 -0.10813545675736215
P 2.331119951083494 7.4474686518657345 9.38212397220278 -0.02832687196915121 -0.4166621796847147 0.5963900039680825
Ni 9.34158503771835 1.18737500606346 4.819893917587171 -0.42715767989939984 1.1737479310053787 -2.022344900263162
Ni 8.595140771016208 5.6135626875261115 4.489030903007241 0.20316291537785658 -0.07612059441366245 -0.5494699423777764
Ni 3.1543924906906753 6.179225725999335 11.437029551868491 -0.8412374435689189 0.649278624436998 -1.9095431483783825
Ni 1.454179155937181 3.2505941977905093 3.6539515346360636 0.4782958933361118 -1.0561276746860326 1.5343490060304674
Ni 1.2651686702225229 5.555986003317783 3.226719978351236 -0.5223435184746293 1.1290919828589008 -0.6891096403910068
Ni 4.357916711615108 0.31482720975947875 5.152787065619733 1.1180660640620421 -1.7285467417952358 0.35478061168856967
Ni 0.043356377309276266 0.9347283657936265 6.998452995070245 1.1314288585221934 1.742154819496974 2.01101970505833
Ni 7.995848375072777 1.0955222459720366 11.916046382110578 -0.4533171119035871 -0.5222568722980941 -0.25652333327686794
Ni 8.076406994765204 8.748338053025833 7.961631347392597 0.718778113989717 -0.3278177099464806 -0.49255548857891934
Ni 1.3392319875941996 0.21058557433245884 13.066555626820202 -1.6162301570769906 -0.11499387444009228 0.18958414825215736
Ni 4.324137390454955 3.1673174862178253 13.575176226730528 0.44239403723318 0.41412424375420936 -1.221303826407471
Ni 2.8885349866097334 1.6223446887494588 9.400958474386833 -0.0604162963045282 1.2964736268720898 2.2585727165157876
Ni 1.5066195837648866 4.90236926069171 0.7724498450847593 0.4542581356606177 3.561346574574293 -0.3837268624092746
Ni 6.374131659274964 0.46749868158123287 8.836739773702392 -0.4766017934631404 0.7942039963291999 1.2299031380407077
Ni 8.388059660663156 5.651091100934893 1.1057150905229982 1.2631122778028245 -1.0690623804698298 -1.0293406364001756
Ni 2.2681914376902474 7.329325382380796 13.357719503579393 0.37849492458637396 -0.8820611624535002 0.05996326792750963
Ni 0.8200408220888626 7.890377037388207 3.8975131871144058 -0.7408428070992403 -0.6823692363433796 -1.1179225965056425
Ni 4.972514776663568 6.514966309594731 2.108831585296938 -0.3177377000026593 -1.3741836772600593 -0.3253661630821945
Ni 2.2800104510040518 8.97468012480622 1.5673023909012043 -1.5768444561905166 0.023077193534437674 1.411923100792362
Ni 1.1946857359482876 0.0673215122355784 9.911128386668903 -0.019342923302986044 -1.078512470139136 1.6137140755233566
Ni 7.067601252503968 4.7847508641215795 6.2066269039715065 -0.5951337629634783 -2.08082592721819 0.44932187470126483
Ni 9.332793416395313 8.216501199365867 11.660481073525185 -0.4644862411465291 -0.28671991146490616 0.05776163229050051
Ni 8.349922019763973 6.564454327276641 6.713600715111622 1.7457142547134579 0.23180603303584596 -0.24337702570289696
Ni 7.381203446371208 0.5480104376205521 5.8914707113672105 -2.406387751250959 0.4818229326527637 0.5417571471145508
P 4.130927921421832 5.55233063837537 13.11196275758948 0.06519186331630063 -0.4519580267725313 0.7008117593192833
P 0.28174428248450956 3.6747571220698334 1.9925441164750715 -0.9141649849665805 0.04690772029513212 -0.7894222586698405
P 2.979244273565325 1.1682077719423416 0.307151880653472 1.8702854884293403 1.6107894456773935 0.3852875220281751
P 5.292593527390315 2.1835650529080572 8.212628387073034 -0.18728249670217423 0.9118653902991263 -0.46687813841747333
P 8.813131739812773 1.099515029216827 0.07834946708492219 1.305055969224462 -0.07264060628486199 1.777919121580777
P 1.7188838141516694 2.207981016177257 7.39300840058908 1.6595223921067224 -0.4472853038872103 -0.5032265951395205
P 8.722750498428937 5.175884285690478 8.380947632667505 0.08139187011493079 0.14801815188491282 0.042565641276352505
P 4.242810206851559 7.4864310930596165 4.774432424980289 0.5961992281135152 2.6167651820993836 -1.1680035723224336
