# total energy = -381163.0996755984 ev
CRYSTAL
PRIMVEC
9.33833443311618 0.00000000000000 0.00000000000000

0.00000000000000 9.33833443311618 0.00000000000000

0.00000000000000 0.00000000000000 13.66759637618084

PRIMCOORD
 96 1
Ni 9.422192877205296 1.0133026909408973 1.4363143084445114 1.0115655718049417 0.5844785972424772 -0.3400067958135048
Ni 0.2865794823605173 7.279054417448176 3.6959232792349193 0.6924363907713945 -0.3693384548980865 0.3374981704590381
Ni 5.82144310304145 0.09863709338616093 4.292582163057905 -0.6691229128564347 -0.05491670664253768 -2.414312148304358
Ni 6.008658035747959 5.7856959580693585 6.042950268184353 1.640796019341813 0.008208246842405217 0.28186849690987587
Ni 3.811730768509321 2.3356949198732493 0.6618479302235042 0.33745934680130274 1.0329131842427821 -1.0278344841682943
Ni 0.7803271170361809 4.942509709123396 2.6962069313504213 -0.10198846331935985 0.8589173773471851 -0.6955476827068667
Ni 8.394920037654614 2.43508281536384 13.557381145371187 0.96356667532816 -0.010931816421155366 -1.2265252227074102
Ni 2.3190820225625512 3.2760091873288086 3.690537861652525 -0.1784561566597959 -1.5448663606220232 -0.7339867034093553
Ni 5.738621413188398 8.402344013687221 11.721658794039431 0.17301878769430848 -0.06852041346890135 0.1854079053872807
Ni 3.572174470189287 0.5309328831811161 12.767885651393103 0.8530953713487696 0.21116470263641052 -0.7428169001064756
Ni 2.6074964876782976 5.726948494898138 9.380386086890363 -1.0993088380591969 1.8265474241114414 -0.13046111683775594
Ni 6.479898416293075 5.424498512830183 1.3962267055353685 -2.4297071427031898 -0.49716316255425996 -0.22927709596640516
Ni 4.997363086752986 6.279740551786326 3.590286170208455 0.6454376534243529 -0.4152429307396849 0.7531028554135158
Ni 9.266401440536168 7.632043466545642 9.891513296150029 0.007898943132102524 -1.3394701850382738 1.635367392127074
Ni 8.452341457308062 6.0910595005425625 0.966018967364175 2.0487545006049426 0.6744209280305804 1.344377135421588
Ni 0.7029786251110647 7.181879707265419 7.680943655847199 0.2297391232044882 -0.6696733860432661 -1.417993732466474
Ni 4.352541742064387 2.2731747695106166 3.9414346335499117 2.4765526423018187 1.4689455409239929 1.2924696479190192
Ni 4.79539358532759 4.418937301299386 13.290329988393541 0.8004062684851699 1.0782476465135236 0.9033187862806958
Ni 8.63380397588113 9.008980908064721 8.164981290172292 -0.9830710639096747 0.19961633567717882 -0.6876222572122028
Ni 4.9113009947825566 1.0636269762738666 2.15145704824749 0.15755925860612865 -1.6459832199697073 -0.924197429501918
Ni 8.169511316302376 9.080269754646997 12.156151893973343 -1.4716976497478331 -0.30211027787804745 0.225039917956606
Ni 0.2522601687536894 4.771590170350091 13.28241668362621 0.48206153102613103 -2.652216323818142 -0.86746835224099
Ni 2.212662361093908 9.3142790821955 6.5130065478981045 0.34856445557552873 1.239483325529975 0.1767162911505537
Ni 0.9776676059843913 2.77143095214671 6.519703067662861 -0.7109210798391434 -0.9244779368568142 -0.35766590365616463
P 5.5488384384580325 4.1222397333648715 4.632222062798628 -1.220298525071408 0.36156266760740957 0.7516386121631636
Ni 0.419793627389355 6.949084363219104 12.714732784500038 -1.3767131285501324 1.4348342010625805 0.21061422944957922
P 1.3065917667346563 5.958529855442265 11.189743518055005 0.8445312838288423 -0.95749655787468 -1.590547664709222
Ni 5.839867637270797 4.1881590375336275 10.705718957398398 -0.522608599210558 -0.3025463369742016 -0.8068941902023588
P 2.778892281517844 1.2288034392483629 10.709641991777389 -0.6264174035681083 0.059612826566626365 0.28520116082753466
P 9.14008178796629 8.627734058370194 0.370684259392036 0.21284877520705278 -0.7798621257852311 -0.0029264296181756052
P 3.090633906544846 6.953986988901013 7.59310167729587 -0.23241975536044487 -0.17789359928810652 -0.6718451968836042
Ni 2.6696617813249066 1.7303280390057294 8.230571884961995 0.4840711052569921 -0.5048944697602465 0.9618005845666726
Ni 1.638803021275458 3.1650137418903834 1.0092862732155847 -0.838324126576866 0.09852107359604968 0.3544522818148734
Ni 2.862246256444934 0.6867299228510226 4.200804076459101 -0.8148106168359579 -1.6687392827193004 -0.16474600616255497
Ni 9.14558206706466 0.5238936465353576 10.358616794453075 0.4055807250595725 1.280348439175453 -0.8174778792554761
Ni 7.5183025507253465 2.7694605635393144 9.133234921013955 -1.063822215116813 0.6090848258269317 1.1281496735502894
Ni 1.4918830025069287 6.872024425834123 1.4805285214276267 -0.6673136275618379 -0.667795966514895 1.1694999543623021
Ni 7.045175826584525 7.614767547476056 13.670876462990655 -0.1333194122221575 1.6900403581899215 -0.3924323606030725
Ni 5.0378260907143435 0.7825916631844912 10.08359723653377 -1.0778874349606276 0.38792753075418357 0.455850419848402
Ni 9.319545902928065 3.6065488799704455 4.395717532236401 -1.1104609980212747 0.9270657521886485 0.9522026564655924
Ni 2.1900635912839648 3.4898570504063735 9.708243809825628 0.5825279012740097 -0.2807793776107551 0.2850517797338639
Ni 6.620571089192657 3.0154603127555712 1.1549717641457362 -1.270967255070869 -0.7081214056068191 0.3509807783265052
Ni 2.49242952834023 5.504341273935562 13.421347757116884 -1.456143761173634 -1.4697585237435913 -0.14551621139866552
Ni 2.342343814131382 0.7388032782606043 1.4386918484418714 0.5077116274940676 0.25416820278113 0.32228109639896757
Ni 2.0346830413386545 8.446364923143449 11.30215932419099 -0.5339677329771191 -0.22539473019286344 -1.2105478734425474
Ni 7.185643056122199 4.080497377558902 3.285785489855267 -0.6070724233825932 -0.8234644358562141 0.023661862393314085
Ni 5.863372225540066 3.384660710774549 6.954688297831892 -0.43350907603872435 0.06302288068943986 0.21675505223999442
Ni 3.676782494739282 5.05832373523204 11.354656639992875 -0.6399455199615302 -0.2785540878246622 -0.949040713797843
Ni 3.8564240380590684 5.568215482819865 5.802646903093743 -1.8350593182371946 -1.1702800270614362 0.5245628947234514
Ni 0.22951945625733633 9.284293689691479 5.364545470657943 -0.11653396523370255 -0.29366317555195875 -0.8479331104215396
Ni 6.2177620248323615 7.6962071638035425 2.090171425723235 -1.8591757516694236 -1.0669067675794077 1.567024127665985
Ni 4.608440125990785 3.8421457244064228 2.187485277092012 0.08298621118524417 0.7328011677416864 0.7423096214527538
Ni 2.023654468138017 7.261778498378591 5.581340512145433 -0.46759084821378183 -1.194103354733279 -0.8502087938295938
Ni 0.8830077093180878 0.8300117264468438 12.450142278697982 0.8570201603244724 0.9187554325507402 1.2728667860864271
Ni 1.6406613498672675 4.862853714710661 7.254418956854948 -0.5509966634349478 0.6149356281807539 -0.7709373124917756
Ni 0.5507749766076317 2.7976529957939507 11.040780271668948 -1.8114972146465382 -0.33426809355751463 0.6448316444092378
P 9.163605052904822 5.572791266789647 5.862483216083079 0.4239296598804054 0.057748005443745705 -0.05810564589348058
Ni 8.249727610793045 3.996349644188075 7.228969193481791 1.7714404558349688 -1.5860243229175717 -2.36400980050538
P 7.762070437964506 8.376430135082842 3.7910902474717516 0.0726110385985072 1.1870891281989748 0.3540581317002483
Ni 7.148429792612849 0.2729819333025591 1.7649788634920005 0.7503882846958302 0.8928762507911332 -0.47178431746983907
P 4.596524411000087 2.9728494918288058 9.291546774200315 2.3913352277932107 -2.612017897222385 2.3483777503950787
P 4.347741838063432 8.343633903854528 0.8055079363719299 0.2413463684261134 0.22805710751637495 -0.1829908113053558
P 6.786167777225602 8.349376979653336 9.859311916837786 0.7642213339241806 0.12702355191111672 -0.548205730953372
Ni 5.079559108185681 5.811946016720496 9.112405765616815 -2.1383587313273367 0.3219316834793488 1.2916389244876076
Ni 6.057310759181762 0.9602516118953234 8.003839921592373 -0.825671727920178 -0.07195694995427607 -0.46751705755305295
Ni 3.915320914584405 7.820089511034415 10.166463750393058 0.6251897018085942 -0.4420613364841096 -0.4813303092870614
Ni 3.7731447698090372 4.158743283442172 8.050022655515958 -0.8055258490999223 1.8007862559869372 -3.278084025530367
Ni 7.837570873465908 7.364929742725961 6.224783518642319 0.6703621845801745 -1.1117964290032467 -0.08819500907969327
Ni 4.037167504865455 8.895734923979933 7.91780304312545 0.18124657492073945 0.3461054525120749 0.003721928936277461
Ni 7.861224875089292 4.027138133470465 11.722506714824036 0.7423828978928505 0.2411314242018299 0.6519924238237352
Ni 1.7675506408497108 8.827126179437101 8.864680292160525 0.47955753365735476 0.8342800384144793 0.714913231717672
Ni 3.211658723378263 2.543444850435982 6.148313764006094 1.1132781557550957 0.417212652871546 -0.7434344790858164
Ni 9.241505440406701 5.3656203129741105 8.935778636716305 0.46577924892633976 -0.6670742578575221 1.3838142583712878
Ni 8.200085023888224 1.616222928134779 3.22202614248694 0.8022682613945732 0.8729057212064774 1.3165529141204682
Ni 4.9671722508870575 2.4806445500343832 12.140270188264347 -1.7795571714048322 -0.11927424698300103 -0.2854510720548116
Ni 6.85598116693599 2.3227239730691127 4.965834067534262 -0.3675620797239541 0.6778548934127939 0.5485903679863003
Ni 6.864871261505852 1.8339928917578712 11.319408162090141 2.1165205524063224 -0.4858377102391116 -0.30321045292076165
Ni 6.141533199229647 0.9414068526075274 13.433497864306851 -0.3364296199852077 -0.5523549772350551 0.20087694755715726
Ni 0.34783335454702285 2.190343741322931 8.673278984038399 0.3623545673810856 -0.31999718546079725 0.10351826970032493
Ni 7.40273132131714 6.137041460271555 10.614706614239434 -0.4069616645674991 0.9340013029662172 -0.692965266691671
Ni 3.174183986499212 8.17434857364186 2.6445846175035754 0.40718766453537614 -0.629338176759329 0.6460719445742422
Ni 2.4683646399930295 3.15193073507066 12.355466506862804 0.5334583974408683 -0.5689699600839168 0.17694846176601783
Ni 7.281743857822253 0.21895032912060322 5.943067440958256 0.24972996450411827 -0.33656794533528483 0.6694296454635762
Ni 2.181182835048735 8.22065737508298 13.538301060050658 -0.05112252970742808 0.578965637844048 1.0134751301228286
Ni 2.9611672352039133 5.281892804661733 3.5872521452864508 -0.4534279264498385 2.2665289952483865 -0.3889873394772656
Ni 6.976464360360739 5.263664375459664 8.320737241169818 -0.14473665292016363 0.9428042459698279 0.5954746912426647
Ni 4.415342042465986 7.8660061024209815 5.486528400624625 -0.13226140327128835 0.46387663258698825 0.34417969624427175
Ni 3.9226608456053205 6.038111143177943 1.4291387321131226 0.5269316520659441 0.9433282367940979 0.29868454002595013
P 6.7480113419184 5.873401596935056 12.63860387907789 -0.7908340514157025 -2.147820390960869 0.11804654522348701
Ni 7.390161922902188 6.254489694940837 3.949156502457284 0.3976840959203151 0.4087526950296509 0.1993689955530631
P 7.975096527594437 1.5670659346308355 7.3670532800213255 1.2198956332060344 2.203475775541644 -0.4245855482968494
Ni 5.953533846414034 7.581989992917006 7.985812266584896 1.335001350633643 0.5057118234552193 -0.5260806169195584
P 4.561963234526285 0.8148770875084242 5.8546651623289945 -0.4526283133666785 -0.3120437349416755 1.1812056728350042
P 8.636157236208446 3.7112689645360266 1.8084282668687384 0.9448325892537663 -0.8310178227234398 -1.7247908742972295
P 1.0557267451750185 1.8045677993317835 4.520708339788116 -0.8075012276587382 -1.3442069283923108 0.6051163280974869
Ni 3.92308107066377 6.958319976170358 12.626208173687095 1.968584418712255 1.6697217012372276 -0.07445966177147177
