# total energy = -381172.00088008377 ev
CRYSTAL
PRIMVEC
9.19454236460561 0.00000000000000 0.00000000000000
0.00000000000000 9.19454236460561 0.00000000000000
0.00000000000000 0.00000000000000 13.45714214918328
PRIMCOORD
 96 1
Ni 0.3215570524099042 4.6000571302057125 0.6039968437705098 -1.3804512554363257 0.5843711251303355 0.6954394392637765
Ni 3.8255916320288925 3.0762364290583615 4.876007413563169 1.2202992964023565 -1.3986574940317074 0.43438710776830347
Ni 9.012444456143553 4.982274256432522 4.81121071513502 -0.9711542578674308 -0.7485810562837624 -0.37491286366207044
Ni 2.7338132821991157 3.9023568662571253 8.143468256968768 -0.33044871981142443 0.9395533431326981 1.151804593965068
Ni 7.161150934026896 8.803323784531752 12.781553094953203 0.7339872176299875 0.9302932579870107 1.0977759463544383
Ni 8.272109099235772 4.298218693357655 7.485212579777771 -0.03696706414265246 0.042101042935108135 -0.824803980603244
Ni 3.7281478720156205 2.4482399907995855 11.500971253781612 0.3058185799675701 0.5156558220418087 -0.2612191960906404
Ni 1.6191313273313077 3.996766427289044 5.933926861123756 0.27484835683830083 0.5559614636393909 1.4072467783626152
Ni 8.008464791383293 1.095805559386845 7.373074102152383 0.2581534126811232 0.6411796494789472 1.253523348562809
Ni 1.361527833814432 2.6405714280479 10.240468454232687 1.4418322296469686 -2.404736845911097 0.8596383146736097
Ni 6.356067609765514 2.95015166956959 8.280381429004024 0.2933986090366625 0.15065558950775987 1.2564996575823135
Ni 3.7147422292434604 6.049889348919886 1.4008482942500577 -1.4409104891636475 -0.4210597945317781 -0.10935133144233426
Ni 6.3628255984058 2.7711155405850234 5.971351406923153 -1.1797517139972973 -0.7129018577145981 -0.5102454496595148
Ni 4.518427983064947 1.615214452282652 9.341826983562639 -0.1737050151280557 -0.04252116119166225 0.37523373733659887
Ni 3.323588007835211 7.532757558361338 11.05965804539465 -0.1415981072911819 -0.2997309790125935 2.302929131143976
Ni 2.423773313559039 0.6695668032117865 12.2858596851865 0.07771159304986616 0.38283983181863096 0.9330520516790706
Ni 6.57528388889709 8.798625373381839 3.0969866722738693 0.35918156896974274 -0.568806437922859 -0.3665166691785753
Ni 6.154118681200548 2.9821946497211522 11.267598137766434 -0.10768782769698229 -0.34148800834472154 -0.11008126762982332
Ni 1.073122623365639 5.64478700673978 2.868564817323716 -0.7950385764153534 0.8559505814093774 -1.5738815169074507
Ni 3.791792494285093 8.03484393343633 13.485536909155902 1.0708714086541107 0.4333710077989633 -0.46698278231613766
Ni 0.8092502908624405 0.8203085669681173 5.985763852084581 1.138288304646188 -0.4792785689643552 0.01030626702201451
Ni 6.546780807557107 4.243189357286752 3.955888411376324 0.18816232820396628 1.896897177479598 0.43498874590804437
Ni 5.11698349666223 5.056841995034865 11.518775565622498 -2.58497040618629 -0.4638663481743431 -0.12892719669173278
Ni 1.6181659003826956 3.3471260362966166 12.631263702681364 1.5711216947741264 0.9978582495211783 -1.5858885686706556
P 6.9502373266533874 8.806606236157034 8.699598313172842 -0.40077404769954844 -1.4862678342525242 -0.9114344734092948
Ni 7.318193717667837 1.1206400183221017 1.462186005839465 1.8535020983234143 -1.113448877005005 -0.9124140637137448
P 8.551338156401563 2.267181062494117 9.407510955329274 -0.8365359243281916 0.10916775467661845 0.08242133982070966
Ni 0.9536027671274312 2.5586756391784693 7.948622112382879 -0.9736847375987683 -1.5154621964282933 -1.9818703371878836
P 7.073867143329974 2.484668767660558 13.280194275003003 0.4449299162811563 -0.28706109685440884 -1.8175873867046761
P 4.823677595131433 5.1626160104333065 4.833616895430956 -1.0855038138553048 0.8142151493438041 -1.78034495741345
P 8.12380113084418 7.48554358330301 11.401980971742088 0.5719712088040859 -0.7767356643411074 -0.7726362974607532
Ni 6.709101258517127 3.3438343901289667 1.7547977194214976 1.3639655990764767 1.8081570945297119 0.1919289943352501
Ni 7.833170841142396 5.834589944836966 2.3257171970240753 -0.21011337855376072 -0.8222611595767323 0.2403043003148442
Ni 7.335810460844421 7.599997246696596 6.756454071165208 -0.44841196129248584 0.7178694861325184 0.3861578404482704
Ni 4.806152797378528 7.0615740401843095 7.001549309245015 0.290386561683216 0.037577186922825606 -0.466107578800036
Ni 3.4571939029807908 0.18992614496491378 5.966695290668133 0.5490284839649835 0.10410242433856909 0.23188496590289742
Ni 5.735629085333018 0.38911487191108546 7.0724548616222895 -0.5935970146039777 0.5029753983606629 0.4787121549379239
Ni 7.713034950565549 0.3183187345879874 5.126121952321523 -0.07444809180724599 -0.2704900798696051 0.3605936188259209
Ni 4.665375159186113 0.06327592112052634 11.224158522350063 0.8955460843138126 1.1830530104563883 0.7817606283595246
Ni 5.360317060424379 0.9147245641796938 13.35715535298367 -0.9533236574439131 0.48628225397569796 -0.10686430335442239
Ni 1.5626584481086696 2.354584382241821 4.349105888091894 -1.2686666319621507 1.0631987226002013 -0.08809447894608699
Ni 4.376923976025481 4.644595493435028 6.776343705215096 -1.5057909918871164 -0.39917764974670605 0.4563214459475496
Ni 9.045333334192946 1.1955387604496837 11.959133461057453 -0.09108235792981732 -0.8496860885569044 -0.667113852846206
Ni 7.299243765847932 4.662285792950554 12.551879862786802 -0.2568300658840093 -0.4525866614954657 1.464575436880755
Ni 5.783449900187616 5.483450371813107 8.416742928497214 0.9363584903444843 0.4364853850582289 1.6883822537612083
Ni 4.877870227846873 8.100465382314866 9.220524305559326 1.0773061085358608 0.9730309060648532 -0.5344752687411569
Ni 6.446339626731952 5.2282098756847395 6.2754829626377235 2.38365534265045 0.8626850719197335 -1.2128487536615824
Ni 5.953751213922832 5.502216432785657 0.8258639094667037 -0.013168419061157968 -0.1393843874693148 -1.2096017074791943
Ni 2.4820299340010177 4.61940244734743 10.476883124863113 0.6641393435989142 0.011063199792697076 2.3545329713631964
Ni 5.926231948616198 7.102747200907033 11.93273041319426 -0.2883985847189098 0.0822418768200519 -0.23862434150925999
Ni 5.1846737175735065 1.555633817739719 2.244570763357616 0.855255869335198 -0.0911908584832236 0.7324648674481901
Ni 2.1448292872066466 0.31357894799741914 1.4873910048321413 1.08397529302592 0.04213369594525647 -0.18756506093959954
Ni 0.3780051063681493 9.177550853440998 0.33140900455693395 -2.2716506327456685 -3.0606820837349935 -0.8493911830243048
Ni 0.5470476872532231 2.0673744623008337 0.6600780354882823 -0.7566417218047098 1.6654981500741834 1.657764014654719
Ni 0.4328772157645644 8.395545830522636 7.682359198864069 1.0893828371947367 0.38979749408338676 -1.2645981183197317
Ni 4.421535895593739 3.818235998134703 2.4620244487172966 1.5248138128465223 1.0732447939822936 0.805607095959819
P 4.5864951802133005 3.9558047410407777 9.387204808510127 0.04367121563570543 -0.5104583370012693 0.8798829238552589
Ni 8.74596822924181 3.3169495482457054 11.41360747056609 -1.3486258833956126 0.5940251032803319 -0.44795096249566724
P 1.2852499103316894 5.643665272570916 7.585777886924891 -0.06381760867659332 0.6149844791408183 -0.326262963864851
Ni 1.648480306569123 6.936417929474679 0.18283439443667857 -0.7372540613067174 -0.901417455492925 1.7025513461727388
P 0.20742060072800617 8.30745292009735 4.448083297772104 -0.5271604802472986 -0.10645164129703603 0.02851584805150573
P 2.377184567381718 0.7533226480022093 7.768552516836179 -0.034282318221637735 0.17460027324881544 0.1910285940081678
P 3.09939748128269 2.095105202081927 0.28603026015520683 0.5168650118585614 0.3179726988316008 0.8434768744223989
Ni 0.13938006775251877 5.59498936527612 11.382979530484922 0.7652032382214757 1.1645109857881428 1.1403786115163133
Ni 5.625680747699624 8.201485819309186 5.2453383886615965 -0.45323612215400655 0.518071887682469 -1.8599774216351128
Ni 7.340251424808037 2.1925029893833607 3.7260404829049354 0.15093763952455294 -1.4693065238078373 -0.9674233300700886
Ni 4.171159312377904 2.2992332371880466 7.151299901334104 -0.5737095316514313 -0.804195560324273 -0.43967818096391376
Ni 8.569892742899656 2.6611304247821583 5.5965294511227155 1.5575334145667306 0.8146478660058486 0.2747678813093526
Ni 0.5001113873744014 4.54157064620454 9.299019952661167 -0.7375949895859039 1.1666776544221584 -0.18459260857483692
Ni 3.716663888598317 6.197084777684982 9.53756132094125 1.0811167405312028 -2.3922903926176287 -2.4255926063141837
Ni 2.7194422124783437 4.8042127489389355 3.96579277241485 1.1346825895728008 0.44160830810709106 0.476024837913748
Ni 1.2721568820000326 7.309633598723474 9.665242252985061 0.10324316166206735 -1.9316057846053765 -0.6670871133733285
Ni 7.600797171882588 6.886739817061798 4.619594613282916 0.37278321891357735 0.23390688142893262 -1.2174304594949936
Ni 6.843718553323159 1.021807882411301 10.259281407371311 -0.5165143133873621 0.5493077057682991 0.4517297128118091
Ni 2.810118789308962 7.545078245134105 7.9035541435131815 -1.2032305138455277 0.7360690398596808 -0.9947418153793838
Ni 2.1716129891238634 0.10314989300668956 3.975952741731199 -0.2952644586008076 -0.9949837561868605 0.010120633373769668
Ni 2.35678187786771 0.2740240267314164 9.973330220280468 0.4678399881101104 0.5117315472867381 -1.3049652092828687
Ni 3.1075070676510337 1.894232034973986 2.8270762837977785 -0.4011674264832252 0.6691805055672475 -0.6610123679341583
Ni 1.390748089459099 6.707041681026754 5.5002570758070926 -0.4685673531944382 0.07052150305933015 0.49927378113935955
Ni 1.2615187964805612 8.043790223160137 11.75574190879499 -2.7942690021482393 0.24704239036962614 0.10025014047201444
Ni 3.48096179500139 7.425282552624865 4.564555163215408 0.40779135955764606 -1.686751660136321 -0.14167935415107857
Ni 8.784383027254215 9.036699658909642 9.787272219289662 1.021095622782564 -0.2290043019209927 0.9508913938533365
Ni 7.193819143059464 5.254846464924072 10.340898601607 0.4449787672412207 0.36454051928881087 -0.924073502329544
Ni 0.002840194137393828 7.732499796758047 2.1755758368843576 0.2778305793950764 0.4612119412706315 0.5569459390398473
Ni 8.241454494981737 6.597516292342277 0.017811667474779296 0.1371369861960348 1.0533161733791665 0.21514348477850045
Ni 5.437302963669437 6.292533322004455 2.9312752740886263 0.12280565717502721 0.16092997485057445 2.529502969246605
Ni 8.322017075207846 6.803685515854034 8.54434294856819 -0.3772448542293567 -2.106198601655024 1.9483074136307734
Ni 9.273891268370141 0.8817437407066228 2.978200540516607 -0.09856401101884314 0.0296792722319876 -0.03779213114710911
P 8.812426381475811 3.8401833707664905 2.822918511739088 -0.07341553677767355 -0.13649883839140362 -0.112923879284941
Ni 4.2165527680474195 8.60026231634029 2.477190846352878 0.46553859367044337 -0.4255581966227639 -0.23270180537723795
P 5.3516282178868675 1.2036483468180275 4.615463505397092 -0.20103841283568605 -0.07626560463195897 0.07638053294326845
Ni 2.412372081023045 3.896104577447064 1.4415157551425564 -0.4741348199798867 -0.07219631965859179 -0.24396760809904436
P 6.0420831824496775 7.570179345798026 1.2944251441604537 0.023960881690971637 1.7583843939819588 -1.1549804205898884
P 2.3272673968672755 7.544682879812292 2.476746749956516 -0.27120973164444906 -1.010852347788001 -0.018359990564426446
P 3.061074628693964 5.5839467198924675 12.707485539455664 0.35813281599025415 -0.3226752465135927 -0.7516357839496862
Ni 5.012965638856026 3.3478432106013 0.12005681751248357 -1.149433008409098 0.3803859709614997 -0.5721972087719629
