# total energy = -340868.42019762 ev
CRYSTAL
PRIMVEC
9.21451387077586 0.00000000000000 0.00000000000000

0.00000000000000 9.21451387077586 0.00000000000000

0.00000000000000 0.00000000000000 13.48637246721395

PRIMCOORD
 96 1
Ni 7.658919783721163 5.099929444809549 3.182352214039428 -0.5681600625881118 -0.9083293521214099 -0.3226114831551928
Ni 8.236338091821818 3.756646801878911 10.708219943662726 1.0067948898891756 -0.6736015174530786 -1.105618839437625
Ni 3.6045428185421065 6.803591732030634 2.6684947023681023 -1.6827700497807534 -0.6125038788108097 -0.079722709942624
Ni 5.864347100934504 8.897709837384255 12.295337057245725 -1.186447380849918 1.4654210727105021 0.7720506001606123
Ni 4.5984295179236465 4.11507296919187 8.540191299704704 -0.5569837342563182 0.45499167139253255 -0.17657719446952813
Ni 1.9207930961717408 8.9900761261689 9.418127161604044 0.27858545528322987 0.2555468282962115 -1.0198044147749663
Ni 1.4735666570094574 0.45340845663491075 13.262606711357579 -0.47667301302070814 -3.5869293081394034 0.8959057816460764
Ni 2.879185487452877 6.957990129364584 8.480514420945239 0.42294389892836837 -1.222403744339869 -0.8139546965935659
Ni 3.6348954278055365 1.7230956973414784 3.7724893158760615 1.5208838816644967 -1.7990564177800243 0.0011215151989529073
Ni 6.5631297735186545 0.9193753744614209 0.8623108104336451 -0.8517432281962491 0.6158013186151589 0.42049338050534674
Ni 5.6294414943915125 6.458498966540438 7.881853893617206 -0.6609213508822488 -0.3541866868583126 0.5908325644849631
Ni 2.6828979092714618 2.1727547682115778 12.746955133801738 2.187749623055639 1.6740144150753105 -0.30880465917908756
Ni 6.044453992453325 8.319932163235855 6.383895496479872 0.613622308685969 -0.6209458389305758 0.6853213769931681
Ni 8.883150905193538 7.244432512959901 6.877483841606945 -1.0817731431682789 -0.34450776900765184 -0.5243924305838581
Ni 4.858831684828481 7.566627211048876 4.456760971742529 0.3092556306735771 -0.10739626459849246 0.43733744864587903
Ni 9.024943847314262 5.04526894749605 0.276965255900285 -1.1091888161770702 -0.07314737071795145 -1.7887995159387062
Ni 7.038230117666329 7.434214644225717 3.5744417655120984 -0.9934835174922503 -1.223261464354474 -1.4487042741764535
Ni 7.548999845681255 5.233521469430437 7.027425178497445 -1.2939233496464102 -0.7312559347417535 3.4582437951448313
Ni 1.1628440289062052 4.479875580223802 9.867992637588745 1.1213372786141462 -0.36290349790602017 1.1692613559889347
Ni 4.679867393051209 5.1233711685394105 4.0963241974650035 -0.04919934454278623 0.006415673718356692 0.0028140724100274117
Ni 3.6413548021509112 3.626805084474239 11.005514260448553 -0.6598342884656572 1.0034460280216009 -0.4831632487307421
Ni 0.5521696181666168 2.575668609332624 13.319370882227497 -2.1608152605586395 1.4553680593498741 0.16709728000355092
Ni 2.5542540786926087 0.26918636314370104 6.430410363377805 -0.6840386536260026 0.2866407214875386 1.0216262984750535
Ni 7.334725536084475 3.4748946059323744 4.948177455909254 -1.7483889733321438 0.4359824772798814 -0.8835755422154976
P 1.7338951078019336 5.5615489549097425 4.041501524704317 0.32497201296756933 -0.33868344901639097 0.21849183242544307
P 8.70432483112694 0.9249713488408019 0.8940787690543495 0.12756194091309 0.008303120549056669 0.8433136093716572
P 1.3906268160925992 8.060801599269196 1.7413874291717255 2.2188918529863977 -1.5614345493933495 -2.0826712079570453
P 1.4624447385574357 1.5859652993274038 3.9020932988183783 0.7879806411273075 -1.9098298263808655 1.9676693630971533
P 9.164202798072674 5.6536111647309095 11.590768591292871 -0.0746039006588199 -0.09729337183653566 0.3039193060623282
P 3.4084948177258556 3.016196096784369 6.942366920801699 -0.04126029220136765 -0.42301743247878115 0.7144440053907373
P 0.689797599939108 1.121664365640186 7.41977089346056 1.7074996913169498 -0.21425696840848907 1.6745466334296968
P 6.987808296813418 8.004611492624267 8.637374014980544 -0.9788513694013723 -0.8180941726832363 -1.1729884271315347
Ni 2.852251462900052 8.632433192549746 4.138549708075103 -1.47944155535931 0.38777223612324185 0.48477867284697795
Ni 5.875321587161809 5.428307081822555 10.186608418422738 -0.3304188950147535 -0.22452775420687782 1.2327825164710318
Ni -0.15047024999666914 4.9505621721440365 5.58760667917691 3.493213883462113 0.18150805611224227 -1.4713958022366982
Ni 4.321671588589369 2.026004417534777 1.2773601665516368 0.1859367813075572 1.2744408154417664 0.6922512713437821
Ni 3.7171718237111717 -0.1811324669320027 1.9452613167661887 -0.7507994040913198 0.6891854879342647 -0.7180831448052214
Ni 6.997815259066024 0.40459733283702376 10.107078869153844 -0.321132327506505 1.4440354079458744 -0.10344190793643476
Ni 1.015992318574912 3.886893957901552 7.717712069132331 -0.36694655762714223 -0.5603601069277189 -1.1525995790625376
Ni 0.4157386017685395 -0.20322795015992565 5.514739223562377 0.6960760444065108 0.9743776499007349 0.1770353650528693
Ni 7.373085558052799 0.19585449602131103 4.48233124821673 0.1543644058179148 1.5199107191179502 1.8705467125105266
Ni 8.055798118142894 0.10180747987490271 7.267657695609711 -1.6724684107444294 1.4366123760089258 0.3223057789893159
Ni 5.4707675625407965 1.8796042183916768 8.19283637101652 -0.052835655743792884 -0.575698279946686 -1.192209994365308
Ni 5.424989856766444 7.809079504594523 10.173242765800817 -0.8265271339419378 -0.532733860570018 -0.9427047442774861
Ni 3.108820391962267 5.202182907164217 6.625383030405033 0.46149373417710843 -0.3741163359027041 0.4303682164168975
Ni 2.780405896893081 3.543994246754008 3.090739672503645 -0.12396419625950264 3.7959643660273206 -0.9028454461887033
Ni 6.701780566350114 4.120914971096247 12.319787770263487 -0.3753214119543988 2.993432309448399 -0.4126857115354699
Ni 9.635064465759758 3.330567672449345 3.7998527367833725 -1.3221602330049165 1.9277997805957252 -0.767145192439195
Ni 2.974555707816112 7.2334027396483265 13.633239345425627 0.26950920401357453 1.1426974894574773 0.18525466763886805
Ni 3.3177779269552223 8.61173739400522 11.328741905561944 0.32490567850600816 -0.5582268626347998 0.680100494913861
Ni 8.899340806370176 8.256324372784896 9.399502785816782 1.0475214210742605 -0.32403793118907415 0.4083762855268387
Ni 7.977788042239981 1.9471189627976115 3.037373814413434 -0.8173051011230377 -0.2746493534536173 -1.570010978208451
Ni 7.78947101870728 8.088279280150662 0.7048642518536903 -2.6764114330071065 1.0658001647787902 1.02940542819984
Ni 5.148360930628791 3.9691703538071876 5.958548920916864 0.6411146005689669 -1.0638690091943483 1.5814693565570377
Ni 4.370831021018147 4.775394260153206 13.322971914316186 0.03786566469752188 -0.3229773511350437 -0.9967984407980961
Ni 8.365488720673133 5.900587784672533 9.62972834067644 -0.19020481255529176 0.6956618396872277 -1.48006119122118
P 0.8995678550708113 6.080998755154831 7.986157585346833 1.4603873669413365 -1.1605273185500464 0.9614290601598667
P 3.767842436443291 5.776201059582358 10.656931958489608 -0.17031090184484218 0.8008207303147692 0.21332365796094233
P 7.222548042103604 2.1717780297228333 11.766186216614315 0.40601292750098456 -2.17044841277303 0.2813918143837735
P 6.710092058018485 6.0364557942624755 0.3517391944706794 0.8683209300492724 -0.5512334620361022 0.9249695317812522
P 5.4954993182369245 3.419358729784624 2.7935669873032074 -0.28162681321271493 -0.009146699496274571 0.6931745544889998
P 1.0500952350545578 8.683260452020624 11.36377917376573 -0.38108762501421467 -0.2974118439611136 -0.8025377130058758
P 7.13446650234977 5.885789275116653 5.198254759826938 -1.5340756977644225 1.1022314110226308 -2.6394585099318415
P 2.728592684419412 3.808155935389103 0.7081483046592417 -0.5720298299561632 -0.8882014710232833 0.7369511853543179
Ni 5.090438495343449 2.5548622366195626 12.606589519906551 0.35259620244274115 -1.6319187714568413 0.47319919553949474
Ni 1.8177748291513571 3.518009317147793 5.488198658759263 1.4076347578296533 -0.6052351130635383 0.19326339687595748
Ni 2.6439389438902294 1.9061604478686665 8.99445302034016 0.5098189036450574 1.034821457009089 -1.1895854122582674
Ni 4.086968701355362 8.907873446375621 8.19976844993239 0.6414712125774372 0.33210425313697645 -0.484926511278752
Ni 7.491833000547583 7.449335661773164 11.476593390667096 0.7216850032238668 -1.970760343317651 -1.0287557104309832
Ni 5.539931704960742 7.7266925345203505 1.4087591368298722 0.17421949287062902 0.16029465525942072 -0.2560605347078364
Ni 1.7575579798688696 6.711428162554974 10.455094478499037 -0.8612537387898458 1.3874991634220426 -0.21692937303432966
Ni 8.361719984428827 0.17613082870850857 12.175349341160516 -0.4495082796804581 2.3795940280968826 0.9647617240775257
Ni 4.6616318697566355 0.8021851848402008 5.657398330003305 0.5934239793612232 0.45613015587234984 0.17672863244572792
Ni 5.4617741968331135 6.619172447938867 12.266341745901087 -1.545783473119654 -0.1362818372845911 -0.053169127823811654
Ni 8.901312712375756 6.605166386590835 1.9526375352590168 1.0246285756364868 0.6552255860490521 0.49486793876218
Ni -0.07139589772158655 7.07815660702226 4.305564618039133 0.9180026135451157 -2.0478402163207896 1.3488377422961029
Ni 5.208522492827011 5.417977611578383 1.8591231180243952 1.0560631399966842 -0.39381947075858625 -0.2020516845915488
Ni 1.8346373898532624 5.561558169423788 1.4817611243494597 0.13367808111315688 0.230790447287138 0.9413225192179787
Ni 6.749917187719925 3.626427289398405 0.9519394670955924 0.3712541838635606 -0.4271815911587998 2.31237536415854
Ni 0.16768204078087084 7.372698548462919 13.01235341022164 3.6977178862488955 -1.146526376285264 -1.1945180736731944
Ni 0.14739536665993372 1.3838817918118373 10.332152589211079 -0.44294193931685 -0.21418652018186982 -0.1994229887194501
Ni 5.670621157657531 2.7316703321103613 10.334243362447834 0.9113560547628757 -0.405567869543766 -0.4242860147785596
Ni 8.802118468683945 2.103019325920856 5.938144301016154 0.17404028698028737 0.2968641989877597 -0.6949154484395064
Ni 1.9248566968654786 7.072950406586973 5.9494726245827785 -1.2628279137931864 0.24700176693967782 -1.0472691958541382
Ni 0.3658991382032576 8.954950398630286 3.241274424098627 -0.8776262666105983 2.4413614391126663 -0.8860288888519966
Ni 2.0506993151747257 5.3801428169106105 12.27913978445785 0.5139218700698376 -1.4931951574999767 1.2318088397038527
Ni 1.9163517004021677 1.7691037659669502 1.8527171878604802 -0.6515715342362327 -0.5129854742984973 -1.1167884829011994
Ni 8.212020989257704 2.2712394943219407 8.4639126309908 -0.7454538235086904 0.9671299671993859 -0.2023285924020193
P 8.948150087265255 3.650348167858594 1.806607759580516 -0.6872900706837647 -0.5441066211833339 -0.14564348100514918
P 3.8953713108227284 0.409575934775406 13.151276952668825 0.9541728928180858 -0.4916226923520049 1.3983443336666628
P 6.433923857583071 1.9277224107333981 6.218471933091371 0.9874018300745445 -0.4563191319547045 -0.23739381153626857
P 3.9682304733746223 7.234794131269084 6.428481765588238 1.1264843700327245 0.751765624659331 0.6675949062476825
P 4.6449904573918035 0.6626940283278596 10.08326211470236 0.2384875588210796 0.9227275298246108 -0.5562928788368806
P 6.985873248864018 4.324113434811229 8.834194192073745 -0.425818392262686 -2.0678194876561937 -0.1384608472137809
P 5.63164376324821 0.06958432426038733 3.2083141073605312 -0.41973490507276745 0.13946254900541788 -0.7783114934686596
P 1.7087118409176125 2.6038373787674463 10.885714520449858 0.2910761315510729 0.9196172663304033 -0.03700331669722659
