# total energy = -340893.7036833746 ev
CRYSTAL
PRIMVEC
9.03970857141887 0.00000000000000 0.00000000000000

0.00000000000000 9.03970857141887 0.00000000000000

0.00000000000000 0.00000000000000 13.23052724201978

PRIMCOORD
 96 1
Ni 6.357852834214594 2.147084394304408 11.277793621370224 0.7798089039497925 -1.4268416697754072 1.0601977309903483
Ni 4.617781305741078 0.29613361186734827 5.91314619274924 -0.26851264442826017 -0.3803972838154094 0.5554307879469015
Ni 2.6415925966900407 1.538820502776833 4.710001697819856 0.30789860242505035 0.12169031262366141 0.43880760543350233
Ni 3.2210650173087556 4.179753200761584 4.81265662517967 -0.4931931221629184 0.005203398577810393 0.19004411860771142
Ni 4.977444179540383 4.338454319529538 2.809476251140638 0.5516476667553855 0.05750657885690096 -0.6668323170500452
Ni 7.185221175314831 6.226216602071796 2.524569956971501 0.09794128983317972 -0.8252210135360045 0.02729457404989493
Ni 5.410807795041392 4.47807261409385 11.559326296404922 -0.7596257441336982 0.579137387535222 -0.18045056138200535
Ni 5.480061000263612 7.687232335582522 12.320557419731067 1.1317733863458055 0.7943585196291932 0.46638191550734515
Ni 1.991122307148819 6.508318778728868 0.36695791839065467 -2.028703238381022 -0.08934532063405257 -1.1956547583807988
Ni 2.8850590601086616 1.7295945065635103 0.26134791039030536 0.3463247676117326 -1.1939909975251308 0.5196276622053632
Ni 0.749079947440528 8.982947963272398 4.768612454470334 -1.0139852369900277 0.28285605763412575 -0.6336779417852635
Ni 8.51857814833108 2.414551283237321 1.5082138584430131 0.08901930475320152 -0.06466195895475961 -0.7060568097683066
Ni 6.910350765291069 0.6653487454184244 4.506026104044074 -0.7899426499496847 -0.22493141740319972 2.682813994099341
Ni 0.7412732553598717 7.662816083486814 2.780024881526489 0.049363895145108534 -0.1849350795159202 -1.0603774511013222
Ni 7.4566203373546065 3.990687701842026 3.958864312772152 0.5469245502481032 -0.7206660750410492 -1.0331939487079949
Ni 7.497597335040591 4.111512442868027 12.709826242156307 1.4872016589207033 -1.3195351366772436 0.36321820093296153
Ni 8.286763868900376 8.922562711884273 6.830696471708492 -1.326622125431012 -0.5133976221352513 -0.2035105285252624
Ni 6.927652766961259 0.7410092958777558 0.30376131772383036 -0.538790351176743 -0.26425669736538354 -0.5280282275642325
Ni 1.8697190247921531 6.481516043644168 9.196314006021533 0.9900469810068756 0.3891796579937297 0.2690104100002851
Ni 0.1708531986243999 4.8260290656554865 1.3639482498459718 -0.6693229446823827 -0.11208441410278117 -0.13555395797963107
Ni 6.455499763180841 1.8083484452002394 6.88405515784153 -0.8348145707617106 -0.43873510032435403 0.8298292017319773
Ni 3.4867782028330923 4.282010380956566 0.5709009692165866 0.19388508962035642 -0.4583402761497913 0.5074743146722809
Ni 6.000305252155532 5.6767198541481445 4.70519890080451 0.04199382793328252 0.07608871273446251 0.4216010117472287
Ni 5.229986510083806 2.9949457541017837 9.318696288786182 1.8449614078422547 -1.2639882526498747 -1.0334847404755363
P 0.1288357305140486 5.776572471937551 12.484590158449429 1.449878754100529 -2.251717127046535 -0.4739491863316418
P 3.853112381351624 5.859990900052764 12.519121844123475 1.2554956417978314 1.6473513039618273 0.05440248601028049
P 2.499009277806073 8.377359825399148 1.4374835648859396 -0.6126380903958288 1.0171991159416351 0.36508687871058415
P 6.414351011037316 7.809123762186936 5.768113112918239 0.07167361438590236 -0.3802376183090936 0.44558451914601965
P 4.80377330384148 1.027869071008715 12.48120297975255 0.6677689699317015 0.409934631152894 0.6190360235023726
P 4.03205340698455 6.138865900849722 8.372184592402187 -1.2099660327971484 1.3827570207513669 -0.3986480024954812
P 4.749959920381373 0.8671665608249928 3.781959029446502 -0.3626595002160141 -0.24213569709662816 0.08549277965718179
P 0.01422036511357193 5.641736183059515 3.48156048320716 1.8714316862186415 -1.5301426812586036 -0.531288386372743
Ni 1.5883219453818294 1.1934042092451458 2.4249306762977776 -0.5893410675411012 -1.3367077918017882 0.3308886355623205
Ni 1.6857609610573694 6.438333357135025 4.914373230818812 0.6403733515275681 -0.43761409934603346 -0.22342269406815715
Ni 5.835475211165848 5.6280139058728125 9.310864285522308 1.573916226800128 -0.03908950980229397 0.1489648320688983
Ni 8.683598023194886 2.5018658256262296 10.2649575852505 0.7571492575687476 -0.5336383746621584 -0.35984208537187706
Ni 2.500491789965901 5.143603057648936 7.1387028364460745 -1.0635327089008522 -0.3398635853674212 -0.48512757154596453
Ni 0.6615900347107623 0.44547140078682634 9.083788621178082 0.855703498395578 -1.0603332281269482 1.0117614898658316
Ni 1.3966530104742803 1.084132215415855 11.393865283776483 0.41180048071703923 0.5695368883309804 0.15492079254201707
Ni 3.9438439334747706 6.736670849883874 1.4539421617725206 1.793031808852499 0.8297492404236613 1.3950404661044102
Ni 5.73147336727058 7.904357089039316 7.922413002381029 -0.4933216773209827 -0.5742972858341012 0.05337018809102421
Ni 5.082395192806271 2.7057112476026117 4.914359671256375 0.07655356818602299 0.016874664268151582 -0.012930077798106765
Ni 0.9771020692428898 7.150635251391034 7.087315710691443 -0.9509806111330331 0.7842612832941913 -0.13224340554915934
Ni 4.878956557703013 4.614734924046796 7.152290421979232 0.37688541400740894 -1.167316573557738 -0.5506801606357935
Ni 8.298298536680504 7.554203988362812 9.007395854347127 0.6798063607122099 -1.2105476163322313 -0.4551675348487645
Ni 4.651653092709837 0.2225919690315762 10.493184004460252 0.29843565723993765 0.06046540437490877 -0.9209956347351687
Ni 8.21913781117065 6.968964233854033 4.771034192321664 -0.6404299157971163 1.9329872383339353 1.1856824776594352
Ni 7.142318719762729 5.9829399725273 7.023292880686763 0.15274538215725308 0.6796837190914166 -0.4052482814208182
Ni 2.1560789040545854 5.511971170533086 2.5810771735025155 0.0891540305588529 -0.9654209549280793 0.7994549603154941
Ni 2.215063000657507 5.17916527006823 11.359320038539998 -0.9121757224506936 -0.10836454204903273 0.1741125349791195
Ni 0.900108161810542 3.2470180198140417 3.5892568558812186 0.09149604842846824 0.9074528630537275 0.5981396396693376
Ni 3.7333272067791614 2.3156026362770783 2.602180372509338 -0.23814431654904794 1.113606742739108 -0.3521979385630579
Ni 1.2153164621440706 3.2508689355462788 8.371801308770623 -0.7468558460625395 0.1751250354040339 -0.3847049100518278
Ni 3.3721095031536947 2.500202519300568 7.003486879819789 1.0397538613136998 0.2800579260636983 0.1430561798939472
Ni 4.27064746763398 6.770569755977507 5.909494150599419 -0.8017450419012514 0.7688819726246435 0.6738028348306073
Ni 0.8267373694614818 7.4269068162 11.267394340951526 -0.35951838348387116 0.24985054924238262 0.19576122359714673
P 0.11070026773936929 5.384502243912733 8.008610236825092 0.2602635170455905 1.0439601860855634 -0.8035741246901903
P 8.479707402677047 1.7520310625433495 8.010382923621082 -1.077262656892435 -0.1278175085673218 -0.5279287258718909
P 1.8665822460149557 3.1853581695567956 10.471366668498389 -0.8766127377444194 -0.12021501362971555 1.154955995109856
P 3.99292050979006 5.9543925737423145 3.7948324780246203 -0.28580768406328194 0.8192200587575633 -0.004994625001113979
P 7.115579262636071 3.8760461212875033 10.287210635152018 -1.5039230854404422 2.249575398113184 -0.4908516185139354
P 6.599457117725138 7.708376213276658 10.19750780183246 -1.9070489212016188 -0.22809901649790393 0.5289605095705149
P 2.422316392659836 8.353413638134606 5.955073263776674 0.9272639842423838 0.0915389858512617 -0.5727476819587942
P 6.866951125782926 4.036799253837659 1.5852285572044318 -0.23322373931897897 0.07233130257455929 0.5616783115185101
Ni 5.376230910825886 2.805048602019395 0.3422786107836604 -0.012938562438539008 0.39087632896986235 0.42078340094193983
Ni 1.3729780144584864 1.0203480337100743 6.896213565493779 0.40465821324530316 0.9265834132355912 -0.1280314243503408
Ni 6.755075695965644 0.6206419640913114 9.241747579895293 1.1859208189224868 1.178614000848428 -0.24316131014766512
Ni 3.044420077581905 1.7082336758703753 9.345435745912841 -0.6237791946143129 -0.9110323528748697 -0.20430448518146752
Ni 6.230637019426406 2.0098977812705465 2.5573289558495595 0.7770732501861843 0.8218263860321589 -0.08939288604253637
Ni 4.130360234656087 6.861256109559196 10.601634288805831 -0.8456911084648984 -0.5506223108146645 -1.1251198855850302
Ni 8.240815031653993 7.167042321940352 0.4134780652010697 -0.8853904839370494 1.1246334328669148 0.8780044758856234
Ni 7.497461739416217 3.8118461130003074 7.945037584293336 0.7936959463445299 -0.416930602854753 1.2441218527432507
Ni 3.2447671324494243 8.58573414122964 12.39394719546754 -1.168771817947026 -0.8439538140588174 0.7763775096707403
Ni 0.06168968129460868 5.089952388938078 10.072916214361335 -0.4793271628141036 -0.8979428666807631 1.004367768504922
Ni 8.437139416331734 2.4176428634730605 5.794798331795146 0.9252875772423033 -0.01642703520777171 -0.7037086212511041
Ni 3.779926903022542 2.850843764224821 11.532441299974769 -0.48371706435168305 -0.46256974085010655 -0.08418845902346146
Ni 1.1306867131177782 3.216138376289815 12.792582963624573 -0.8382374804003305 0.7007497957330964 -1.0573972854270757
Ni 3.1433144862923985 8.55804551473236 8.081827354133194 0.0389090183603717 -0.5886982917507796 0.25318192760846076
Ni 5.630364230028636 7.896293669243177 3.5883176301897177 -0.7838779318128436 -0.6043995045361203 -0.279871263974189
Ni 3.095874097177895 7.983707648423294 3.7622985678830236 0.3422084314505139 1.0474360604493058 -0.566726929686011
Ni 3.4381716913489675 4.189018901760511 9.413268812962443 -0.7813309970212737 1.8964145814162245 -0.7513347077694996
Ni 7.252115016672935 6.066322241809346 11.47129038529434 0.2123085864328666 0.8795142276619304 -0.743849712246364
Ni 0.6675987288122124 -0.05647376961033495 0.3259872485004748 0.08231695303236146 0.5925253788063538 -0.07638438959801037
Ni 4.718456536985023 0.29376068844079395 1.5718922755617817 -0.7272154461237927 -0.7089325886542049 -0.7248240630734807
Ni 5.861455332796009 5.745186604748992 0.4683870613061225 0.23868861908829214 -1.1874686230255806 -0.19705705959043482
Ni 8.037728945174107 8.988498344163464 11.312550395780733 0.19903526636272817 -0.43949588974977855 0.02514873135148572
Ni 0.11939827505758105 4.832067590794298 5.77783712712755 -0.45990402109248535 -0.08153610900227892 0.18407016041246363
Ni 7.677234418211973 8.897821030290066 2.4585231362803244 0.9740014975082386 -0.6719660387321846 -0.5919093424889097
P 8.491838691204421 1.5686696195558136 3.5411375846740136 1.3297347029180646 0.698699340961971 0.10825218484088454
P 1.9388637535148738 3.202931362475735 1.5791430255825025 -1.1589969979484493 0.6412837791569794 1.0579919815882812
P 4.85561603089401 0.9800218950210879 8.254830195389346 -0.20499019839458246 0.8203328322057679 -0.7340247557361423
P 8.496331426225364 1.7554028737361298 12.369126868411195 -0.1438089988995717 0.14123815284860192 1.3161978447738945
P 6.23590716936043 7.761936484904598 1.238343311075354 -0.10691443986606748 -0.18622243086877605 0.18025644309332828
P 1.5372204744092135 3.225611990579449 6.090566739447513 0.9599601889238243 -0.7526832513775941 -1.2339037745596686
P 6.548916108666603 3.8928418992933627 5.976453981828051 0.8414858121342992 0.21633750508660163 -0.3452071090675216
P 2.452400541854399 8.511274064031438 10.328781541672763 0.18893468759361653 -0.02972040988256817 -1.116877957291212
