# total energy = -340863.04181276803 ev
CRYSTAL
PRIMVEC
9.38170493074117 0.00000000000000 0.00000000000000

0.00000000000000 9.38170493074117 0.00000000000000

0.00000000000000 0.00000000000000 13.73107348340920

PRIMCOORD
 96 1
Ni 2.394623895156664 3.4618115952470117 12.515447693125632 0.3000464533704833 -0.18993690360588578 -0.00921431950941639
Ni 7.228960159401299 8.1964203360023 11.376221633499506 -0.279355500680035 -0.16503345549598672 -0.022484297145445146
Ni 6.9519653211112695 0.3406506444638384 7.822743275645745 0.09285513355952396 -0.7102209684483252 0.2665570633637861
Ni 1.369156636924936 3.2562490583537733 7.229712572137315 -0.6750775877779729 -1.2619102870749235 0.5064487016212439
Ni 8.701212351888273 5.645403419531671 1.7476221194817676 1.262235788735142 2.4353900520205802 -1.6216161039792523
Ni 2.115902823158069 1.194928994524118 9.093513034716953 -0.10143644747063175 0.5116063345627835 -0.19153021623493463
Ni 1.2787732915536862 6.940453969152528 2.414266370785041 -0.06989261122607963 0.5131595379825162 1.8253462047144886
Ni 0.48260803638993277 9.04735035557026 11.886728984033619 1.0105877812727047 -0.35482869131768563 1.5382650532554218
Ni 4.307065683327573 2.5089024430046187 0.44388598742944946 1.4863115430062661 0.9009533713723128 -0.5513337350593924
Ni 4.47161140623253 1.7162046659858945 4.90370928140757 -0.5227188995361771 0.5464596947965427 -0.08915377344853678
Ni 1.3737630540494206 8.915790707226785 7.197320359498399 -0.06377801368790953 0.6042874044382883 -0.2801941945312465
Ni 4.892549743383998 7.1209954989765185 11.385133315019969 0.26772588686090665 -0.8961376951512243 -0.8229743835936729
Ni 5.901158077842408 6.71293824270472 1.711454708775861 -0.3116786382927729 2.139073498006174 -1.097611395752116
Ni 8.309938965750288 3.7468371729638417 6.270047654169176 1.169545719998573 -0.9453488667685525 -0.04902939462382524
Ni 4.611286229347245 0.7264535584525629 7.416112038524501 -1.9561775604074698 1.297210247927798 -1.7245198800240298
Ni 2.3315976013841855 5.694000651109735 10.825139347279684 -0.10262583979304261 0.13916764347281838 1.064831630217934
Ni 2.1442543354802526 8.512912152080679 0.8747726844970135 1.1190114586944468 -0.4110492043733115 -0.329346230775865
Ni -0.0010469982710640943 6.144904153832697 8.702960163518194 0.5330609048921335 1.0006859487779605 -0.07755706974987288
Ni 4.317545047743152 0.2596996652371033 1.4726162026385614 -0.2971429065704431 0.47890267368217515 0.6297793780618056
Ni 5.953536136510426 2.3016887260423187 6.443430004955093 1.1077757378796276 0.9576598229254217 2.1095706034510506
Ni 6.2257181601673395 6.730106762740985 9.314089114022233 1.2376856101996039 -0.6708848898528639 1.0867070901347864
Ni 3.176467039562295 4.949787525209821 6.25561577746328 0.47898803430713 0.36891525131773883 -0.04757080780042775
Ni 2.856560282886537 7.458455425590994 5.281135271057288 3.011304304632814 -0.8668219769062427 0.6493141056606236
Ni 6.729872220117539 3.8707132049632174 12.036219885024806 -0.3470706446388216 -0.5132382137392516 -0.26076873881678314
P 0.5050734670341092 0.34983064274552494 1.0075528926529027 -1.7351763312966118 0.8622194451372248 -1.2377246909676556
P 8.123130457027813 5.680050055867151 5.458870732934368 -0.9056032114394985 1.3987829638659781 -0.7252971460551574
P 5.957945537831216 0.4631288024274742 9.976997570419252 0.744677350353982 -1.6772136387388987 -0.03594685040825422
P 5.864494374945289 1.6199202282087366 2.292155975654969 -0.7956985785968554 -0.23870481703820826 0.3578857329764546
P 7.908505193164611 3.6363206887959656 2.3922550146598565 0.6686359459176872 0.06057827580368923 2.816370976253601
P 6.2912775142730375 7.499519148103965 13.288988028661265 -0.14614047524622573 -0.8018414582697997 -1.1623705424063724
P 4.50120130360651 4.231608630512443 4.5162458056448465 -0.4434685012442814 -0.8224928159715641 -1.471047417758344
P 4.849881749326655 8.385536744139486 5.8749906264297564 0.8650558861447554 0.39225726847778897 0.46323591367919575
Ni 0.16231287712974815 6.691660535905674 11.125259150071024 -0.9339979605321077 -0.24101572455957204 0.6186531862416571
Ni 6.98936079699354 4.157840284586126 0.6736139199016022 -0.8245116461738057 -0.42264025164502045 -2.3341382097569285
Ni 9.17613301925213 1.087001860919088 7.852210272685039 0.010912018926813465 1.4846372406276367 -0.020752402056002973
Ni 3.03687665179202 5.532100568997253 3.3826909866536514 0.67916281359094 0.791020713505212 2.3702282706112667
Ni 9.460886527525764 2.272098828668339 12.989307289661017 0.1378818347818593 -0.959977672425321 -1.6207424431250477
Ni 5.050462600897894 1.1770943734372643 12.121722867487387 0.17555903761765893 -0.19504131471198669 -1.0320559784488095
Ni 8.765983642779192 0.11740265559225875 10.03536866220157 -0.591804184369613 -0.48579708680916334 -1.5296590567539656
Ni 0.26458940985071083 0.14656943807354156 3.1486728005134195 0.5363521740488956 -1.2987428825222405 0.060799133565243677
Ni 5.014117875968661 2.3565435548139293 9.540144109011218 -1.0287323133922155 -2.2783779241671724 -0.047444823745524736
Ni 6.102733390137059 4.600956972210672 5.870912399293273 -0.3714578152339345 0.3749696850419349 -0.5454181409059058
Ni 0.17207078843560625 2.407739518659778 3.6766460711303273 -2.11758730310794 0.6091159361751833 -1.085530553328182
Ni 5.086657218548121 6.565073191179261 4.485076967329826 0.05442819704189336 -1.5419813257647441 0.18048372861278594
Ni 2.710590335758524 4.856645958586844 1.373642968226216 0.8317927532162513 -0.563135869900643 -3.321253618939306
Ni 8.088108552494816 1.7954331641860402 1.2644070867823558 0.14531669379334974 -0.6347814592620874 0.6122552531351133
Ni 1.8683102481432614 3.202154147682129 4.945328400852862 2.637234762807645 -1.5825890719837776 0.08701075896360498
Ni 4.225491758892964 8.468949482741913 13.135062395745955 0.7612370544848761 1.0069681822422463 0.45066373344113997
Ni 4.384342786900646 4.334122520368333 11.195287948409112 0.4224492186801369 -0.09548177254909362 0.2907768551430992
Ni 7.246804162193091 5.609555924964145 3.246890807678268 -0.9527646996166492 0.21078315092727568 4.097112537102414
Ni 6.3290670217626985 4.017133473928247 9.40329974627625 -0.052980665962089404 2.6341903195543663 0.13262984235430061
Ni 0.26544689768203034 3.841826935459576 0.914938577847432 1.001132806507392 -0.4734290521621136 -0.5552780644191211
Ni 5.403468012594387 4.600394069914401 2.2502478996975914 -2.2234121094542547 -1.4948162380431673 1.2523848640829915
Ni 6.730388213889121 9.220283322689655 0.6650587431687767 -0.9133692285381624 0.6838507059849125 1.2446808105705145
Ni 8.53843977121657 7.920213560927048 -0.022732809234905078 1.195141051969174 0.604836592073539 0.5260711038378617
Ni 4.807157465039683 8.376155039201635 8.6145460380134 -0.40841433785362563 -1.0330371114151564 1.8064953905565726
P 0.1900057937652947 2.1318892483721656 10.247541548394016 0.16768863373064666 -0.37118887784326393 -0.24725090683600645
P 3.5374093736362098 7.839681005740541 2.609686346469969 -0.37861268111116086 -0.5259551470852877 0.31017171472994326
P 3.275453408361553 1.8606547769139756 10.985695969245066 -0.7206074538889718 0.9548128403949296 -0.26336966677473994
P 1.8723349995615992 5.110027045548305 8.022352182585426 0.43062532673302606 1.6780585032376971 0.8852647569924625
P 7.81433163899847 7.763360836071129 2.5753999676041013 -0.10179768746479242 -0.010798633277400757 -0.29388094798971964
P 2.2701192889264523 7.632814411860942 12.307847449919892 -0.9235471975124288 1.2889307815278255 -1.153232070440214
P 1.1190591466917224 8.059156611056611 4.631065677867714 -2.6586057722842535 2.072371368692934 -1.5206375699816455
P 8.791717659423714 8.165216785379009 8.186328436000654 -0.16934956637283738 0.8321087417947733 -0.38539885079505887
Ni 0.6124498945592872 0.8915415439029271 5.555523871715583 0.01931438405789577 0.6228335428715919 -1.1587062061809077
Ni 3.243124053145721 8.974670287416734 10.708384029328137 0.5488492780746419 -0.3236880040488232 0.16884563015322535
Ni 2.5150568414438483 0.7984562675095763 12.784206332650722 0.4985003933084447 0.008125457320611812 -1.1342742983907885
Ni 0.5898737597968442 6.6643034843069024 6.111027755472613 -0.3567919856916436 0.16171004754970858 1.0487763765272842
Ni 1.1982782631869304 6.359398073826768 0.1804045569318987 -0.9175974076868972 -0.44462678321844074 -1.0629737510735886
Ni 7.444016981691642 1.980890707397465 10.714315143189847 -0.8224848455517643 -0.11649282758312196 0.3856737017230003
Ni 3.1113673889985516 3.6536111709964234 9.323302886441695 -0.8042528959247699 0.13712104535643482 -0.6612252552759128
Ni 8.310361142472491 3.4097712779567564 8.613612558372083 -0.06948020627900937 -1.094528385951418 -0.6501810816466093
Ni 5.194781367956845 6.5155659342222245 7.025462535764882 -0.46076354087930316 0.3969665010280002 0.08247584720772892
Ni 2.5072606446404944 7.227759301169256 7.7890751511352825 1.5387039405650533 -2.1359930593086376 -0.6650106904602741
Ni 8.02215516678173 5.786128993599426 12.90734683898297 -0.03733653166692925 -0.27486661167074594 -0.4330514196760155
Ni 2.114261024793945 1.8680569421099393 0.9274321943131671 -1.296791672333141 0.7631281008600018 1.5533882820501055
Ni 3.5059431352746593 2.7714213105755454 2.7324009233980386 0.8283459323182315 0.2839495478086207 0.9016964201859246
Ni 3.003205712770075 0.5608880442208619 3.7150932361361315 -1.7532154481865097 -1.6057328570900926 -0.631079584930468
Ni 1.3989341683976728 8.138629033585142 9.532207186633794 -0.7101728888192091 0.13138285732107696 0.6248179202914724
Ni 0.5971014252809641 4.94106253961762 4.426308091258144 -0.9944605366935391 0.9666573984383415 -0.9930906529292058
Ni 7.258972233497483 0.37122749719728015 3.5066139271777157 1.2313907783298277 0.4165457087115085 0.01776992238891133
Ni 0.6970794402921535 4.186735935794705 9.60889511913677 1.0138883064008475 -0.43644399029733216 1.5833647738075376
Ni 7.436117586133972 5.624097567617812 7.627721084250183 -0.2781771641012177 0.11514196998218235 -0.46636648888837745
Ni 6.674689031673104 2.6793867851352338 4.180123710154508 0.28181501796412106 0.7268125542584193 -0.8323491399403538
Ni 3.5360021178955323 6.285123115833808 13.328423087197026 -0.19480631588304514 -0.9628159132050645 0.13280570581053258
Ni 7.522748249530083 7.9430298673359 5.613935304829133 -0.4351337561263409 -0.5462385799246722 0.06029571156626389
Ni 3.8505519210517773 6.050702454551742 9.119753663428119 1.361862436690545 -0.8764096205946776 0.3970575180799097
Ni 5.297623617485559 8.655166944053303 3.660566767037346 -0.8711841105296803 0.6073521594065411 0.10575075857526949
P 6.743316203293478 1.784118828030993 13.262225777155553 0.9035031343773602 1.1167144351301541 -0.6603623930549853
P 0.6633418911651501 4.751158068265655 12.502678254534723 -0.21677613528591697 -0.03582292323588024 0.00022677129882541592
P 1.5726364353219713 3.8106421482461617 2.671641249538545 -0.5919849329218514 -0.9301724161384303 1.5367725278702953
P 2.6976998731739177 1.6240294149715153 6.473638156684478 -0.23081538698780252 -0.37972622589031374 -0.029261982188910893
P 4.799642719384466 3.9168805749623785 7.706070516697653 0.34842895843892896 0.22440202726229097 0.47387590989154516
P 5.094387743416909 4.933904298750042 13.20385562354373 0.8934920299982612 -1.48013292499938 0.6201441689648868
P 7.904564877090714 1.6965406124361602 5.836447768033585 0.755500409111415 -1.5917676531592522 -0.2851327694834444
P 7.65202814357366 5.280670876662864 10.61806072686849 0.4008074720406452 1.4571012399908971 -0.5073323897777778
