# total energy = -340897.7871025505 ev
CRYSTAL
PRIMVEC
9.03451778753342 0.00000000000000 0.00000000000000

0.00000000000000 9.03451778753342 0.00000000000000

0.00000000000000 0.00000000000000 13.22293000511560

PRIMCOORD
 96 1
Ni 6.2476760887419385 1.9808270166510378 11.398786701254707 0.2414343001542294 -0.07153657458740584 0.35197039593328416
Ni 4.63702939592185 0.2589970330800937 5.92585573067958 -0.7900082130802975 -0.6047368332708811 0.027025893769540555
Ni 2.6981406099347285 1.6175219607079032 4.735421616665389 0.1298237403640732 -0.11629459552938681 0.262787826129341
Ni 3.329779872889701 4.225199945989942 4.883029371993519 0.6309101492321393 -0.06055693564745054 -0.3778922580053685
Ni 5.218463844615862 4.681397911818121 2.5397808752198836 -0.4898743422023305 -0.17292931330429573 -0.08583885014269088
Ni 7.240063639161397 6.122593192675176 2.6023783372623375 0.39499780733740364 -0.15228746868422807 -1.3707260577287619
Ni 4.988499233818943 4.66900255368135 11.27080191813727 0.6849927900091558 -0.7687205073461149 0.26524657208247865
Ni 5.789020734128626 7.766956705150096 12.305615563170631 -0.755768575171137 0.4697544315240038 0.49554465311423046
Ni 1.8720875629089255 6.595884465788174 0.3237212205637982 0.2745153989789143 -0.14707841367946284 -0.08970887462105841
Ni 2.586094522753798 1.4058974206235528 0.33783042668784746 0.20061083837996418 0.3084591029142107 1.0092749759985522
Ni 0.4595416407891262 0.1365079470141095 4.840042233837126 -0.46327088068218925 -0.8444155841865845 -0.12136455385312646
Ni 8.751204155218803 2.435507183523694 1.428856840181116 0.05571503417411695 -0.35172331291948455 0.4942575588716907
Ni 6.830510887662772 0.6457665381142065 4.818686441152214 -0.20742529019863631 -0.3143099052680329 -0.3973372541038576
Ni 0.6374050920824413 7.307199139390512 2.4480534181042586 0.7069536105509631 0.8582838575282444 -0.13482864977783232
Ni 7.516375325207322 3.9233928512982668 3.706043137415613 0.9448806688828824 -0.18387424235157365 0.4017353831715533
Ni 7.862072106362872 3.7527308139778524 12.557195257307367 -1.3208070614111318 0.2423940929643374 -0.2522241916808817
Ni 7.769152092925049 8.862066720595129 6.917523230046925 0.5755059614302217 -0.5022989411189285 0.19952763261811443
Ni 6.6924544243333255 0.9004450717851334 0.6484606312602599 0.2170263036235101 -1.1269957624515043 -1.1575602655019226
Ni 1.724797822600047 6.635898344204908 9.224883912588275 1.0199926195263724 -0.4668943363673894 -0.8935735339684738
Ni 0.31556937534017676 4.887095808361858 1.3317999211377345 -0.5979249525553703 -0.4957606257797785 0.6305890184472946
Ni 6.3729758132309176 1.8465018090872518 6.873239638616023 -0.3295467768224454 0.5853692273775467 1.2418875640960936
Ni 3.4681073717469197 4.3906219631067644 0.5249551619651307 0.4148063574228985 0.07798387287464635 -0.34580926142789475
Ni 5.895799697553189 5.468683843854941 4.750535461145713 0.1692991727508762 0.8866053301807569 0.7955440552968621
Ni 5.34014072755029 2.742111607056933 9.156957892069824 -0.2693189423796394 0.4820206504858666 -0.03167650516767447
P 0.3240690494911056 5.543959444434808 12.453447374535054 -0.39049374881946297 -0.13349887522281526 -1.0721664733164502
P 4.050354927024247 6.142125819709943 12.503232083727967 -0.18788696305539254 0.40811814676944547 1.1824799115617377
P 2.477662242609827 8.362421759665104 1.4744621815357861 -0.61118490288907 1.1395625433729213 0.15713836901862616
P 6.235036798630173 7.635323783828846 5.713045861887108 -0.1842809908716891 0.3935155663649223 0.040582549408052684
P 4.622131476411985 1.0903397901562462 12.688009651334745 0.38972961695992875 0.11265262790142534 -0.2439274988897283
P 3.8898205839249127 6.117172482119738 8.407257360120902 -0.21219931454851199 -0.07009444282424057 -1.4095155197921336
P 4.6340209015635825 1.044805821490556 3.8600247449051808 0.915827460270668 0.41610373607808343 -0.13784095424159487
P 0.22340103376604228 5.57951930567849 3.534541793410865 0.5407780710307332 -1.5780294776375532 0.12269587107004032
Ni 1.4872080789551425 0.9660971042255774 2.7149050607791834 -0.09170919288053882 0.5206105949439228 -0.6890836722490777
Ni 1.910339710395142 6.432847561315746 4.785285829613116 -0.37202937146668835 -0.17945065936258128 -0.2503542283516785
Ni 5.922876146777608 5.689026693415956 9.2250429200979 0.4881874414182108 -0.12683843248350413 -0.06685228173785905
Ni 8.486673480113366 2.4034075425179013 10.337594071755058 0.5578918478928843 -0.30062469447145646 -0.3319708128829057
Ni 2.3929275021107186 5.0896677618186255 7.006539428433071 -0.5604333833678155 0.39451289728118505 0.5223154934501715
Ni 0.6017413338864469 8.98341836089623 8.905351997832073 0.18849811427683022 -0.30085223710123027 0.7355543050067913
Ni 1.3845669245878993 1.114660711514984 11.481139039464702 -0.40776950518077515 -0.19430623631817506 -0.670153411003478
Ni 4.003547091378029 6.783287464207303 1.4727167127369345 1.4469528387029855 0.5263891492989128 0.37400115048107846
Ni 5.603406570192793 7.905988896379522 7.986120550165304 -0.6483062332213996 0.0038368572475869405 -0.2631004722737533
Ni 5.588996514632917 3.002278610165243 4.903763589868075 -1.1248172667429466 -0.3377737927179279 -0.35307262785852744
Ni 0.5666874056279394 7.277186471948563 6.809253571219617 0.2136252483617611 -0.028705338354492498 0.19579490504855956
Ni 5.007209719752801 4.556848052289311 7.114835287361396 0.7087739515891536 0.5639200563648353 -0.04485083776610341
Ni 8.18144230325417 6.988371013554757 9.12763004106138 0.07557680609505049 0.7109460195398078 0.20272274251664443
Ni 4.6308949584766115 0.25748555828688535 10.531071879803319 -0.08553828818313655 0.5610064822624662 -0.7178568877270283
Ni 8.114261630437094 7.027273646307626 4.5755964831970575 -0.19537992899832804 1.458850618581836 1.2623185782569357
Ni 7.232528851489336 6.2626101463221735 6.997548276525116 0.21015811574876708 -1.4148269047027182 -0.1165481063010896
Ni 2.4375851225699456 5.20376468449303 2.63690374624169 -0.447010710069585 -0.31300892706842226 0.1592952674606289
Ni 2.3102978042106384 5.220993509541735 11.408809595071716 -0.19102807978753553 -0.04367841472455703 -0.07068605366165245
Ni 0.8987646515129474 3.3264009633101437 3.769712093244525 0.9049552934428543 0.2973251977845783 -0.31602920195198475
Ni 3.826786754682746 2.7660801822295675 2.72328909310493 -0.3467880804013963 -0.1197496439575228 -0.07474402578110999
Ni 1.1060417817318355 3.383923736820947 8.269289435063861 -0.4080322719238586 -0.6337072523613021 -0.2866630900850418
Ni 3.7569499336935026 2.643906400827558 6.9721603786387165 -0.7803074408527658 -0.4084300215829095 -0.2750159927644167
Ni 4.001225220356782 6.7412498538498715 6.050231224018858 0.5700493091910247 0.6329418349501874 0.45988653759098863
Ni 0.8084890413744203 7.423274621417653 11.246379810181496 -0.2728094720314011 0.12991527163661498 0.7727021177016821
P 0.2739383182744029 5.418189925031023 7.928376430973487 -0.012653941318584659 0.7200204710372502 0.2460121493328989
P 8.592585129849057 1.575927041712499 7.995416165316123 -0.5496589184601308 0.6423638995950357 0.4838643885628247
P 1.6276948275169443 3.2070188478441852 10.475178029814424 0.8973036904348677 -0.27758838147728326 -0.2172751864095226
P 4.018679908345296 6.1686873014315955 3.849181516890784 -0.4641147167397233 -0.4490184845282331 -0.5064821259623407
P 6.858517892199209 3.9064802343652953 10.357771763345923 0.14480787247773128 0.7926068270454091 0.4951931833120827
P 6.330504546029052 7.7778794369193065 10.075462964522163 0.2299730935921652 -0.3334286283753548 0.8046532166869821
P 2.214369296414548 8.326148171531623 5.833400994897767 1.1867075764898403 0.14694831585950177 -0.15712165684807777
P 7.093478591224725 4.011885951115813 1.5537599493477892 -0.09648655966452416 -0.09089672428157249 -0.4381234348822841
Ni 5.556887839109531 3.002920060914303 0.2898417795923026 -0.8182512670863907 0.7114944358441101 0.5417936567794411
Ni 1.5578218684573317 1.0682774981956082 6.8602805265814855 -0.2893280385117146 1.020393711619533 0.920044840786125
Ni 6.831314959728496 0.76788791931418 9.189327665151628 0.10724045574691854 -0.33188725203016395 -0.2033629472038046
Ni 2.83482382659013 1.757981605716928 9.220071225066803 -0.16000720592598897 -1.1376586414819891 0.3347288352440171
Ni 6.373310090381836 1.9730663660391672 2.7601408903643248 -0.19626310293422972 0.46467110346382556 -0.45169397447786724
Ni 4.050526582858502 6.889208148460587 10.46699366032747 -0.04872137646510319 0.43348156523489856 -0.6604058446984109
Ni 8.175813798794106 7.0837574502953045 0.27608040239556064 -0.12125502485845568 0.7519893106343629 0.7661859138497191
Ni 7.575307483462541 3.771432265394118 8.207261147629728 0.4471320661387977 -0.3054462842298159 0.5050417939713883
Ni 3.1544018173860544 8.383128873986882 12.349145675834327 0.19300320123603534 -0.4810279475552942 0.24854468594676551
Ni 0.10301970065436472 4.925664163963809 10.113359152015239 -0.2661621419182126 -0.8167230033673224 0.5111013699019068
Ni 8.545343637358403 2.3008567333265817 5.871391141373804 0.5784964115171134 0.7768716756983395 -0.18751903819301252
Ni 3.5298131269030035 2.839575982843732 11.768169277182249 -0.0491234969995283 -0.4446998025482212 -0.6970924014861672
Ni 1.0978203707227525 3.3425727498005373 12.621405380740061 0.9877674409440795 -0.20548307887060097 0.4926434203070354
Ni 3.1043867279945343 8.454673218801089 7.9941341672697614 -0.16056204998819443 -0.7321082554397198 0.08546552596367217
Ni 5.686984892440074 7.765881597556601 3.510701508388043 -0.4705455599667316 0.43743309368347894 0.05354245200283037
Ni 3.181957096042871 8.317682828547545 3.669191340156218 0.02059942141790646 -0.12184457881333856 0.14315850979976638
Ni 3.4231516122071426 4.167912069936541 9.349338909682364 -0.31313079735826715 0.6087611239389258 -0.12276863328950469
Ni 7.416670389057609 6.168922198888998 11.446878341850805 -0.16364326001667948 -0.8323401410792891 -1.1090414919659288
Ni 0.5589936104462526 8.988260862325756 0.5388583810880733 -0.3032485052475487 0.2422192579493699 -0.6029167493430068
Ni 4.553966041177336 0.47960278710304777 1.6928924237224907 -0.5176941926280761 -1.0125194510777789 0.01874051383229676
Ni 6.175436086073117 5.555108039143828 0.3066586306387938 -0.9514727202781033 0.44779129698935144 -0.18486360284803646
Ni 7.884161501876287 8.875275185315216 11.313393344423114 0.2776290049072315 -0.08041562224459053 0.13578767125699195
Ni 0.04426732929923583 4.876037558828762 5.672306511707704 0.10704993700266725 -0.3487308059500639 0.5332401107824752
Ni 7.910117670919249 8.96827650941137 2.5895122807590023 -0.10081089807149089 -1.1275794028691162 -0.3939917346703924
P 8.464466635871249 1.6761740489177566 3.649488864190715 -0.05490899333305382 0.591847893123355 0.0028274421464660983
P 2.0014799238672616 3.168052973468169 1.6164766670224628 -1.0327889999600923 -0.19890208321897357 0.1247553247022303
P 4.650581172310449 0.9689610463023678 8.065352365998883 0.8501666277377488 0.3256512984227811 0.5061337414839864
P 8.350713024865355 1.5141399758980834 12.615111032333438 0.8254326153261785 0.5205092934793681 -0.79825116981538
P 6.265907745243399 7.758943088045639 1.3136504787463645 0.40025288508875584 -0.09227534979665399 0.26988407085449
P 1.735783795992404 3.186311733522407 6.0201751908924654 0.06566057542260305 -0.15663546124027863 -0.3848684322128855
P 7.022214316455883 4.074368674784844 6.175821859974313 -0.9241637480505052 -0.033119151151471994 -1.127215334661478
P 2.4293546770432703 8.601520267747938 10.187368113228652 -0.38474579059209224 0.35818295250189924 0.3057427324243121
