# total energy = -340865.008360296 ev
CRYSTAL
PRIMVEC
9.32056178427314 0.00000000000000 0.00000000000000
0.00000000000000 9.32056178427314 0.00000000000000
0.00000000000000 0.00000000000000 13.64158430810977
PRIMCOORD
 96 1
Ni 9.01293654802576 8.91868702825199 2.757196441366778 -0.7041518794361098 0.8524307411815771 -0.03254373826397621
Ni 0.8912563419223967 3.2454102586735414 -0.327145190802559 -1.8830903535034924 1.4048865056605546 0.6844919391133373
Ni 4.109724584984975 2.995237062446509 5.480697188124564 0.5475521565297731 -0.3714480450419215 1.559253739691947
Ni 4.136661008258927 2.445510334177429 0.7936104094700707 -0.18566373015182863 -0.9044701262763197 0.5043540238757442
Ni 5.532405800248864 1.4341082238915233 4.334135748710554 1.8990245082352457 -1.7434295724443394 0.17981061380516128
Ni 1.602530773566367 6.4365841688934085 8.944636404043342 -1.09964668101459 0.8138158570228564 1.6840106070560739
Ni 5.7228714783122525 0.7495744837260879 8.902170060887363 0.4065965679185965 0.6013897711755191 -1.2798481025002668
Ni 4.532234966795177 0.20462640743367022 10.704087222107258 -2.2494013344291646 -0.5208749043489029 0.6470798170134663
Ni 2.988349167360194 8.581888531710735 12.632352053436849 0.7058526641773005 -0.04511874671550939 0.6274049642923581
Ni 2.0903223694287325 3.8890975693041105 9.651843342567327 0.25768418635418844 0.38955889571001945 0.5870856958480212
Ni 2.7294053225861763 5.142554666588117 7.5968076876274715 1.6023310304973954 -1.2841919812912594 -1.2034274603476822
Ni 2.2486041479886767 6.5288577295896415 0.3979292644744258 -1.929429088669032 -2.1808402975303154 -0.6847498207604142
Ni 6.208528665548412 7.752619517340497 10.518629481838019 -1.3999147634775762 2.6166538533324997 -1.8616887478992648
Ni 7.697991705295989 1.6879164391762862 7.475792310858615 0.14829865923980912 -0.7264279172254908 0.9556803306015478
Ni 1.1531119301672736 5.556788389620717 5.396214684942065 -1.1971490835381384 0.00736955299119376 -0.05341672505824349
Ni 1.4782131217919858 1.4392065711340323 3.9685684064677846 0.35584324862512906 -0.2433122339032326 0.25993621561315877
Ni 1.2048876503357162 1.077112070175648 6.759173469143612 -0.7207673765056039 2.0829663705999613 -0.6980629929295527
Ni 3.376298906436897 3.677045470374815 12.604278521637145 -0.18845466263340446 1.510323075429515 -0.8953668784234708
Ni 3.458282567031248 5.7470303742036295 5.388384481069247 0.9913317612565702 -0.3119555461032434 -0.48743436530227024
Ni 4.51638069136646 2.4993458984785852 9.980837732808487 -1.0867592835289608 -0.2142150594269601 0.645317840017037
Ni 8.96168277931176 3.2506950171497806 4.835668648667309 2.7333996774666924 1.5083530961873377 1.139654331755779
Ni 0.759554009123811 9.011855362870127 8.566055693573897 0.2739086186328509 -0.3963098412806078 0.030734710079695457
Ni 5.058352712312382 8.047242472250392 7.8617679549701185 -0.726116299522343 -1.3616976289779066 -0.5254725510219144
Ni 2.401349512906847 7.401336867938439 7.004993963063054 0.2360488674725999 0.5818092779404302 -1.3832617283019273
P 3.5259405243134667 5.187470453355305 10.942569637810927 -1.0402099750145117 -1.3607041547163856 0.1400960688243587
P 5.080265352837316 1.2490950744147302 6.734263335980303 -0.7375291693449749 3.5153060873754622 1.6091909908420219
P 4.966852758236127 5.729284024752556 7.983723776413144 -0.5021562448934771 0.5386347994354852 -0.3824392539461027
P 3.1224068060969556 8.73031847656806 8.519223599323968 -1.0808627155388675 0.9009862814927773 1.5775479100154444
P 1.580925711577087 3.37021257965562 6.212336114997343 0.2752581906822098 -0.043881017653666365 -0.13846753208200024
P 3.731347062760296 1.4562445578969327 3.453339873168903 -3.012890418173011 0.5058475777021352 -1.4729821728872117
P 8.07421617777109 5.039217599170022 6.211272638908914 -0.04669046207800346 -0.37354066590489216 0.48106471433050046
P 4.326278515208845 4.536457181239156 1.210034464498995 1.3555730041374072 1.57290861147122 -0.8432521600061026
Ni 9.106011677027032 7.267018253474457 0.7210955074930229 0.04325881068863517 -1.4663063035289328 0.5257003507620043
Ni 1.7107424947464962 1.8868638283743793 1.540516416385317 -0.1722394863261227 -0.46703189038651827 0.5173123838086252
Ni 0.36468095682638474 2.23659926453648 8.640128993464925 0.2890081932784506 0.5998784767373152 1.0789729547153224
Ni 5.285354992186805 4.609959130698803 9.807152794005452 0.18027186971229597 0.9914212356465829 -0.3926136233759432
Ni 7.374558894213158 8.202616235564152 8.12098489220155 -0.853462267769885 1.3349671549615978 0.08993384614767092
Ni 3.0129740913358964 2.6896531269933033 7.665069617306975 0.2977969952146742 -0.8194375740850081 0.5164592917797105
Ni 8.584544891791383 7.693489874001416 9.934878975188582 1.4010154527409224 -0.665436465143783 1.4070297772558027
Ni 7.727621770897335 8.31009163237105 12.212819591085479 0.6622297852810273 0.45031200652867615 -0.1089435544809543
Ni 6.790336767142385 2.8238132919086163 5.689659520854788 -0.6422258313552746 1.8410538452577325 -0.4310472447617931
Ni 8.468429334301113 3.2444409202581466 10.949703595725767 0.3481456228705552 1.8169839487927226 0.49209011890672677
Ni 8.952073280212991 4.698970494804766 1.1992095641563076 0.19745815168359543 2.447387333591772 0.8224550207550932
Ni 0.037239372162195375 0.9961816330518701 10.922175316784722 -0.5417198661187123 -1.895518809074832 1.293478548799508
Ni 8.803932272767947 0.557769440948351 0.2658783426687654 -2.034263506077619 0.712304076229599 -0.9977829161985526
Ni 7.238879477742948 7.943299568322676 4.328570441327552 0.8975859975619767 0.2854148195002375 -0.9244789652980788
Ni 6.420552802792648 4.211039090517104 1.1876427471033757 0.19490556046507077 -0.6126789709360932 -0.8437815501470113
Ni 1.8101556056945802 8.27123421070008 10.72491774542039 -0.9137605504393103 -0.5341199422842672 -0.06288198423620138
Ni 0.25038477297731593 4.654175875339503 7.700319981605274 0.38599406117689655 -0.5017363837472392 -0.36520694922821617
Ni 2.423979836681641 4.020592053577087 1.5315546963237583 -0.5509683813001737 0.2088514811222016 -1.4295531551692993
Ni 3.8697014804345287 6.968816202876949 9.82723394415899 0.4613991175807731 0.4028216742571966 -0.3677281729881732
Ni 5.149843345826952 7.491485340570154 5.376284527887847 -1.1809022826619726 -0.5981977466007826 -0.4953235382423598
Ni 5.342555279256783 7.570756717713737 2.6504508445399337 0.2607512553152864 -0.5771296130765738 0.3990483232576934
Ni 2.1147888438557643 1.1602235187340642 10.023972360237387 2.464153240196201 0.47822621644044094 -0.9755323323304682
Ni 9.111026139214362 7.206182947346747 7.051840038155513 1.0328931296381243 -2.6151129912079414 -0.09955234307404145
Ni 7.3046640021261835 3.117858371993949 3.3189019555153334 -0.9299335606547469 -0.10167093207894103 -0.2524699891431007
P 0.33231344225771675 7.019352288341089 3.666434942950917 -1.1695171807534828 1.6039184295891733 1.0168538167870746
P 7.948146260399649 3.8659359735131873 13.202748059301886 -0.49081125219430305 -1.1699002751245142 -1.2848476125973873
P 3.0073258309538846 7.858463815852258 4.643281070784167 1.4819411818527124 -1.2741677642860378 1.330910725504037
P 3.5115682181929015 7.822318677632056 1.1169425584866872 0.9166011052118987 -0.49509008207531513 0.9633273056238443
P 6.846157611082764 0.6228372141378945 2.7226143613414004 0.9493621016930037 0.369887385423021 0.31105977376185134
P 1.2572132836436616 2.7477854702319306 11.29922838719375 0.7320244374766618 0.49864951729179924 -0.99609421564222
P 7.136968456262886 6.104129054098056 1.8056276768272843 0.531620315790865 1.3622272762291314 1.4120938220422712
P 6.720721491906004 2.7810225932059485 9.642662589306136 -0.925839078870399 1.306383172676318 -0.8245077895190639
Ni 4.605037874128336 6.369233790146843 12.355496885269906 -1.300001180409374 0.3296609338028064 -0.2756896217926736
Ni 5.461187388402407 8.594303519877137 12.685704812642644 -0.1152450712189499 0.7549190826866483 1.1736857103088754
Ni 0.3888053666395224 5.418955923400928 12.467411665608077 -0.7634574591749627 0.5397501439868511 -0.38694228402277875
Ni 6.378060362063948 9.235213303125132 6.137798651134326 2.375050117479942 -0.9880818868607049 -0.5606454993786215
Ni 3.628065918712319 5.876026947944628 2.9049208197044374 0.007717937469547997 0.2646369635229378 -0.3152632703202377
Ni 1.3856319825600973 9.134952021063578 0.8603036886177376 2.271471941075959 -1.514895782401862 -0.8400591069901016
Ni 7.110115918044112 8.381235479724015 1.2872963285429713 -0.6414940953955727 0.8390412072485485 -0.27090788413331407
Ni 5.70554455413707 3.3413188384275063 7.643597839349812 -1.019159839212432 0.2825709222935392 1.0724202411984691
Ni 8.403949688553986 2.51387665414782 1.386448463763834 0.049108327490876715 -1.1720024090691816 0.16891119328383813
Ni 4.858808807166354 3.33955725226876 2.9953237436701934 -0.19300320123603534 0.7129782194784882 0.9147923341379343
Ni 3.319266389477275 0.3632670276185444 6.072427959689972 0.02637694733163199 -0.9224197687762049 -0.7432259626194362
Ni 5.805013588455274 4.257259755920399 12.101107998992074 1.0417050715027993 -0.8306542687364339 1.0947944951286113
Ni 6.428978590557233 1.615896459024791 0.16017851286314477 0.09369922672737412 -0.22378341984168554 0.6895418428324189
Ni 8.194964054419545 1.1872904298716263 4.727736544337775 -0.12650727439633053 -2.704106842039846 -0.26882349080045964
Ni 1.2873093773293323 5.499569461427365 2.703530511288316 -0.5388392021368075 0.8620150424359027 0.8095722512551541
Ni 1.93593658565374 8.350496267281976 2.8614450597178123 1.4626437670756811 -0.7315945490280948 0.6525202713027471
Ni 6.566708530598471 6.648897243549925 13.452088929370314 0.8924610176305855 -1.4144898330782736 -0.005332982177139203
Ni 2.528472653748861 3.6485897955459663 4.047880794082788 -0.8943980867522983 0.8313407532804974 -0.19857401045559347
Ni 2.222553178074942 1.607862134851038 12.826213212122624 1.6993261543672218 -2.89556738137911 -0.5582798273599224
Ni 6.8551985559186575 1.514898852590004 11.439150523343653 -1.0107276492846786 -0.6492369725657852 0.22571097588170158
Ni 8.184497063645619 5.485802991816422 4.168035883007984 -0.6274142202637387 0.4767550312115531 -1.534674507690686
Ni 1.015400631249409 8.672969060511099 5.241778570133966 -0.28911746516280534 -1.1348679661107295 -1.6030668802221553
Ni 4.450363152941064 0.18210606628677717 1.583951165900521 1.098156983842941 2.1893953861891777 0.676411476098048
Ni 7.124152683943964 5.919488727088723 8.989939926176687 0.46070080596216784 0.08695368047342444 -0.5776772580499276
P 0.718613441915911 3.370380349765977 2.810139095858369 -1.7172387729815846 -0.7241244659032947 0.28669959974993203
P 8.666966618785 9.149883560885332 6.557509136213907 -0.7213268485534996 1.4939042677518595 -0.34357137323631154
P 4.49512049015958 1.2450872328895404 12.679225158158197 0.13643893168774568 0.13138028621791567 -0.5536420714775949
P 5.459528328422212 4.641201653471911 5.08214531012948 0.021021082336357345 0.1452686141642337 -0.8814996335230754
P 0.46699089834662955 8.365949758558173 12.653578700621658 1.910736654465851 -0.26335501148672064 -1.4905752033786266
P 9.219321745449669 5.381794843956899 9.696683632784856 -0.5201017736283042 -0.034671069019624155 1.3925356974046856
P 6.761321858612346 6.040283206545611 11.24564447805813 0.48339644778747065 -2.040094253826783 0.7984987670498118
P 7.7457595839392415 0.6687549612863791 9.639675349285618 1.1274274506722841 -1.9345993200160614 -1.2423228518612992
