# total energy = -340867.92858913995 ev
CRYSTAL
PRIMVEC
9.21303147960184 0.00000000000000 0.00000000000000
0.00000000000000 9.21303147960184 0.00000000000000
0.00000000000000 0.00000000000000 13.48420283788932
PRIMCOORD
 96 1
Ni 8.766042651111672 9.10251176686177 10.26039909029462 0.4558486200761891 -0.07084931871239411 1.1048683344248453
Ni 9.006539619911555 0.19891210946522045 6.03467921838173 0.8180291237732557 1.7164723271292053 1.3147222886696326
Ni 3.7923508569616557 8.530115345831739 11.644862492247833 -0.007868604114799352 1.9349417909571454 -0.8395808818021026
Ni 0.07364620822462553 7.066588473255251 5.949917487905455 1.1595549273344483 0.4682881313911225 0.19374110784332438
Ni 2.9922820066877267 1.8038286093433151 11.400960387083085 1.482554132846363 0.5638578356683321 -0.26338509339370764
Ni 7.431968081194056 4.136936653278435 11.809720474155016 0.13785483819866579 -1.0454501403675287 0.2125944931044016
Ni 7.581016501407223 7.117444405977262 9.456943529718409 0.39031557137038586 0.2211981756130126 0.40165670741481796
Ni 1.9305814938341517 6.265312715882304 7.518332879114829 0.6657038598725566 1.3843392776368222 -0.2918047821869813
Ni 0.9036657019199282 0.979382078275466 11.878760166734533 -2.0021324298710295 0.34820938622895514 -0.3141597528434138
Ni 3.773473355847996 6.878734765247682 13.034787379149888 0.5951905843433426 -0.5134472444262641 0.05682575073979246
Ni 8.943117112509686 2.1360228785747504 0.33327956431742295 -1.0672839484131682 2.0159762777326575 -0.24703621972203904
Ni 3.4310802609782884 2.081002655709561 8.619587699206702 0.55103702975458 0.20996245479819323 -1.1965219914771006
Ni 3.275066789109716 2.701518739168407 2.0983305249602053 0.13060484150447185 -3.039229827398488 2.0519120723973177
Ni 1.4086632712432317 1.846770548187027 9.571896363732732 -2.4339463775955177 -0.32340955357645595 -0.4667231008968478
Ni 8.49523480936697 5.2251430571539705 8.187014690158943 -2.3835147033075272 1.17055539221001 0.2001269567650102
Ni 0.6733141231768347 2.600525490165024 4.977962955456163 -1.8202803601558069 0.5045717963135051 -0.6063293745689815
Ni 2.1642147543228214 0.7417153526879384 3.912454696770341 0.5512126361004959 0.8119443510317564 -1.0073137385071234
Ni 9.00926667717346 3.0217452807538474 7.525897699107229 1.0022661487808868 -0.4594692475479119 0.12766375659827692
Ni 5.709481325112087 5.772581376418798 0.32464879660474555 0.12239608044143437 -0.9750530787012045 0.3409460197983225
Ni 7.550549006930469 8.379942935801164 4.621130276645295 -1.1055003115818898 -0.3277680876554678 -0.5307654239897375
Ni 8.163851286889074 2.8307130769511515 2.805186531155341 1.055362514385234 -0.2094235515755877 0.672910404923325
Ni 4.185830210335629 4.500851389242095 8.478812581092154 -0.1607487120777038 0.509190011811807 -0.41502412986065945
Ni -0.11139752523942789 5.954354483774824 11.176260081733412 0.19260133781192637 -0.9065702033384581 -1.2635779045853335
Ni 8.10913509405646 6.293799408631662 -0.2368016219493761 -0.8650941955818584 0.13416350539000763 1.795598798248727
P 1.6549183845995017 6.881019597007655 3.655297803488354 -0.5294852717257332 0.8340324411800475 1.028507856086235
P 5.225695839031385 2.9394360592070288 0.049254707883770094 -0.07662607329517125 1.097511122728826 -0.5736172290479411
P 4.078093022427805 8.736109512449751 4.615318696507424 -0.5154640177459767 0.21338407888523253 1.0472254871003963
P 2.0743047819615716 9.341829467656506 13.331278388222335 1.6305126351379338 -1.006741410943421 0.13331684111899622
P 4.990616132630151 0.8872637423139509 9.353047254555475 0.5590796975533985 -1.0994373932172612 0.13661222404081635
P 4.862048280975141 6.6760757159567286 10.920451054929185 -2.8414227770159064 0.21496273622626205 -1.016431127427359
P 1.056789967175888 2.177831614569765 2.38952219843452 0.5565276205555061 -1.0138649093620797 0.3327871381366139
P 2.6215219884754335 3.789365834823624 10.064272080188433 3.524368968908679 -1.6571184106509202 0.9211190476869104
Ni 3.2151636596607105 8.435433023262156 8.642618434825993 -0.9997037873703492 0.9623448871059168 -1.035158271523217
Ni 3.4393719891394854 4.297980440231468 0.7493391360805948 1.6848271894200983 -0.32320232266165627 -2.291130338736835
Ni 0.09466389650700269 0.043966427923184254 1.1107129180144122 2.9493880267439914 2.7394795651121853 0.8769683213116253
Ni 6.295466967295191 5.074003278837924 9.923469322980013 0.14575223866887158 1.5381694082178219 -2.2272193990154867
Ni 2.7614679337738637 4.094704117844071 3.9373197469195134 0.35798472044816415 -0.31555483341872753 0.8569191159702338
Ni 2.6967832410852344 4.790776270914005 12.03407068431566 0.17695926039929524 0.8372332075055323 0.9590947555997352
Ni 5.756891584131555 2.250264466573469 1.961870790701994 0.1652244884608703 0.033068757529510794 0.5018379423221099
Ni 5.937476210451142 8.046827363440709 13.112537071511177 0.5400522486083021 0.04280886763541015 0.6246651967636919
Ni 7.446331196975509 6.001055339384945 5.112022695063272 -0.5739591857683921 -0.5720678822829502 0.13671326839505485
Ni 5.042807954889242 4.46323458248413 2.359195663336505 1.7344803336708514 0.9631249598050511 1.272928235451982
Ni 0.9981490230136427 3.528314593215262 11.472548404117475 -2.979550666370301 -1.0286407821196737 0.09667784973972383
Ni 4.896670852563785 4.268756704978892 11.664023754725232 -0.23171964396962674 -0.32452952611351205 1.1322971200597596
Ni 0.24710086962871217 8.741278023003565 3.6447396696297627 1.358289888847938 -0.4989554785679923 -1.0912692555841723
Ni 5.277961365540798 7.644134978776515 8.704268355007624 0.6174905333921237 0.3773505265692856 0.873313241057541
Ni 2.7463862015517746 2.160124168429964 5.5929641183846845 1.8087566757869238 -1.345430773497083 0.8320331513618315
Ni 2.3813659018332887 8.886917621639348 6.088535835394964 -0.09049408952651512 -0.5778027278841984 0.40140011131932163
Ni 0.6154498375523547 8.770768936163554 8.195252982738657 0.6475001923803365 -0.32239473915869643 -0.2261542340667073
Ni 6.470164466620329 6.093950333884226 7.482168046088203 -0.8541646931535484 -1.1581583040972376 -1.136850543758397
Ni 1.2404885980715694 4.320294402016379 1.983849398147941 -0.24352897789972894 0.3447538235801869 -1.2199311144296603
Ni 3.302899356637468 6.069139640619666 2.4579814700427516 -0.1318453987797923 0.9611120431400803 0.15305931385324606
Ni 8.340971813443538 8.524569100995027 12.594029513103898 -1.0002501467921225 0.6066273654253745 -0.99863780799968
Ni 7.027995085180523 1.0420122649863763 0.193051700261512 -1.0590289074932278 -0.3448890636064706 0.6272368141456102
Ni 7.189250771853231 3.515066254219927 5.02593981589998 0.3200162116241908 -0.2965744356614828 -0.24087817054044325
Ni 7.068283671012652 1.889675634905578 6.7347387713940705 0.08509194467433732 -1.237835762624223 0.35736996968230067
P 6.8578580363440445 6.368839548490497 11.465820127366229 2.5009506115302087 0.7757997827903994 1.6070248364286388
P 7.246546613447103 4.993711711143664 3.2498276898901604 -0.40602012658983627 -0.7054824253220753 -0.5856250521420946
P 0.058095532709864485 4.917197486278393 6.265407610104593 0.7332014885038985 -0.9215422512672581 -0.9289246597742583
P 9.110987755648772 4.451524819714262 13.23024091666876 0.7598162628779495 -1.4362614204274102 0.6264683114107017
P 0.531880273325034 6.803685412357555 9.284669057622597 1.1806302599475087 1.2352610599185112 -0.09893296432248767
P 1.4258640006620706 1.4716988313309116 7.245938553381949 0.20360797333507516 -0.0607965624620824 0.14651817030061864
P 8.46212317490992 3.4608475650769868 9.788371274746495 0.21397723238454117 0.1244251950563212 -0.13606149374366888
P 2.2971495828093946 5.915549195980421 0.523687124598642 -3.712380116246761 0.8140616544850755 0.22502963354396083
Ni 4.778661134767366 0.5789689975524737 6.803198043002303 -0.26181903445816845 -1.5598728613331845 0.8890036552096044
Ni 2.6058506222507707 6.270554930686438 10.275973719690736 0.6508603671018209 0.0699201220299054 -0.7113219148219878
Ni 5.9705786318769 2.9274775445923242 9.911563322643662 -0.0338197767629224 -2.9402762942507104 0.08378376738587506
Ni 0.33705874975267086 5.199060965571361 4.035309547722285 -0.47824035750782795 -0.5348046270561176 0.2377367966979841
Ni 1.8600833784013937 8.47681795981782 10.463727926960372 -1.199809918199753 0.7389134512870112 -0.3637784443118057
Ni 7.187702982596474 0.12660086947454768 8.765607796034775 -1.4928624567509063 1.4490374891461562 -2.193332516460055
Ni 7.2916628276753075 3.7754173054502327 0.9347044043366769 -0.8967503890345588 1.615347497361721 -1.0480364130374662
Ni 5.7238812930186995 7.624179553001901 5.540375214476984 -3.2018348759586406 -0.5864107812681837 2.633611564232761
Ni 3.1170448764198757 6.166595085607605 5.142119825682161 0.17211710181564552 1.3041663675306572 0.7828142664350196
Ni 2.6175327459267685 8.697949136845663 1.8953259869958694 -0.35672385145786956 -0.6782953233843221 -0.5572501005438274
Ni 0.6331222741732532 7.108913139002519 1.7790381847475931 0.933171093755438 -2.0798360525010957 -0.6830534068945978
Ni 5.877453311595364 1.1099767968143237 4.704570858434552 0.06729219748875508 0.2876326530871627 0.010851855112839374
Ni 6.992064263148668 0.40139611116165885 2.547313785342105 2.5172663179710972 -1.0730452763769778 0.18869351811708793
Ni 2.177223554504611 4.093487997713762 6.510065183835139 -0.49627510352235177 1.0239336064519913 0.3159081029930882
Ni 1.8714246199196538 2.2608041743694796 0.22584732774530544 2.346692906493488 0.6308543562935393 -0.2763946182794982
Ni 1.178153228361946 4.663489030608336 9.033215952012386 0.15398953897699932 -0.9843275620245949 0.30824210180739814
Ni 4.345925055065768 0.6101855114731234 0.2601548136638238 -1.161258026068484 0.12916219552067434 1.111773546185111
Ni 5.192961938857235 4.891133820758363 5.0225825872978245 -0.30325107635071 0.35721416083072677 -0.5620254104452836
Ni 1.1338846130124427 7.365431569216093 12.526419682980622 1.9933839942544378 0.05746569831663652 1.1439051366123332
Ni 4.830373879399367 2.79871621928022 6.288559957736914 0.255789797544953 1.3872327971345335 -0.16039389984144636
Ni 6.0405331784635345 8.76380388450815 10.80971871054891 1.0258454787627236 -0.4906184194572067 -0.5919872469146966
Ni 5.622657718233061 7.097148098044908 3.379585865187866 0.19935331182377924 -0.8690974032039807 -1.2307469740982417
Ni 5.527827987162834 1.5050223655076347 11.959813652116495 -0.4906942670004646 0.8184919223422872 -1.3933131990006584
Ni 4.7547993837256985 0.33193077653653486 2.7682929473536584 -1.8439509642998693 -0.47394944344195794 -0.4122411677988836
P 8.082795037597725 1.3484008335739073 4.455302162543251 -0.44344073333013956 0.5066870428842951 -0.23828984098797673
P 4.183536165544364 6.507560160627329 7.215895779647673 -0.7784588176798012 -0.4591825695454286 -0.3284633139502795
P 4.7064862476397895 7.729456861555236 1.5312389673470825 -0.3215912694207946 -0.0739115025774856 -0.8768253679758578
P 7.886732518710569 7.922663340742423 1.3133857868523002 -3.0719864530042194 -1.292399456802716 -0.0003136745856768791
P 4.824542030592658 2.901441518166165 3.9013704988250777 -0.9167653987039049 0.31792873296754276 0.8351714398804971
P 7.706931000050649 1.2939333925861312 11.545417032501208 0.3890436466364977 -0.40894064267074093 0.16754645172582758
P 7.213637665678441 8.20322778262347 6.923275165020246 1.2409110591154373 -0.017402768857479708 0.45112010425226823
P 6.158284931383827 3.4905595909879437 7.889121457724122 0.13081155819863924 1.2371523634039532 -0.6640411274581531
