# total energy = -340868.25916963007 ev
CRYSTAL
PRIMVEC
9.28331192484610 0.00000000000000 0.00000000000000
0.00000000000000 9.28331192484610 0.00000000000000
0.00000000000000 0.00000000000000 13.58706537356091
PRIMCOORD
 96 1
Ni 2.3523540881331813 3.473313993349055 12.690509162499664 -0.9764730989771829 0.1597143572759185 2.4071863358928547
Ni 2.559780407985301 8.970584918334302 10.342583214116281 0.2976255026338165 0.2786510184138427 -1.873462086385109
Ni 1.7640056333682417 1.1511121020866084 11.862771945202205 -1.0941686886191544 0.06014787313448995 1.1353125098473158
Ni 9.307819787707196 2.123028435640032 8.306126303081554 -0.5593581480257657 -0.9726020460575509 0.6187118073937345
Ni 2.616807792645683 4.106222344967297 8.467649430856483 0.6328492752363811 -0.44004482027471314 -0.8882518646452444
Ni 0.5508522298940706 8.290638025600293 5.046276495608241 -0.8005620773367439 -1.3478195854442336 -1.056090393690194
Ni 8.935169083647772 4.822086371227435 1.8066856595730447 0.5593090399553852 0.8839966889133164 0.17079169813600265
Ni 6.918230335765975 6.083846267187898 0.7712408380745792 -0.18185592636996423 0.05877387560509879 0.1667280695895903
Ni 3.7484156565471274 5.586743484541939 1.9131671030911164 -0.4672427208457437 1.9654163053969183 -1.1450641899174407
Ni 8.74451770829855 7.119093354144078 11.6069953522707 0.8135592609273601 0.06546002937602276 0.2389850672827884
Ni 3.6196468379529296 0.9097766290603101 8.04529494685075 -0.1439349829544747 0.8347189257241108 -0.4881604448350173
Ni 6.000203627469514 8.504293447700032 4.4543159042046305 0.9223449496742114 -0.7910636509280053 0.990797743129971
Ni 5.545404896898657 5.474582510837441 9.98166940122178 -0.011840187168037674 0.38974735757174167 0.20976242297224518
Ni 8.8972374714514 9.171522203207159 7.44408167853179 -2.7235904046857544 0.7918516940469394 -1.215141920571133
Ni 6.549450772745681 7.469612642766363 12.197489180402888 -0.282686621935797 0.5403276137568759 0.9676128203730754
Ni 1.2004064879805736 1.4141083266395333 4.467277264201835 -0.7397634579921325 0.4808811375647847 -0.20850438219542802
Ni 4.534962819190816 7.413067990321893 0.1302262985537746 -0.5066998984001017 0.1898471721055569 0.09571522871613838
Ni 5.704465162041255 1.965054317983233 13.679321123609967 0.7281212457675138 -2.671592157241592 -0.5210903627938187
Ni 1.3613419821157486 1.0286745021703172 1.4059352988916902 -1.0632069501303174 0.056590237690218675 0.41703396120183667
Ni 7.698622662656801 4.890680762445986 4.432820395628835 0.15922379079274512 0.6415791989102112 0.861072218906659
Ni 1.2945299867713291 6.444020200128399 10.074374409962704 0.412729934509844 1.924533451139628 -0.8723912434639041
Ni 5.02753534565669 3.7592956980288084 5.354865849622755 -1.0881602776415453 -0.015614052388173108 0.12085239010339834
Ni 3.180082022118796 2.6533004915061684 10.792463646071955 1.0797358010232758 -2.8144894429601726 -1.8463744861396976
Ni 4.1261907487446825 6.101271043519908 4.364763508166076 1.9392532738483055 0.08357396536791413 0.003742240651251619
P 9.082337426317645 9.385335441608254 12.27198682962332 0.573914705683702 -1.1582840310418245 0.8318107509383803
P 0.3077844908776002 8.789402521066407 2.7473042355741306 -0.531550124674562 -0.2063647101446059 0.4194685387852582
P 4.55561818804469 0.9766972391533094 10.00262090772349 0.002724340909698534 -1.5985502232987243 0.8717135006705891
P 2.2500891248548536 6.919873481962441 6.032412077913791 -0.011529083685522079 0.7497714770474377 0.3159878071910881
P 5.030515288758755 2.636395580637447 7.717792701615566 0.5297822341408617 -0.6915244204800864 -1.9816615636111872
P 3.667715826683429 6.096388021489734 9.323756449150544 -0.874050890554514 0.1734803007117593 -0.38153808228807196
P 4.051218722289002 5.4303846631460715 13.212496790875825 0.4209852325401008 -1.3290415335057821 0.06835200621183712
P 6.178740280861743 8.653309169426947 7.011632521226418 -0.010294697057788722 -2.834073792850003 0.41896203146248484
Ni 0.7241354571135324 7.194362446578779 7.928297367675301 -0.18263445640720158 -0.7446218145256982 -1.3203262651199712
Ni 5.122856391675378 1.2908909285283097 3.857911391421088 -0.7981084735899286 -0.8038913988202929 1.001033047704734
Ni 2.7537366423511416 4.835352223853137 6.125864393258193 1.4577635561652444 1.830263439510448 2.6665093434020464
Ni 6.551678767588346 1.1469346117566113 6.1917610540547505 -1.3941269531512055 1.918198252950219 0.23122033573570502
Ni 2.052930147902682 -0.038674277143928217 6.361422861323698 -0.05066770155819661 1.1111765360310606 -0.24833025594311425
Ni 7.931726623070637 7.317542711442626 6.119546171216869 0.4818650987446088 0.1053434958345218 0.3858323387880517
Ni 8.100747881822317 0.6113571431713788 4.479858936744601 0.7017031607853011 -0.3628271361421299 -0.4419312386641486
Ni 3.0781605413787125 7.8524007233599145 8.196275017363952 0.1564919936838789 -0.8661254650598503 0.1218036982730741
Ni 8.118720373553149 1.1011121844924658 0.5786000489970954 0.2516876024511214 -0.10008996074506633 -2.0005170057547934
Ni 7.331263446348705 0.8027112652272235 11.119885126494092 -1.4562458339691373 -1.1582860879243535 0.42205121191076994
Ni 4.071261392561143 8.246421611285237 5.968825105104129 1.2930643440802247 -0.39938668043371855 -0.4196523726612902
Ni 7.468953527625408 3.6160820462046654 0.3777528122491285 -1.0039250245405484 0.2506244512939297 -1.2771458730777552
Ni 8.609222721477712 7.808007926119814 0.3816629431980057 0.3094482063003574 0.5315071872517685 -0.16720269523316364
Ni 2.478282213302981 8.821253564004675 3.6615099327154224 0.4897200760126534 0.3754828772329275 0.58826326109589
Ni 0.23149794746474744 4.777025175534534 11.195170928890116 2.0637926258849872 -2.578544190944972 1.806559411025289
Ni 1.9611831769441024 6.2744140927305185 3.9522326247541297 -0.9155389824959718 -0.0008294378798308295 -1.3646006615573143
Ni 5.34840373624784 2.971272488801855 9.759004524977014 0.4884962309078813 0.7950015525298307 0.8433033249590122
Ni 3.488715007698978 1.5173016211023052 2.269066999258438 -0.2950176326973242 -0.4167953628284693 -0.15950301259606078
Ni 4.810370831679755 3.6654599819052303 12.269364294027266 -0.21287114380455596 0.9941702591466296 -0.5396287879176384
Ni 0.31363112067722715 4.612237106983917 8.208150229875356 -0.837934347337615 0.5524758190836356 0.8463945622898262
Ni 2.065889651237517 8.4855690077098 13.514605464891735 0.28828905572423896 0.05197690728792338 -0.11873997174608582
Ni 7.790824515895759 3.2084796730509315 9.862008439878158 0.008219559696314877 0.6886820659352849 -0.48430507564466924
Ni 7.235914550394484 3.4780299157660295 7.436010767214236 -0.6965254732391037 -2.6809602287200542 0.19613274800395256
Ni 8.49952182541199 6.820152146129489 3.1908683021508484 0.44264677667393443 1.02787793581172 -0.25626313763694575
P 8.509612785386896 1.9356447860600536 6.267142474562771 -0.31415666751962024 -0.9186531026449211 -1.1164388128712643
P 6.071824378349351 8.969990786376258 0.20044155602036492 0.7855591761700084 -0.2115899630992872 0.2300761948289328
P 7.994416827956126 5.212616733899248 6.81904928868237 0.33693072799134227 2.577753576722877 -1.854055399723723
P 1.093379185726049 2.6227676788498124 10.03160247897064 0.2492584241843384 1.114504829073345 1.7502075145981213
P 3.18134455252964 1.4591231057732128 0.003072776220508939 0.5143802977634948 0.29090746718369254 0.1474118857594816
P 6.445106347614199 2.089311447021034 2.427777283544501 -1.0061271743981899 -0.4180696015552026 -2.3384630623845273
P 6.696767648405066 2.7865717163449184 11.753246503730342 -0.6269917880143396 0.09591937430714449 0.41407102191877077
P 8.201332565656802 5.52727458886647 9.926166336366252 -1.5753169638023967 2.2750599155375335 -2.461669554542399
Ni 5.2541688377149525 8.355500525457382 2.2733466060187237 -1.7590564803483189 -0.7418247113965353 -0.20744097392792016
Ni 6.926826682533925 4.996148468310646 11.60329966582543 1.4843973567026887 -0.2874475336595501 2.138746453684058
Ni 5.2338755180230105 4.7156903341783325 7.7970461914939 -1.2695996852993812 -0.1762673765385932 -0.904654474372984
Ni 2.4419751806793846 3.5003469974400585 4.567156416336142 -1.6154894222562244 -1.721620189878732 -1.9705050327737352
Ni 2.631326892370384 4.699518804945322 10.626253374146769 0.4601230790818269 1.833621300239087 1.682449176106225
Ni 2.0387359640925364 5.967869852315336 13.12809384791738 -1.5442791206599855 -0.38003424404903585 -0.44147615340460095
Ni 0.9503326335151059 3.0458917494074464 6.5052287884435165 2.216885878299963 0.9120137429515326 -1.5020081278059165
Ni 5.848514311931398 6.446359594713198 6.003961512104142 -0.13788903387071094 -1.7620222478448622 -1.393270518688181
Ni 5.499220420472579 6.941624281613959 8.130473046348207 -0.14867481163230525 1.9151486674906177 1.373257308791048
Ni 3.2628334639001153 7.1903520558619824 11.497293527873794 0.7385043887740508 -1.394497706227063 0.18708297909685845
Ni 6.191662650949199 4.391897700356184 2.5212425955254862 0.09159169346606806 0.48474627694714584 0.6359291997132854
Ni 4.2870983929443245 0.07993952662363904 12.080912135253993 0.16677614921870632 0.8135464054115537 1.0176022649173249
Ni 7.594176121095031 7.7407967483660824 9.483989196579094 0.7858504821581821 -0.7470975297597005 -0.280207307157369
Ni 6.862066299107126 2.717893775319767 4.351121681410675 1.4640527316080656 0.6089382729467383 1.240724654136244
Ni 7.344649982028384 9.107439501545006 2.2384014352427064 1.0498696095914628 0.1475018743701266 1.11605391872802
Ni 5.458141765560941 8.132719607814561 10.344049977387701 -1.3581721323231513 0.4572136187445158 -1.0079161479778125
Ni 6.602801965915664 0.6564861070407447 8.885410532161584 -0.42262019704036247 0.5590555291836823 -1.0752386844838706
Ni 0.10359526186563565 0.31619238641510755 10.07897986096873 0.00441844078266981 -0.13806978242294932 -0.1994103903139598
Ni 4.475893105924658 3.383070918909275 1.2282220752600628 -0.9964775671235678 0.7503206646826884 -0.6315770933921767
Ni 0.5539147944715506 5.460211944102251 5.565832824612343 -1.5216343866772761 -0.36317114974511 0.6388060070404482
Ni 8.81126472046006 2.497108769723501 11.893750356827097 1.7405715341702541 -0.2799885062783436 0.9830782629985262
Ni 1.2304008685499521 6.782879649074071 1.6422002269885567 0.22826922352718107 0.5055686130091357 0.41241703125511553
Ni 1.9386804290331847 3.5437000637535836 1.8765778577874488 -0.8106971088882168 0.3021485873151506 0.19646416320144228
Ni 8.528736407786436 2.545530524304089 2.427655672159339 0.13130803821908354 -1.9117704950470042 -0.005178201766829791
P 9.050235733959578 5.324397091818124 13.217754858704515 -0.7759651047236701 2.213647316758007 0.7886149322771967
P 1.393787157012059 0.14733915560781138 8.34825954221872 1.755635370481912 -0.6127779584078027 1.9809066877230337
P 0.27896166426298946 3.7655712168356485 3.6630184708901434 1.8518249677313077 1.8299901312444031 2.35006516539983
P 3.1471726816302636 7.919416951564911 1.940232598773575 -0.01563384988251501 -1.1708677812441062 -1.5611864379382856
P 3.881287698976567 3.9663971019663733 3.214373647740965 1.6247929590453374 0.030143870573231958 0.21662649708193013
P 3.071457990227028 1.90969792945485 5.977914395731018 -0.3604648065575405 0.19305256641673202 -0.3082845250095594
P 6.374850243575493 6.4963595123073405 3.4981533508512177 -0.7145255093609499 0.08987496788527746 0.16007636860102756
P 0.2234066128611354 2.889375111710224 0.4011254064798697 1.6979884093924047 -0.3433286610978861 0.4344878950122259
