# total energy = -340870.2248647614 ev
CRYSTAL
PRIMVEC
9.21955013769626 0.00000000000000 0.00000000000000
0.00000000000000 9.21955013769626 0.00000000000000
0.00000000000000 0.00000000000000 13.49374355292925
PRIMCOORD
 96 1
Ni 0.9513561680900248 7.8238486135510215 8.451388363024794 -0.24142452996221647 0.3578697921368546 0.10357123442544745
Ni 2.561154174095461 4.93187853830906 4.146316619946681 0.33749302825271554 0.9157181883863132 -0.44991965618626384
Ni 0.6433927660843699 1.520875444092555 5.945100654268862 -0.7604220147827485 -0.4598862804806725 1.2065127841412253
Ni 3.0251833564321347 6.867735157545284 12.878199657039003 1.0897443342992137 -0.33101667649975247 -1.423200473478394
Ni 5.998027326241208 2.9536212075915143 11.81297651194937 -0.8361525728468439 0.8783155793681389 -0.719251968302342
Ni 8.10256483638029 4.6845917621942545 8.51173216315255 -2.6440319882351364 -0.10948837124083079 1.574095946911102
Ni 8.27087694527418 7.330971458562672 4.425408078470078 -3.158057473762374 -0.42567466759597006 -0.04475339295629067
Ni 2.1682446021886435 6.274779784872712 6.745846249895556 1.119165724884124 2.083244306851696 -0.6379637136448109
Ni 4.683780441774521 0.9649642242210161 8.139089006548677 0.7639765649032262 -0.3088267706662746 1.0620237284554934
Ni 3.1360853260796255 9.027359480274255 11.748314274496577 -0.21614775767329872 0.16266984035981663 0.0695020606558803
Ni 4.290686478863218 5.921514278930166 10.146134382841439 0.45514105248620323 -1.7980801699096838 0.8598170063433193
Ni 5.5448311154180265 7.650096970024825 7.691110139197397 -0.31068619247251655 1.6348171760505588 0.33030345248281184
Ni 3.806355846932748 8.997331405193876 5.354263934237823 -0.5340476942854351 0.4855520606778928 1.6987013762990295
Ni 0.14976698361781202 1.0124172492252255 8.709375349129864 0.19642122577864882 -0.10713786873078322 1.1079855398975886
Ni 4.544574452938585 1.6259690970987686 4.080211522883793 1.1462396982827807 0.39168082714902863 0.22476866657309033
Ni 8.800475568805712 6.09424255238147 7.072233079114327 0.2553583664344893 1.6535157809013266 -1.458464953107643
Ni 3.8408185256709904 6.276448523463302 1.4740567241437739 1.3092970038890033 -0.6020420600475372 0.27768119830140564
Ni 0.9090633253463275 7.711674345972584 12.464508296971706 0.7258815578037175 0.6586032442720335 -2.3431229297540423
Ni 1.1256794237301238 5.314572848567409 11.96057136953435 -1.4914954012000508 0.18090564664155295 -0.1949976059582448
Ni 4.528274288142113 8.978357570832372 0.2793625132999898 -3.0112690805195044 -0.6538353905697448 -0.25427618911390404
Ni 4.753378826417376 8.329135283141209 10.151667034931009 -0.9611562661144541 0.14722805188344967 -0.48743256553005737
Ni 6.378416748943495 6.521891389533257 0.7786527874243261 0.49679703746409276 0.7896767978828078 -0.3035832628791481
Ni 0.8766851869137876 3.1288848573544867 13.152810414153416 -0.7815027467124477 -0.5872651588486789 -0.4866591776991425
Ni 4.484656596031192 3.4042267248016818 9.47719608699572 -0.34892595268000554 -0.27286295097715585 -0.27524893471082923
P 1.775593177688105 6.549679113909145 1.0798020198592386 -1.0658788405355257 -0.8825980087935767 -0.8553283744443463
P 7.515491536750791 7.472399359002651 2.411183438417693 -0.16810643799435565 0.33969440677940854 -0.8779329992177396
P 6.367297971373051 2.896939412812832 2.9147432862508786 -0.5711170883339067 -0.5936414946886679 1.3161510506963592
P 3.422859435804889 4.56022924921936 6.217539285350441 0.9809794714879685 -0.7038412901742266 0.0173163797912605
P 8.225719588275808 6.090287365335267 12.50140032719404 0.5387888085148463 -0.23643607560868957 -0.7761882764780696
P 4.519598691381096 4.021908931175688 0.11481843458275154 0.8565288225103506 -1.1464111908636385 1.0137998604520992
P 7.516699297830168 2.0329938003989114 13.023985638869986 0.0354007480967971 -0.4988557197653344 0.19678657953786755
P 2.2483163958862455 0.7399684766383999 13.364392638114772 -0.9576215134883186 0.4482661797432409 0.9942818450238295
Ni 6.108791002635336 8.555152556888672 5.15805070050029 0.9586026464546652 0.3769386358428476 0.21989411208960838
Ni 9.133568698857603 7.988306950451174 0.8016629408740067 -1.6263747017101602 -2.0287806285861767 3.206615842287052
Ni 4.723000408428475 6.634120974413039 5.707327532030459 -0.4708474074778665 -0.881091085230747 -1.406562350701081
Ni 8.05083394007203 2.203002306534062 1.7391547493368058 -0.06414979520503145 0.7278132276087917 -0.9251780482476325
Ni 8.176570166030338 3.9890320150760163 11.35646956064066 1.4649063378576126 -0.20237795758271596 -4.069396816354701
Ni 6.809273989573322 0.025907858085161967 9.603591510795061 -0.5920888054895674 1.9224621704328955 1.496040854478888
Ni 6.602553234445211 9.10192720248798 0.751837725597098 3.600020336995407 0.20632434382497372 0.23405369141944207
Ni 5.440908345290293 5.493699489874342 12.36105203608532 0.280211163812111 -1.594618749454802 -0.9910139729058353
Ni 8.989596202555731 6.253445745653801 10.162880773868764 0.4003788691436588 0.3612605629859585 0.05869648539994407
Ni 1.971656132756983 2.1429645954737526 7.70657409078853 -0.42258523003736903 0.6414740407909145 2.007121912665821
Ni 7.110670305954243 2.4627815732027245 9.206632712429753 0.058111045210119276 0.4260312796044405 0.42719958888092874
Ni 3.7330788617504176 1.8328558041309153 1.9608840102749707 -1.6435147038245566 -0.8039824158722025 0.8071821537564228
Ni 2.215310406083434 7.19910423170524 10.481508429618806 0.03671535314316257 -0.49282828262433187 -0.3088666227652745
Ni 3.9861370763056025 1.8961664555208326 12.814239027358276 -1.7413485215455944 1.0096035629825644 -1.5388003569336015
Ni 6.75146740966728 6.922250358021269 10.444494701333515 -0.9157477560726681 -1.0587669120810927 -0.11559139881477513
Ni 9.209325743050256 0.814479037640735 0.10560072826854745 0.08357756491233993 0.5002592849810804 -1.663148161784768
Ni 7.780608922999294 8.106759731732325 12.267904154304665 -0.3330229082965039 0.6749282066843022 -0.15860595470308816
Ni 7.22800752165826 4.822184329740946 2.159133842657041 -0.2211704076988707 -0.1761262229750386 -1.2409208293074498
Ni 1.5230143797445808 2.044352286275186 10.982031357608127 0.21260477751704676 -0.8153762595314409 1.1912211480894774
Ni 5.533371214489285 2.0578312687030382 0.8960868084056971 3.7376733435959117 1.3635753056165936 -0.05816632392808692
Ni 0.4823318334418528 8.145094621564752 5.9867693334623775 0.945643515190836 0.24791707966509563 1.5637472566869264
Ni 6.802940158569263 0.5273029555256944 3.0640649655928596 -0.0112298072775484 0.732112626315094 1.070206521376602
Ni 1.4650971652358489 1.631574583635112 1.7188330167325163 -0.23486358891524714 -0.30890467509206154 0.8879042514978386
Ni 7.38692490887364 4.29361829583453 13.232397259509224 -1.9903503496344366 -0.30741472081009635 3.8615933168810397
P 5.248477893009769 7.4997261058673255 12.263464940871689 -0.3299941487725091 2.0171384163615587 -0.3275852822207003
P 2.305929365237577 3.9834726262907947 10.283041937806468 1.097558945247626 0.21790844911814727 -0.3364347621915303
P 8.318459043981528 0.27259812930045835 5.0491161828706534 -1.1366744231918489 0.4333213855079505 -0.44553129731058105
P 2.4491827366219576 0.5085301073590787 3.7011045396176994 0.11361036382900434 0.48843863819706845 -0.4478247213304481
P 8.944669334312966 3.167763700650145 7.39400460149084 -0.016976737063654632 -2.0699164793945384 -0.9761491399788608
P 0.8963578631822899 8.96670405934892 10.562969609535205 -0.507276596839178 0.5764387576571363 -0.08765250631266196
P 7.567176335307931 7.827471896789151 8.489548081402962 2.5761224688773567 -2.913713199050201 -1.7237012407774768
P 2.0585872718214264 0.03516981824044246 7.063165651468778 0.4336409736308984 0.4476190330775452 -0.021085617025705623
Ni 7.624107057942667 2.4883658250750154 5.444765805104118 -0.652173943706922 -0.776214758840631 0.7424142653514181
Ni 4.7294725326858975 4.2203413106521985 2.294246351193409 -0.024806774631034693 -0.48495453630320995 0.23069891601459622
Ni 0.6730105711797696 6.853739880304874 2.8558294383629055 0.18739948189601274 -1.1055867006481088 -0.3531374196581918
Ni 2.2049199729807056 2.6449506660836595 4.626329736507135 1.1586478421391464 -0.9652916284390666 -1.1505298410177025
Ni 2.7300102364525802 0.5123147327261328 9.537377623039529 -0.2589175445406573 -0.3250949116986788 -1.2721016257856284
Ni -0.055601263492400556 9.109090793012221 2.994693381885521 0.582104697693662 0.1311540291397225 -0.6416995265381594
Ni 7.482872768057398 0.6085981835380544 7.448007194974355 -0.9359957076884269 0.10043808811310444 -2.026393616411239
Ni 9.299114942684216 2.025940844477361 3.738684348286761 -0.2339217938272681 1.0269865343457023 0.48115238894830037
Ni 2.3066300510546203 7.467098117623708 4.481379967881494 0.4412085015655111 -0.11864304115690535 -0.6421055037273263
Ni 3.7175347000723336 2.3481641248148613 6.5350467657482385 1.053185047117941 1.205090449872402 -2.166367814945753
Ni 5.932928082107786 0.3988110060053592 11.969328098337341 0.21300124162451706 0.0953007668865391 0.16476888898069042
Ni 5.141014815595923 4.0078675561841575 4.789618112483831 0.1683334664034972 0.7116913823462646 -0.028754703535189184
Ni 2.7295031611902463 8.313674097415143 1.8814188629821242 -0.7589402880308993 1.976634542710241 0.3914823379849774
Ni 3.1370257202024985 4.4849147434374705 12.100649527821497 1.5038662640605778 -0.5870790109798019 -0.1648722473277741
Ni 9.185714474925955 5.186384222249452 0.8394391259628443 1.8247769624745802 0.5463234263289946 0.8866703790907374
Ni 1.252826240872741 4.218432863755779 6.20554372855367 -1.121500800775204 -1.0882446098252354 0.02199861575827824
Ni 0.5215010925695746 3.4006034415635518 9.447144963039781 -1.4687509084146833 -0.7015180413576887 -0.16423795617788486
Ni 5.185038167916711 8.130758220966044 2.297431705795887 -0.07834614131007152 -0.9240755592120731 2.152237289081642
Ni 1.658532548490816 5.399752273089246 8.752109808329303 0.11684429738526973 -0.010613513849788172 0.707415123568414
Ni 7.6198384061888405 4.543219179055622 4.252417969792406 0.6280734511142926 0.4292420732322543 2.4729137599976507
Ni 5.197014363658011 5.362154947274758 7.766755626832337 -0.8486769305660996 -0.7282845108182554 1.018582369442407
Ni 8.214600810705363 1.0582568529401912 11.129059212854315 1.5136387700663094 0.5669794120164493 0.31736103338953087
Ni 2.428328114014706 4.286076703751093 0.9130461710432031 -0.20893632752652402 0.1873110359472645 1.4302692073997174
Ni 5.894353483969529 3.205563856569565 7.095280110764905 0.8194239472382532 0.28901873480141194 0.2418330782545448
P 6.670233952641423 5.551644363033747 6.200320853351633 0.570239827935276 -0.34255270216381006 -0.4455243553320456
P 5.307768820501914 1.5478149698478105 10.32658679547062 -1.2821883205976694 -0.5406646853813205 -1.5346266851718862
P 0.6128152058106258 3.5756919198722636 2.3696631939827877 0.2722875380896601 0.7161512178898312 -0.8884434118307603
P 5.633080650164538 1.2670427873185328 6.174966168279926 -0.07346053108299606 -0.504579509622989 -0.7330906739576472
P 3.496606618048656 7.111601480526892 8.652552495232749 -0.3657180845366798 0.52428804379551 -1.596547848156715
P 6.258405863674446 4.675132503664175 9.904853221742709 0.23994408876194806 -0.031115490457881895 0.3297825469823353
P 4.530210393689205 6.110763986383324 3.47882210566608 -0.5428074427559362 0.26854092656303424 0.9908386236702355
P 0.5053475186216679 5.945079449303346 4.928752188828017 1.571835175901383 -0.6681626058256944 0.5737779229955214
