# total energy = -381167.11237796594 ev
CRYSTAL
PRIMVEC
9.21930420906352 0.00000000000000 0.00000000000000

0.00000000000000 9.21930420906352 0.00000000000000

0.00000000000000 0.00000000000000 13.49338361150887

PRIMCOORD
 96 1
Ni 5.064689273693031 3.5082955652382672 0.4946589987443821 -0.43354352882108566 -0.6651279327644287 -0.5056768564522259
Ni 6.054999268309072 8.852735404266665 7.420510971917981 -0.7213124503757965 0.37872632387088967 -0.48359647961341884
Ni 4.559849397368243 0.41251131098521204 1.540013770759294 -1.1533068895422072 -1.0375907922241097 0.4523683748370725
Ni 2.73280457678092 9.279045247783431 11.043025418285842 -0.5071074182511653 1.0144084405703757 -0.9999817236220842
Ni 0.9400740062653813 6.907425349955309 7.223210487518128 0.19548585844857302 1.2799193220578347 0.01069964580569125
Ni 0.49665313423350815 6.516065888497151 1.8882232010417448 0.1371819805013573 0.5714927265057705 -0.22453006819972302
Ni -0.2931130247803014 0.49267316062899724 13.69011720239014 -0.42868080141214554 0.32082250957557007 -2.813923286044057
Ni 2.504709772636367 5.173689106739435 6.372951864279167 0.7761543379163407 -0.05572351881454919 -0.10343290907537026
Ni 4.5962656487877895 5.970393714061687 4.6911368982138235 0.44559094690392287 -1.1742246135314809 -0.20131094977078232
Ni 4.850690785604297 2.1024807515772865 7.123845749246048 0.615905705403507 -2.105728089776509 2.4400612322440045
Ni 4.330122776387928 0.368320420370197 4.734990362296699 0.7629296116959505 -0.7188231082950394 -1.0734659088541643
Ni 8.94003299532785 6.7008576210169934 13.06160865817499 -1.0040237549019417 -1.0123574715786177 0.8790342027017184
Ni 3.8857062195071155 3.3104216401198587 8.93168860313549 -0.14565839340348463 0.03996882708345375 1.1968855454641063
Ni 6.675864087447781 6.305755122071156 3.0388587388061876 0.07519602571686405 0.42600479724187923 -1.1672551241921834
Ni 8.406852978024915 8.539703150925082 6.221758963828538 -5.594204972774269 -4.060142387635969 -2.0841745319754494
Ni 6.627536495057589 2.4086446233220205 9.0521037785889 -0.3812508900649563 0.6603137992052369 -1.3569408310192115
Ni 2.74692855074921 3.5512022067842337 13.062674409735521 0.24261135118146604 1.1606396757581945 0.08541461812107871
Ni 4.476442352661248 6.690061815849326 6.872436246819243 2.0630068967588984 -0.02697935680232128 2.744459791935596
Ni 5.215821326736226 4.393265790558174 11.879359204526303 -2.024661464211481 -0.8938771812518218 0.5521444038861459
Ni 8.71532167580886 7.800609975278966 3.7935703376244176 -1.9446600466861736 -1.6246667178801182 0.21350054985843875
Ni 2.990862119435226 1.6239527693161395 3.3893222889549874 0.04017734354983403 -0.8365336103353463 -0.05622128438657414
Ni 2.7233179128035245 5.807424074481102 3.0100908221151617 -0.853677983325117 1.013871851340615 -0.31210081343185603
Ni 3.5213224420118925 3.9359053306411482 4.311271143248007 -0.9133347757558011 -0.7917827884822171 1.3500024520281653
Ni 5.4151887791280435 7.200046063893635 1.074843638291003 1.342715688558765 2.428498724217385 1.0437907503872346
P 3.0802893697566427 5.393329808972159 8.779227126432877 0.09425458501021187 0.12012965300476083 -0.8904951521534664
Ni 7.198865992961558 8.14160437812827 12.85309565605958 -0.5458529144504792 1.2882548385067232 0.5086865898128271
P 6.910965562751539 6.87750870796634 6.8823672812569985 0.050428588964197024 -0.49476226642225113 1.0293519492540855
Ni 4.557664422283071 7.840345176194977 3.366788465734822 -0.2883199089621744 -0.4858333393637374 -1.5169596069094262
P 0.9700183061668206 7.699243726074433 5.167345303549109 0.5389258483133429 -0.28314119297471235 1.4624769024805135
P 5.759907780856713 4.180558005051399 3.7730878095791502 2.0552923017234606 -1.558118340535923 2.2636534734728047
P 7.590050287640736 7.393337994846091 1.4728705005153926 1.5161083146527246 0.5596078021427265 -0.6945194985526684
Ni 6.559359740817706 1.01411423794902 0.5206648119100162 -0.34424885891931034 0.7151544011942006 0.7779826493743311
Ni 3.1203103691015155 8.204618322040318 8.499725482309746 -0.17364228021092032 -1.2514332988029997 -0.12753468721958033
Ni 0.0811501590493992 -0.09061100897515566 2.1345187554527456 1.2621648262878908 0.19416611119588495 1.7090991745935855
Ni 9.154815124269918 8.614720628849346 11.543076788031565 0.13538375095035393 1.6815346347117557 -0.8991908801552513
Ni 4.680327264089921 0.6667087309890463 9.455380112600198 -1.2871459217132606 -0.6744741498660191 -1.3717894659962697
Ni 0.7040893216233984 2.3132985797319083 3.235092549715093 1.6425050316131196 1.063434749870407 -1.6527477923870504
Ni 8.978145598712256 1.3408002807468957 9.599300825931905 -0.43982730494726835 -0.7802786444973595 0.01916423163327667
Ni 0.5721361870176934 4.715563444577391 3.365493153500785 -0.7362415608818029 0.1630768459902482 1.4223790060183632
Ni 1.360796951463097 6.460630212602029 10.089313295381237 -1.0602887480422578 2.286953581651326 -0.6551857339500523
Ni 6.076194448565665 7.085007586624497 9.238946806283641 -0.9245267878168789 0.2852147876742895 -0.23345873814792054
Ni 6.813480640597037 3.7823946971254876 6.579427400175914 1.0984179508138117 -1.0733738633609902 1.1182272722302549
Ni 7.550268990203941 3.931563038383273 1.7235636630092093 0.2996615592272388 -0.7275628021608824 0.887853086544929
Ni 7.819491110192188 1.8497888439422652 2.804977899372797 -1.002380305761248 0.001765576540855024 -0.0030282453033625267
Ni 1.6913366633985347 7.362527080353907 12.206142050017824 2.3737596808032926 -0.7458716277723993 1.1320654636649277
Ni 5.612555642517825 6.8331454163635925 11.72892136508612 1.0158963379698118 -0.28038908415087194 0.03477339892544334
Ni 2.1057351659446533 8.217304084560139 3.4389645541179465 0.2268746571724996 0.42073017910650123 -1.082455256836968
Ni 0.7034255317241054 2.318664214751193 6.625332159433687 -1.568975852075717 2.508575732175635 2.2539354748540923
Ni 1.4443976015573863 2.0234436570406364 0.6393218660607165 0.30819813594334017 -0.49913494156865007 0.3005349629711276
Ni 0.5961238945033939 4.724552266130316 12.045232924916295 -1.0934107274072074 -0.11987948466716775 1.1085974624499746
Ni 6.8279365095149736 9.024205242279866 2.9288337191375433 -1.120719442524489 -0.6840774772837379 -0.5240183350738911
Ni 7.871137652078847 1.3249799548137462 7.36302861050004 -0.09382726766480615 0.21536279987815812 0.43838543029441923
Ni 7.781120366291391 5.677533298215284 8.5025853104592 0.39476666516320397 -1.446940240297495 -0.7439083333984414
Ni 6.308262772801818 7.679459099353839 5.024801032328018 -0.11199802503656196 2.0036761202090654 -0.12094906358226266
Ni 7.051458538797731 5.502200571760366 5.061246785520865 1.0752201725411097 -1.2846349823659486 1.049384185314612
Ni 2.9246029804599663 3.4866578583821473 2.1663898899229657 -0.325874984397813 0.24199942862908003 -1.7225226470883432
P 7.103897940841876 5.240372333705909 11.857378539555548 2.2974405972255787 -0.11865872488618918 -1.4606779015985618
Ni 4.185748473291703 5.702084305184967 13.635873582522498 -2.308833669553869 -0.6912331144919128 -2.1041800285630985
P 2.0180134868922535 5.7469730971246555 13.875785690735297 -0.9214455777883936 -0.23541123388860102 -0.37688361423519606
Ni 9.432085696787093 4.830823185146292 6.501799937244846 -2.4104256687657584 -0.9037666724513918 -2.2216668446283734
P 2.161207719056402 0.22254939269420967 0.9345885202920573 0.8925571768888177 -1.5704560361656694 0.7489258412176909
P 8.34022506688338 3.382341431847423 8.204017223409291 0.9610179407643771 0.6320643174412405 0.15482257640125593
P 3.942109922338706 9.287342621524594 6.707290851457642 0.13586429013119827 -1.131984216805031 2.469667485146211
Ni 8.195583403966609 3.667098079339958 10.66216121267984 -0.22151262152963785 -0.039578019402938286 -0.6738270032003234
Ni 7.980054511387838 6.853289595946303 10.679001193652736 0.04030075650157575 -1.184517767927373 0.7048185664858313
Ni 7.477961987701789 1.5444086130508632 11.95021232276292 1.8962011798538376 -0.22463831164281312 -0.15601248294429904
Ni 5.275378031589458 2.384720529035002 5.040803900483472 0.9505630639796403 1.871868259535428 -1.671244051419025
Ni 2.5406927167605406 4.851031899858102 11.085947732648876 2.1104218957077525 -1.559361726024721 -0.8433994842172443
Ni 0.905638061378726 4.946654522572919 8.521800184182899 0.5073503874999068 -0.1401271791726103 1.2976087689177975
Ni 0.7750751978398738 0.20189077593954677 6.847002030511334 5.727658339471129 0.29107407466854385 4.426369807708899
Ni 5.97784291182042 4.436661055224453 9.819269735392616 0.10359051769915709 1.4371631063060735 -1.2750866765558815
Ni 6.893651709544979 0.2657630370685989 9.607073621266544 0.2551447077617864 -1.1761953641046063 1.5595872117719656
Ni 8.317029297624755 7.98890504337841 8.645615439009356 1.376830370854287 0.6532000709785912 -0.935732426724711
Ni 6.504117670309878 5.290516129015001 0.34553859786821217 0.9994970706761819 1.430622476974078 0.12236754119634408
Ni 4.662819805496068 4.31385992385525 6.825129231399214 -0.8678727867682602 0.9025734234742392 -0.01646663019645551
Ni 3.0463715497636024 7.532125399623266 5.523867780389788 -1.0631586133908852 0.8920074750329348 -0.6854365624147938
Ni 4.10771628290815 8.333144641290923 12.623708305472235 -0.24775124351119268 -0.331651481870274 1.141579830913266
Ni 3.919375118287921 6.603363479558335 10.341140432286346 -0.8738012364375533 0.6124236603921775 -0.8634281207333453
Ni 5.5757153031070645 1.9933979447934718 10.984315967484624 -1.8620096215737933 2.3176425260947506 0.9094570379679499
Ni 2.507226642671186 1.2059126416280663 8.578512733703745 0.7691136290194754 -1.601762816698751 -0.7014529924477081
Ni 8.447030705540454 2.9901614523193056 4.976022615964555 -1.0089934402023912 0.8359497128074183 -1.0197712475441858
Ni 7.239956431588626 1.0603951448163922 5.186438482457938 -1.0027379462109829 -0.8478801456964172 -1.3205604926179644
Ni 5.31364736314453 2.415061259015186 2.3491579851803803 0.5780732079367656 -0.17482164523100216 2.132364718527431
Ni 4.768657417216673 5.052178677952191 2.319660821530548 -0.47451842857155047 0.8107642146807262 -1.5760224745098537
Ni 2.689289461160602 1.65105752353727 6.121097991392003 1.3571259504468238 0.6770987319730597 -1.5483777162093915
Ni 3.1277042510353072 7.633012245011643 1.196664757628333 -1.4169652912019597 -1.0849870221198863 0.6868272721147333
Ni 0.7743127613861025 2.006295751308901 11.675163602547544 0.5119855722790732 0.7400406229129189 0.257113401452383
Ni 1.346092161332926 2.858878561125804 9.0642474460243 -0.6481861627037675 1.583461704396718 1.5083944909482343
P 1.3340701887123974 3.5700925610016134 5.043178793234276 1.4551004075107843 0.5353509864778909 -0.520804970342916
Ni 0.6098625015579273 0.6448045862427934 4.662935968728444 -0.15845657360941745 -0.014364753362104292 -0.6191800052794046
P 2.9779643129197972 2.5425826741126945 11.046951919926244 0.12602313567106038 -0.21990491072288582 -0.23869607528745987
Ni 4.135116054862299 1.5875088599841232 12.958128422527292 -0.2436014830088772 -0.4334802796833179 -0.5182670344124106
P 8.596116073060829 2.696959922219099 13.610775870816315 -0.7727057172461078 -0.6511390746845044 -0.6183546811646318
P 5.690283595864203 9.151855727635569 11.481006900865177 0.22801108476978796 -0.4752061986671945 0.12541866931784207
P 1.0654934200151287 8.730708694446639 9.651250682925323 0.3753810615477406 -0.033978670938289865 -0.7484386171686271
Ni 0.763890338036787 3.97227548553991 1.206627137700222 -0.71438538423866 2.9709590680465476 -0.39489239210779087
