# total energy = -340892.98805676866 ev
CRYSTAL
PRIMVEC
9.06901283824624 0.00000000000000 0.00000000000000
0.00000000000000 9.06901283824624 0.00000000000000
0.00000000000000 0.00000000000000 13.27341699864173
PRIMCOORD
 96 1
Ni 6.365920798880407 1.5550998559243057 11.293222325070822 0.5863647585215965 1.1965405034198617 1.0226154018612001
Ni 4.619745917795033 0.25092506650370355 5.961210672968983 -0.31218283162270105 0.9683116462123129 -0.7185428580504593
Ni 2.5370562574782447 1.623516486510243 4.690997521700319 1.005865436096371 -0.2356842850443296 0.09765435472038021
Ni 3.9195909428313405 4.37801138859724 5.358212936225095 -1.4070711720166993 0.5797387685646467 -0.6319123652444084
Ni 5.1485781769052075 4.910743323098713 2.4665854955524726 -0.3036668237318899 -0.5025987317475344 0.6271753647800554
Ni 7.343378970215547 6.518107898278951 2.7992441306527693 0.6861446442254118 -1.11362319779934 -1.3920441024802477
Ni 5.041636381058261 4.714571512891342 11.716603733995282 0.8546598876224121 -0.29097071632146015 -0.5713621144651774
Ni 5.6706086766119554 7.9191252311842915 12.182978610658177 -0.9741997295619739 -0.18008315074025757 0.11788739393780343
Ni 1.6557658950950243 6.462977371061042 0.49320010884875565 1.0399292105492994 0.06375950174514826 -0.988740089269994
Ni 2.7099479125008195 1.6202879180467493 0.4021989163396798 0.6465303722678994 -0.6972512956615347 0.2602439766615647
Ni 0.2724349504411009 9.227901637566626 4.951886712279415 1.4767583521001924 0.49318823706691184 -0.6994920120665953
Ni 8.493393243109358 2.4572308091196264 1.3059858712244214 0.16198875513239197 -0.5009714805567566 -0.014654259578065085
Ni 6.9642216940309165 0.6887561331048027 4.884417793503689 -0.6006611205396107 -0.16903794866968952 0.18996390018907927
Ni 0.8897735167111746 7.539451021285001 2.4836152872961463 -0.8870868978028659 -0.6350195434148225 1.3182570412957684
Ni 7.552374364151512 3.971710557886667 3.7688140748824415 0.7553471713630023 -0.05391551907153295 -0.8847189117913214
Ni 7.5626495553569555 3.871534245392995 12.65530003884217 0.5878631974439941 -0.1172998968654496 0.18373823099434164
Ni 8.083210875032563 -0.47040605273599134 7.057741351321767 -0.6476832549254201 1.0003529909185738 0.31289219898489984
Ni 6.721262848140507 0.5128118484619699 0.18688060686228936 0.9821490663160375 1.4669943307348927 0.036779630722194714
Ni 1.8233340397578504 6.401380637903607 9.421696459587812 -0.02340398074623711 0.06166636666154541 -0.41602068944597387
Ni 9.16423716955055 4.899488678539175 1.5656262587770493 -0.9455334719755328 -0.48352397450427054 -0.5386327425529562
Ni 6.328148361660044 2.1123271932906538 6.914016547522341 0.7386995355039924 -0.25511925384048967 0.19006160210920814
Ni 3.334322218697798 4.2066523966935705 0.2563655671251913 0.5668896805161204 0.5448298725026036 0.9524476825968629
Ni 5.980170350580722 5.659199858839274 4.734853452531107 -0.12861737876079785 0.8561143606807514 0.7189192675532715
Ni 5.270647085665376 2.620083067262743 9.514756317942991 -0.14457878718606068 1.1434791048185082 -0.9124346325390351
P 0.10817518155210189 5.628483113373398 12.529003156436833 0.048399731459626325 -0.6742854308939806 -0.06674455251540118
P 3.9889144746710676 6.286975044737966 12.784105410115496 -0.831172088913117 0.05779094286653918 0.22072766373449726
P 2.4662635456073776 8.668670048429401 1.6515714767962446 0.8018666550807803 0.1414934633925176 -1.071035959256433
P 6.185683243702132 7.785466124400684 5.991102138293909 1.1236088482571422 -0.33757530355387666 -0.932061405631027
P 4.499282224254073 0.9923585589349133 12.34093269512957 0.16835634922163265 -0.8019067642900963 0.4726253253138958
P 3.9570641026379536 6.138905277031631 8.199095624143137 0.14212029834323908 -0.06676563556132373 -0.18208629721321545
P 4.5035265221218115 1.051216450305901 3.7556068719234936 0.46976677281917806 0.8283932406163991 0.5862835116617
P 0.22364184918467747 5.63820509481403 3.629417003866102 -0.4115688243222073 0.2688024077545371 -0.4052130573075086
Ni 1.3630907224718325 1.1618493342557745 2.721408423644967 -0.37026919424247196 0.053273771722475986 -0.9390406651623375
Ni 1.8808950623359177 6.334424118336273 4.845792869104762 0.21881013499681026 0.32165040479350415 -0.4452608172580138
Ni 6.173503559863729 5.6770839515640175 9.402436597661069 -0.4022825139242749 -0.5513684449520697 -1.0805881217212423
Ni 8.630788783058584 2.2824346614640922 10.275071494478116 0.4878889363411856 0.005760299522544919 0.37645809666200325
Ni 2.208476864217497 5.083462666883067 7.111604937488132 1.53081965272097 1.7390252727290567 -0.25400853727481415
Ni 0.7208994342428907 0.062869115616502 9.208034151799843 -0.6121099858065006 -0.34510940714739274 -0.4269244808426712
Ni 1.8092680013115634 1.0933601515695341 11.433947099522712 -1.5232660087434282 0.13955202339543063 0.6962465085461041
Ni 3.9642376915554345 6.965972013450732 1.7961324435516652 0.5830842879981118 0.44638876021486995 -1.1545834422617858
Ni 5.397223293656882 7.940664135961811 8.08907217783581 0.3575250072029262 -0.26902352262640766 -0.12607764305807964
Ni 5.529005114845145 2.8881177328204535 4.707270957798331 -0.14200048493592318 -0.2696243894352001 0.23749768410398453
Ni 0.9540147739246612 7.241615580527743 7.166251179436519 -0.39638903125797537 0.4932026352446151 0.07772701966883389
Ni 5.27461024414444 4.30394476320019 7.405238704736581 0.5506022562100066 0.9491319879600686 -0.08061385429832568
Ni 8.359888309538894 6.966398257040013 9.264991178142886 0.0319716678105901 0.8519121496739457 -0.20189227619554906
Ni 4.7170473533141895 0.2915778221061056 10.140187164100636 -0.9926129419618389 -1.2839945205684724 0.28818878270094883
Ni 8.228423903789459 7.3212868556732165 4.858932961370929 -0.5862927676330806 -1.2361043817554132 0.4368497103761831
Ni 7.173643331556162 6.1090138117067045 7.030968719408626 0.41513931528228504 -0.3944223944499078 0.18290930733514307
Ni 2.44796227830589 5.214274103729774 2.407917146543527 -0.33769434563024425 -0.5519703402021269 0.9916539204826791
Ni 2.3890499728596746 5.1716225377640175 11.447273106545905 -0.5800143908235366 0.16230474371091402 0.22887446121134775
Ni 1.0443512078147086 3.401487325553504 3.6065195610104057 -0.507556589973442 0.5314963886184911 0.6779662221796775
Ni 3.775838025093047 2.9080514223787635 2.691026324741739 -0.8717430683569438 -0.3484199595778645 -0.11046281933895814
Ni 1.1446000724086836 3.335990917004772 8.080205404277502 -1.2354153261081884 -1.2827963864953134 1.3615919566379777
Ni 3.5076945313848813 2.733536414111904 7.114445352215004 0.6246945073397305 0.6215667603440262 0.23277173938322493
Ni 3.86934861337136 7.046595534912686 6.063017593916969 0.5951000815120655 -1.0670517777977042 0.1770011693808242
Ni 0.7996520184182753 7.502739658531571 11.567159103988201 0.10577672671719847 -0.5825479558786676 -0.6435334944231046
P 0.13294174789186003 5.40782496931369 7.968403524611494 0.14161713345457547 -0.009087564123564994 1.3589864006943306
P 8.622463429548787 1.5899974161701549 8.086205462972579 0.12269818506288546 0.062378305126905474 -0.875848091664253
P 1.8698308670396766 3.248456807988936 10.347889316848697 -1.156481430615447 0.7140717096529832 0.3398563862785695
P 3.928832266607463 6.084908376380959 3.924564389307126 0.14190201168484592 -0.10418727074289155 -0.1762385801831868
P 6.770271791895332 3.818163106607438 10.631501825242761 0.508800232572556 0.09229386173941524 -1.0851942530346859
P 6.445174899449139 7.8797657167697945 10.142124305178733 -0.3315509517366677 -1.4014713093314186 -0.49814429552060663
P 2.120770443963441 8.384891577105892 5.757132497631068 0.5506788750842129 0.8215116830052175 -0.21609325028627943
P 6.8087878881438035 4.026378565465143 1.4713983116069878 0.4930044031908799 -0.3663372061779175 0.12925681211700965
Ni 5.371957024726286 2.570820191156856 0.27373363303652853 -0.22195407994243066 1.168888031809916 0.04113919324247108
Ni 1.7630069683557221 1.149968927831122 6.9026149849596905 -1.2600369813116106 -0.7363037815783061 1.0492607723628702
Ni 6.869087752508318 0.6986241256472944 9.063686306839063 0.3476496570707432 0.27587191300680874 -0.9252148150228388
Ni 2.7962123597613484 1.5787518406231555 9.43580602929428 0.6562326871573279 0.017290154539015383 -2.300083691275381
Ni 6.126816283318607 2.0299261453712707 2.5388990808259466 1.9377720613170888 0.3336178615680254 0.11026124485111333
Ni 4.181377058750436 6.5762039925967555 10.45150187819298 -0.42567621025786684 1.61727685317395 -0.22890634289054768
Ni 7.990806706283874 7.3828563817930375 0.12307466225062202 0.594347262506441 0.13007725113577598 0.4713423448364141
Ni 7.721856070459835 3.7618808147972147 8.30797728177194 -0.5014900720643879 -0.0771022416006414 -0.14356397276830116
Ni 2.9214282158721696 8.317418123823897 12.63642560994829 2.031714000182888 -0.4678420449926394 -0.15794415274937312
Ni -0.13613494720645553 4.789200417065742 10.385691681810435 1.0520653316912012 -0.8628041139961012 -0.1981520924268265
Ni 8.711230924269778 2.2780452593957476 5.7681087235056925 0.09005468799625135 1.2839281861069114 0.7085294396785153
Ni 3.7084733999615063 2.855006768044571 11.517914365907389 -0.22070503802667793 -0.8774974543422178 -0.28708063723843463
Ni 1.2362243060791134 3.240793492394409 12.547134833203861 -1.7335297968321242 0.40729307976498885 -0.08206832735666511
Ni 2.9696481555361975 8.332264097348444 8.235225663192887 0.43249400451064873 0.10112148733337423 -0.7091238787294045
Ni 5.813382140996156 8.138785783864831 3.55187331906202 -1.2652216108363437 0.25579828218538525 0.9033792072049861
Ni 3.212752105627214 8.265987753721452 3.702885074435651 -0.39349294065710294 0.36913765174119006 1.0820415663383172
Ni 3.4585223454043734 4.253620812627368 9.13341159593422 0.06270457811807266 -0.026310869980386946 0.8481133447531458
Ni 7.296138483905613 6.118182583382524 11.414567526630467 -0.4506233671215078 0.6865876453001014 0.8367511256627913
Ni 0.8267456933752592 -0.06218621897239795 0.22975345673397 -0.780382002844443 -0.493046569282725 1.1948415184508843
Ni 4.590598111498214 0.5098671400909129 1.6102775420074127 -0.5031923994674754 -1.2702602017015157 -0.4968116927521122
Ni 5.986310072068882 5.859733864077376 0.4196513240676195 0.2981266106399511 0.7236945774547279 0.10646269704062956
Ni 8.08162379783843 8.968409981819619 11.037615834295055 0.30375964055601234 -0.6142740833373549 0.3366517632983428
Ni 0.18961582104372077 4.869352349875725 5.766914334554451 -0.9412114475614113 -0.61027704636282 -0.2302410025415712
Ni 8.110572085859415 9.063036058640096 2.184525602104896 -0.07688395494224824 0.16363786070004077 0.4997815740137135
P 8.373854588847264 1.7293427938150279 3.5203884282341837 0.0031272327750720337 0.12958668465260265 0.3135493729529245
P 1.7146782005412393 3.1903788516962086 1.4755927299057676 0.45170065934608666 0.7081378606670513 0.8798780387592524
P 4.62204944697966 1.1816469886260157 7.944152985085141 0.41556560418642624 -1.5222079997925593 1.5029560935414825
P 8.740215488340915 1.3418420260955268 12.476745692390931 -0.7803290381193206 1.8289611757592565 -0.00979204638975733
P 6.289732024549488 7.993862963509147 1.4750086854983269 -0.3157450950526627 -1.4741692512167772 -0.3304849723659986
P 1.8389327413230427 3.311141822650919 5.923872641449185 -0.4176314855765194 -0.5716307947455317 -1.483725784556961
P 7.1291870320953645 4.106049840610617 5.965936535402483 -1.348104463674504 -0.496461508501545 0.4508668505908816
P 2.466916514510106 8.416025497148512 10.351074354052008 0.31857973628798036 -0.5985453597481885 -0.11452079145841566
