# total energy = -340873.2787311605 ev
CRYSTAL
PRIMVEC
9.24965748506006 0.00000000000000 0.00000000000000

0.00000000000000 9.24965748506006 0.00000000000000

0.00000000000000 0.00000000000000 13.53780869909369

PRIMCOORD
 96 1
Ni 8.158724909387017 7.11567806192485 9.31506803339096 0.8286022713034116 -1.8213530243946956 0.5450849259362032
Ni 1.363658466449571 8.939886211629913 9.948813848459142 0.14660815891126364 0.2810768542465159 0.40961761413310743
Ni 6.043217304463838 7.447750006223125 2.351395138559508 -0.04334957063022857 1.6411307769734123 1.5764531342893688
Ni 3.933610980854895 0.05641828428866401 11.195848936660465 0.05531008542621442 0.9138906482592711 1.2635773903647014
Ni 4.926099201885086 0.37014075856942064 1.806268439502937 0.7069497538962213 -0.052920245037799185 -0.3397566274759116
Ni 0.5835340507824207 4.327257893348864 4.3038044624705405 -0.747780414759338 -0.6035644102293347 -1.4625941447846684
Ni 8.158641662471926 2.0714144888966084 13.51857106276544 -0.40576970114192695 0.8364994146633012 -0.44560843040541964
Ni 4.001198226251611 7.105318445824629 6.297855743241572 0.31037688876221387 -0.9432269353295434 -1.0415685459249353
Ni 9.042335415135321 9.14518235390172 -0.13188716261305758 1.4386911129148254 -0.8274676434783363 -0.23631009155378654
Ni 7.708016861426737 4.850825491328295 8.118948608390781 -0.337301995287832 -0.9748486759998822 0.786434122575794
Ni 3.4537110146693464 7.322195158951328 2.2306787869859486 -0.3735650913849244 -0.24494848395507496 -0.04697122654321588
Ni 6.62976581853828 6.7834211244819285 7.735151655883532 -2.5540798872550208 1.0860817978459618 -1.5811549106404124
Ni 5.340428347950569 0.7347363476280528 5.268671357073513 -0.23179317752003953 0.9090335772772862 1.1589535463050233
Ni 4.584833098297864 8.061723753991457 4.224717118236855 0.8072801127868677 -0.18989602306562134 -0.6078550671848887
Ni 5.223928915109234 8.870365787871638 7.4051544097024715 -0.7536877813827084 -0.5752383095911319 -1.395791485337822
Ni 1.4756440665615236 5.4345806089185675 10.514653304956095 -1.1313990337255224 -0.1317106729741409 -1.6613517320059776
Ni 7.983869389066842 1.8190005926832542 4.928804726625546 0.39278691572901386 0.09715556070709074 -0.5376228132312031
Ni 5.728109231529678 8.494533715207158 9.664180621208375 -0.5460444616359951 -1.7296258337920274 1.6629131629558263
Ni 1.0898316137433475 -0.046535950501630875 2.202466407461585 1.5104724565231857 1.846289382625059 1.3832984950771339
Ni 8.568244233691683 2.1986342744702263 9.102998367127908 -0.3559527776197999 -0.04071856076528471 -0.2275490575317049
Ni 8.235645058931164 5.964151234441788 3.0863904765900663 0.25705323763840887 -1.3481949665057813 0.05739293609717212
Ni 2.87547794244678 8.60427164861165 7.8941264397015 -1.1238304773496453 0.4078448385034008 -0.6472559375800143
Ni 6.915339735929576 2.859707276865639 6.832612651574965 -2.1016243520207807 -0.24810991240219205 0.8860312028448418
Ni 6.979597104722649 8.34751966315633 12.248752218869416 -0.7104276851424927 -0.0001977178331028853 -0.13766534789567905
P 9.109053192752198 6.361155772511097 0.0061815459283735 -0.9597930672183405 0.6075766167125214 -0.7926199396715317
P 4.895251595015229 6.239559778534741 0.9618441066194449 -1.1309238938613169 -0.5100127648234184 -0.10954185018658555
P 0.5816175218038797 1.4364532688680947 3.8881535403865555 1.1395064933240053 0.017803346730008048 -1.1242498242752508
P 5.631663055568058 3.6388521538318837 8.595249532947227 0.2431029461059039 -1.163411324966061 0.35031023462204186
P 7.9077354603874435 5.076572625740809 10.41234839610351 1.3366265449418917 -0.09828967431153394 -0.9456214037036488
P 7.028981024686118 0.1785822072190847 0.5837911912534798 -1.058002266000926 0.5247439003860059 1.4139535009588293
P 3.131360460122262 4.732207886980754 11.386867308028432 1.4912408619870834 -1.704275270842381 0.20103532751189246
P 8.093635071443034 8.85804524443816 10.442333934919313 0.3307145718783014 0.5726072997261881 -0.24842821497355924
Ni 3.2662667108559558 1.3704847134870384 9.339070893908882 0.18547038319409995 -0.3312064239130554 -0.3267797556002695
Ni 3.5149622448619087 4.3924864761513325 3.0763175998640473 0.11896237216953705 -0.5140452830215791 -1.2573092979678024
Ni 1.5183312346887772 7.527824288883502 0.6996338984313186 -0.08062285315939019 -0.3744207545170003 -0.29732982577026856
Ni -0.1308928244605809 3.3964093881149937 11.544216927070678 -0.2438781337090316 2.1014798560231163 -0.16341057518058308
Ni 5.770306167823617 4.9470959238025 2.929419168528623 0.043569914171150775 0.544180926064695 -0.994836689086035
Ni 7.016530986051388 5.983649511887562 12.134573525027673 1.1004884601895948 -0.22693842053089947 0.07749742015653105
Ni 6.797443604846158 6.603506041655663 5.1661093077498705 -1.603594213480535 0.2530281756394158 0.25085019415149057
Ni 2.8325502832314853 2.5666596364306105 12.143157206939286 -1.7233891088536966 -0.6596967344465283 -2.065867506136145
Ni 4.192777126847858 8.213788118891143 -0.05500956149217847 1.460284522814885 0.3625286310651047 0.3466209586959127
Ni 7.521710265452924 8.978762520977442 6.0367934175159785 -0.7019810970370362 -1.1578618559027416 -1.2698328843561097
Ni 6.7551634216371275 1.178915062548024 11.008146567410291 -0.9523432958085146 1.1750643358239568 -0.08650785118525746
Ni 9.126451798006231 3.4845771208536678 6.355174944144665 0.5226127129756162 -0.4359750210807137 0.1089651517475091
Ni -0.029586878589089198 1.2332105505018656 11.253357755536824 1.0631089910998723 -1.6869141538561143 0.39806873295324346
Ni 1.131371824373791 6.49590477907184 6.940644948185815 -0.05438217429530634 -0.9791038517318107 -1.429932907106221
Ni 5.123227896820738 4.8712579841545365 6.902982193867168 -0.36540055329626103 0.34270414014000977 -0.29393699803863566
Ni 3.922733383949662 2.123517808086385 6.887468668757086 -0.3860778791399544 -0.0424514842959914 0.5919093424889097
Ni 5.003139596973255 1.748009473425037 12.970804511534759 0.5304586913825962 -0.7076328960061748 0.14206964761096177
Ni 4.854136868617473 5.197567391997062 12.494693204951576 0.12680886479714934 -0.16056924907704603 0.8908849313927173
Ni 5.722818427592778 5.645371047586388 10.011074216255754 0.5884265261466317 -0.09692004765751695 -0.4430756366812369
Ni 8.267648872955064 1.3111481623415708 2.3271490120563727 -0.65472499226355 0.7660249627918227 0.23637694023598
Ni 0.6572972923131706 4.119834329913616 8.436274749129257 1.5472070929400579 0.40532695717755357 2.041255106904104
Ni 1.7416272099347216 2.6927139651929544 2.220335820268745 0.17024970958960356 -1.4297832689022343 0.817073958948838
Ni 6.119896962919946 2.057928488651855 3.52038531889723 0.028484994813570298 0.5768791876286645 -1.6882087042978215
Ni 2.601577092482698 4.988562137175085 5.086777772565251 0.6026341851055815 0.4901754183825171 1.7399403283441583
P 1.551740996611993 2.3929510736072466 9.908159754991557 -1.801906999854942 0.28121466537596085 0.06661034093038205
P 1.0680209219894874 7.001306050246954 8.95737176366193 1.1555728027582486 -0.12554902424811926 0.7449460306343364
P 6.821557461250871 9.04860668273885 3.9308111096106657 0.10141459309376082 -0.3442578577803748 -0.8619132267507156
P 1.1031233711862216 7.055472042999543 2.889780687425149 0.059081122432872446 -0.1241354317300443 0.45873931136042284
P 7.847501692490439 3.862286873936313 2.5731038726243827 -2.3221653536657683 -1.6941731494113728 1.7784631670097049
P 5.137703610389352 7.295343404005843 11.398252711115722 -0.4496741158343611 0.14620089617051593 1.4430838426658823
P 4.787039855054071 5.538528256895617 4.777817021827704 -0.04664623910362935 0.3655126533940931 0.043656817458002234
P 6.562539309773625 3.1309257262323418 12.02754389126081 -0.26686431019155976 0.19906457693876684 1.1975319207988535
Ni 1.4379794623114308 1.5480318840618243 7.619741832664167 0.04673751326585499 1.243662139498013 0.7124681126112891
Ni 1.6268482133386022 4.882949550896215 12.983461742491492 -0.9616519748039503 -0.4059463359291073 0.45667394419096186
Ni 3.414640462519938 1.0901923503754087 3.5706239071889665 -0.7687683298649147 -0.46283045071066103 0.24483201298186866
Ni 0.9997584516148108 0.2471517662138751 5.6827248633534735 -0.5241026672575813 -0.5277814016607492 -1.0069987783698657
Ni 7.33631013588788 9.057245862593856 8.231380041981332 -0.05641977355062542 1.3649832417077137 1.6073014871287932
Ni 3.3316617874886063 7.359600772798915 9.961376732912107 -0.8171696039864378 -0.7959166081449325 0.7956368721209846
Ni 7.079437904888538 4.253399380348621 4.714027685690588 0.8190351964402669 -1.2440012680049868 0.7452339941884004
Ni 9.34992351673959 6.9544657860223795 11.44269731411712 -0.7434671320959648 1.204020870957307 0.911572798759372
Ni 8.89171399676388 4.547251740962863 0.9995031610751981 0.8123341302710074 -2.0325524369237833 -1.900550972182101
Ni 6.9700699577733385 5.919012907147963 0.9961982585460827 1.630691069697327 -0.08420877073843562 -1.0847810767566672
Ni 2.797845569295742 6.880699769594459 12.390979573302506 0.062361335846040984 -0.9651535601993055 -1.7317071418010888
Ni 1.533704165008928 4.985389504744392 2.1592399843176864 0.17430408216463528 2.105124651864555 -0.3205108918724222
Ni 8.387848168689336 8.086993817550212 2.121766847972303 -1.3785794923349095 -0.25544192728723103 -0.6309412595803908
Ni 3.5578991537344353 3.476178432086703 0.4468481659972246 0.2862177750175071 1.176358372045032 1.931214719814545
Ni 4.56529782222316 3.273740433899687 4.882126331402536 0.394474844954398 -0.22646559465953897 0.18726655586257426
Ni 0.17738160171032682 8.651731639870793 7.7519388587945075 1.6612645716088097 -0.6815734799149616 -0.10068542823722015
Ni 3.6971804923390263 4.682342984841203 9.167979984082272 -1.1875760951377226 0.2123170710732989 -0.902269261970259
Ni 2.010625741565663 2.450030708388023 5.187836752588639 0.7203490580212626 0.7320419209781586 0.25738619549779546
Ni 5.568867132617695 1.308114274769363 8.811434371712947 0.26653675164881196 3.3832904815663927 0.07936404105162462
Ni 2.6052954546900993 0.7829242869113797 0.3833742431717309 -0.3348445348862749 0.349102844577502 0.009399438937028973
Ni 2.3498661702190025 7.399485294784769 4.691920079939568 -1.44545825643533 0.548595510192623 -0.7162864579161148
Ni 6.148839140399941 3.648610542212004 0.752619634921061 0.13881540233972223 -0.617677195481633 -0.1871925080915292
Ni 8.820001404241541 7.540616564835829 4.621387743680076 1.9562657492459021 0.9561732110775663 0.14848686399121525
Ni 4.615245971277801 2.9401885444442377 10.614318361634568 1.6613018526046484 0.15913380218210013 0.34167055666917284
P 8.460531975221071 1.3395446100448578 7.06589640670039 0.9265070514717011 0.6933524748277607 0.28845386343687734
P 4.316953775192036 6.741002196414413 8.281483585277478 1.7362772776702742 -0.47053167600966067 -0.20740240738050086
P 2.2708925967692744 4.0032978984433525 7.05854570409785 0.6176764241506846 -0.6880359477108537 -0.6345767994504491
P 1.1196987569465766 2.762669122841149 0.14881866017685777 -0.19439545359787164 0.13556938459859877 -0.6922900950015174
P 4.352444709992529 2.449272236494971 2.1766626386805235 0.20056404430242877 0.7989314837118563 -0.25938060022000486
P 1.936979970681764 8.878412989663774 12.151225682943059 -0.3050853013459714 0.47468503605640183 0.30523802487375173
P 8.695667511724412 5.548536386021009 5.663772315684407 -0.4978658450482393 0.7398274784608484 0.4222509866264018
P 3.1720682016017947 9.424475754032258 5.717747765498009 0.9224884172306114 -0.27052736086544377 0.6299809525496506
