# total energy = -381165.52220605453 ev
CRYSTAL
PRIMVEC
9.25354818759145 0.00000000000000 0.00000000000000
0.00000000000000 9.25354818759145 0.00000000000000
0.00000000000000 0.00000000000000 13.54350313552154
PRIMCOORD
 96 1
Ni 5.317597782449609 2.6815394861041146 2.311185648954516 -0.19731725523035695 1.7125981888857797 2.3939906631381866
Ni 6.237974200714485 0.30498954821817115 12.337521796758347 -0.42475318422296526 -0.22266550418715844 0.05152670712438223
Ni 2.8246085959429803 9.103187366476556 4.661104800267451 0.3072789665631805 0.28105885652438695 -2.89090057203106
Ni 2.2015024159274765 3.9622398205461855 8.356301097995908 -0.32735722537029427 -1.7197579398590126 1.2445329721387404
Ni 3.637116401997026 5.476388670803204 1.8985014552330342 0.17689009772425665 -2.5935483776632884 -1.304163796427496
Ni 0.5936928514769992 3.4008640610555556 2.3727134167722252 -1.3712397641403868 0.5849300829575991 -0.7433082379205973
Ni 1.9856171347334568 4.770953671808566 3.5806993688901385 0.1494929366582264 1.340792503394123 1.1638826081755247
Ni -0.35934396541515157 3.2217986484372325 9.650544925689397 2.0441938778174533 -0.2783211458782497 1.7475590212316807
Ni 8.119377874804693 4.503359562868632 6.494502916630339 0.735223918250566 1.4410706688905957 -1.3134711898713507
Ni 3.463926992531648 4.993631057434494 5.768394565440435 0.85582356891321 -0.7548306367379001 -1.8360813317438054
Ni 7.49537410060677 3.0667369400373956 7.988580820684622 -1.824078907966291 -2.3429419240914875 -0.45978703589864683
Ni 5.005457092126563 4.770444726653587 11.45161392045316 -1.0577914355417006 0.23906939946647862 1.2346463091526478
Ni 4.542048648195345 2.824238454012086 7.650481151393141 -1.2963944368947222 0.6291849390109164 -0.30292120381511706
Ni 7.983230419073546 8.26375173494996 9.122659608106071 -0.9319912145147239 -0.08231309637761954 1.1126721467399805
Ni 8.069279164458168 -0.22727824982694195 0.84401336185693 -0.06375924463483212 0.1834122151134906 -0.33938124641436385
Ni 0.6432196925402925 1.0654257874340267 9.971228491777481 -1.9183568900152705 -0.7089917240269145 0.5723417047696272
Ni 3.254537702224821 7.024257450964681 9.832258703823268 -0.1485061472649249 -0.5272039318907242 -0.12526954533448748
Ni 9.489976430712682 9.156996749680294 4.477414464222607 -0.42719290401270943 -0.36334238521565165 0.9863052545762561
Ni 0.3214053428533272 1.4231957242880509 7.502139369748688 -0.573447022018664 0.8665581817218946 0.5874685331087367
Ni 2.535592522752547 6.194130889000072 7.540318584565593 0.5712579847871452 1.124014311225677 -0.7451100670160264
Ni 8.178702372778753 2.085102032209535 5.669649026471318 -0.4143407306403897 -0.18385855862228978 0.051908773054149315
Ni 5.418692797325076 1.2760365461128045 9.021449849232026 -0.6919939039173373 -0.5859994047623779 0.984477457338898
Ni 4.22283824699222 4.678973401981367 9.1949686850159 0.464159968155362 1.6056564953262025 -1.3421325623617855
Ni 2.808091012276828 2.828939256534442 2.6490549048940157 1.4836620211985612 0.15928138350355792 -2.3897357445165746
P 4.894173920603232 7.488665278109313 11.020226454963597 2.2613117127135056 -0.8301773291000154 -0.07092696602786494
Ni 1.4673536566437242 5.793202403003789 0.9097413152354608 -3.1746881403405194 0.46898695723036005 2.9421879094511265
P 4.765244232524524 5.805343058337118 7.2874209609918115 1.3364432252864917 -0.3811778707351758 0.24350018154432257
Ni 7.092835497211097 3.9291306248277027 4.330183108370836 2.516479303293427 -0.803189744767578 -2.287581445043312
P 3.3545407984041513 8.32719406190522 8.059522223159798 -0.4328218201637126 0.8993937401946769 -0.686302767069831
P 8.615617908006222 6.43072561122762 10.729867691918846 0.23190604894881997 0.88575969435101 -0.012029420360708315
P 5.982344929690705 8.023816481796091 1.055379210074732 0.9815893371578257 0.40143276432946995 -0.4659031760987138
Ni 3.8489393754994823 7.731607934451696 1.3420985525839673 0.3421022448899527 0.6191254978923855 -0.004898979963514144
Ni 6.578208663592399 4.753103577191196 1.6693049448492332 0.30154874894762257 -1.6073428818896898 -0.632992999903097
Ni 4.451604467381356 1.8662833762131792 12.189762063300225 -0.12915216821834533 0.710098583937848 -0.3136157074144857
Ni 1.788368499759958 9.19794370078546 6.476949860912511 -0.8083900580215949 -0.7274190774941666 1.8123667617356853
Ni 8.773825822818658 5.665855071679653 2.741245230266997 0.6541374951911959 -1.1279678965567865 1.2244655119649042
Ni 1.350064932291637 4.10255137299989 6.322066745994331 -0.662912927390981 -0.32073354940618953 -1.5289345198831152
Ni 1.3364899769760936 2.2117183332201553 4.231762368946078 -0.5855106380514175 -0.6889394333617296 2.409722214940831
Ni 8.230364932783306 2.3274247008176703 12.116830222591666 2.9235432977667455 -0.6259659178529864 -0.6983460713876102
Ni 3.4468912101622444 6.755747240745784 3.589122873882462 -0.770318447960854 1.4407240841844544 1.5668487784303853
Ni 6.3427613813506225 0.7067684353006839 2.3888034865081944 0.03836985802745004 -2.559298712451799 0.3731578286441767
Ni 0.8118591323201542 8.25192570025789 8.29805001162144 1.1662896749551204 1.1088355466027096 -0.5787105844104484
Ni 6.218458467408092 8.77139213962303 5.738233550201525 0.043582255466324944 0.23978288059373543 0.786000377472485
Ni 7.996324189878928 6.652274063964321 0.9425692030864639 -1.5006030199282736 0.3396208732289957 -1.081125482281951
Ni 3.9689116288505524 7.384303760693704 5.762950702991809 0.6274291326620742 0.04226019422079173 1.6180157882225037
Ni 5.589716876494724 8.12655862826404 8.500363113564397 -1.3850830977813824 0.8837303226258071 0.03676883208891732
Ni 5.6317187321029385 6.475799644862257 2.6594429381845606 -0.12722101263390348 1.4112384160205114 -0.7764502718902047
Ni 3.8431466542809893 2.5748183138790552 4.8096233246839075 -0.38057083327879615 0.5210116870370834 -0.1742536885426741
Ni 7.571077379022898 1.3923166337032056 10.050132572541015 -1.3360637304598861 -0.14923428368020106 -1.2553876554650572
Ni 1.131061205329834 7.798936751681344 10.691512659684765 -0.14800195393499674 1.6020381818473248 0.7150664694660847
Ni 4.335407661725407 3.5423600676881213 0.521005304442831 -0.6311603175697325 0.7951352498942177 -1.6926037480417238
Ni 5.121709419072147 6.017462145384289 13.40695807201361 1.0260527096775234 1.0422781703974502 1.6022626391533052
Ni 2.47785963508133 1.2177762061900634 8.742683931462878 1.4985641351213739 -0.007097016056097456 -2.9026582267876204
Ni 8.104063252413946 8.588930674788752 6.665651918701663 3.6995397699489834 0.8123397866979624 0.5835589136416853
Ni 6.8419162822579445 6.870074829650719 11.960389735499248 -0.4319170489612561 1.697684762109057 0.15462845811257883
Ni 8.096160722189355 1.4554628471137494 3.3703282771116143 1.6687138287980035 1.127535437005058 -0.20141353678691765
P 6.390833564625503 3.062942985245731 12.373480159989887 -3.1152555481054995 0.5262991606882679 -0.1467230872225731
Ni 5.8988501636292545 1.6751698437442513 4.426003600731062 0.7896724270074336 -0.17222174571430987 1.1636121281229574
P 2.4292414924583814 1.9270329206211834 6.297498575331231 -0.5444714607219203 1.5719081952311638 0.9995186679427368
Ni 0.6701290109162981 4.853421294011786 11.912608113640122 1.3289366324968017 -0.26542474953155576 -0.33246317913829193
P 0.7489072434233297 0.465091664361959 12.570240207614605 -0.3439310705685754 -0.18918922680658387 -0.5208234822856772
P 2.0805585400078095 3.5539177494802914 -0.1238513407868409 0.12937482575211265 1.2593934341903408 1.6366601427965684
P 0.005978717538767943 6.389482546577739 7.142057896536229 -0.27827975111735304 0.3366666756966783 -0.7466964376665399
Ni 5.107292390863819 8.654529078491471 3.9858530250275788 -1.0040108993861352 -1.2524879653197591 -1.6542650003625252
Ni 4.282255280449005 0.6256157423069661 6.416667620692261 -0.02516981439740826 0.0750867538325094 1.0580688575728034
Ni 1.411258647016714 7.233110035471711 5.175663157628934 1.148115832259571 -1.2928404009948766 0.5219699371852946
Ni 8.615562386716586 4.394880216471826 0.38307098854029453 0.08173562660759472 -0.7037752128229815 0.2391578454152268
Ni 0.17239915644291912 7.3917806276977664 12.782452755499328 -0.6508459689241178 -1.2387600742107052 0.04865864154796781
Ni 2.651104565836342 0.5504963627868233 10.83690163407551 1.761634268377824 -2.1745549787422354 0.7029894836968924
Ni 6.859470263330601 6.781944035904819 7.091216126263435 -0.4281292997840498 -2.200307148005675 -0.10329921171098339
Ni 1.8337571540358548 8.454569153874173 0.4172221337942443 -0.4351340132366571 -1.0877206190009654 0.8396243334455282
Ni 1.7603580091395423 2.281184720100717 11.7972718879735 -0.8921671405392506 1.662830116323717 -0.2227459797161067
Ni 3.654494565652507 0.6616509099891672 2.740054298604345 0.22513042078788326 0.409858783609636 -1.4515093477254162
Ni 7.614883676544221 8.080920128184788 3.240432518593272 -0.20105949588160857 -0.30563371765027364 0.1384922146723486
Ni 2.718331594034994 1.2785905254359742 0.35444976373390347 0.1646264498655552 1.4296971369463314 0.473393828048804
Ni 6.494362262696599 6.178973576929957 4.667470316124004 -3.5565969757044487 0.05442742571094498 0.9520615029020378
Ni 2.907140992984106 5.710984626603924 13.021171167055382 1.5404196377045793 -0.5500697807453042 -3.020078194170702
Ni 0.20091489079900532 1.7575449304647468 0.9079609325478597 0.03912524813623584 0.40891261764628284 -2.414631736427306
Ni 3.9581590057580773 8.644294654102247 12.416331491329503 -0.5828053233051124 0.04704681697615768 1.549904437266563
Ni 6.1701271847815855 6.072132108577357 9.529614930092137 -0.5345945679278405 0.5936242682974874 0.6999044170136657
Ni 7.5706424622540975 4.737465080610917 11.601973900975814 0.03541103250944225 -1.114670922337564 -0.1300127164464277
Ni 8.178184174075502 8.997474831013184 11.492421142979415 1.8621816283752834 -0.5911112720676465 -0.0024965411696086038
Ni 6.15264723209511 3.6178505144939854 9.93078770976281 1.5587690867460446 -1.735868729377946 -0.8970501796631648
Ni 8.233909041771618 5.1815151015563705 8.902930402959715 -1.4350172636076641 0.5753411537175834 -0.8846062974728571
Ni 7.126083496153664 2.1416689727984353 0.6238085243293754 0.16194247527548883 0.8329289237032236 1.0014261693780948
Ni 0.974842803395953 6.196666361226698 9.11886750402406 0.662823195890652 -2.3825453974157225 1.3611031899270172
Ni 8.483051575456477 6.517875528856651 4.938001501285583 2.6659514140160474 0.5477341906335922 1.3293593218565172
Ni 1.1567583088821611 0.5584488621720843 2.5009842522139425 0.9965729550508513 -0.8314739364242518 -0.007628977300167507
P 0.3278587674184669 7.706243958637173 2.294703228771799 0.23603421218458062 0.2709868170003656 -0.5505724314133357
Ni 5.760629913085102 3.881067695101096 6.037531240877371 -0.8445549379779261 0.5928645073133274 1.4009018099811938
P 0.08815207690692625 4.096064635660969 4.470615882306908 -0.8297579821744098 0.06251020271907944 -0.029689042424000483
Ni 5.085583566616876 1.0954072838364537 0.7061410447278182 -2.141846432765621 -1.4167683446998054 -1.2404634300550572
P 5.052900034118922 4.380056032139515 3.9060272908561164 -1.1249571347549205 0.3430658943548027 -0.43615988339801015
P 2.4447689464593916 4.677798201350779 10.409902201176697 -0.6531836159183589 0.2840778458563688 0.7152906696617487
P 6.88576884752063 0.8534815924492026 7.662995650076672 1.4157008226672394 -0.18905347255966795 -0.8655893900507221
Ni 3.8746642396966267 2.597415478760144 10.173595264300419 -1.11504244674437 0.7848942888924999 -0.21805834443245026
