# total energy = -381170.6684813396 ev
CRYSTAL
PRIMVEC
9.24099945844812 0.00000000000000 0.00000000000000
0.00000000000000 9.24099945844812 0.00000000000000
0.00000000000000 0.00000000000000 13.52513680197563
PRIMCOORD
 96 1
Ni 8.88071128083014 1.9527987446085422 3.25341765550005 0.191878857823605 0.031335833998804095 0.5628777311432499
Ni 3.1548864238809617 0.4371168278176539 7.953267026756781 1.3192124632305022 -0.6110722885706056 -0.7365436655032541
Ni 5.255855352292443 4.4509273436875265 0.37598484472475224 0.49918482096997896 1.5074254421667457 -0.2685000460227698
Ni 2.1754606242849692 9.425357301347642 0.0915080721024216 -0.2657844468638197 0.5667886361618819 -1.037973115264193
Ni 5.430251492290514 1.9541571715150552 5.333583246143216 0.10100115970542604 1.5620927518026388 0.6674226423358763
Ni 9.36418188555773 8.121082651107724 5.7756255266219 -2.1076679871116992 0.1049712000967676 -0.2927694600930958
Ni 2.1272133666053414 3.9684640078906157 8.934475415130096 -0.1389383010708317 -1.246003643146996 -0.22636326475371982
Ni 5.782721690033543 0.23892141805744657 13.127673134754554 0.26804418943227387 0.6685827240822485 -0.3522527030603933
Ni 5.327935147331917 9.085556513732707 6.612723302212896 -0.6110162385216896 0.9045254049942874 0.059856052925684015
Ni 7.627650249065702 1.6032302206658209 12.994545449716393 0.9776136403395291 0.3861465275943608 0.7176704827478351
Ni 3.228112102841576 2.916302302300302 4.728658186774112 0.5133701113314255 -0.8175406141726114 -1.3361910000663697
Ni 1.1569731203771998 7.276252007248902 11.18915635466313 0.4659301726819073 1.2752291156710165 0.5260873017877779
Ni 1.3498420181039772 0.3778995797929803 4.213770032408674 -1.7028197693427771 0.6417398928577916 0.4586539507354681
Ni 7.4594178556434425 3.415436400949932 4.863328194606131 0.21443334608535325 0.6599451030119087 0.34781703588654295
Ni 0.9886667989600277 3.671754000310175 4.773548189384785 -3.2840353580177957 -0.36719621174410305 -2.1998065542201726
Ni 1.9680648755579282 0.4435873755723513 10.712624816357994 -0.11014914475328126 0.4899226789417627 -0.25619397496190716
Ni 3.149388029259361 3.864946333014694 12.118684454093078 0.4523303225102855 1.7458939748244318 0.2978137073852226
Ni 8.919763744142553 6.117698675980452 7.179074582036645 0.7411320562048849 0.044273625106394716 0.46105921774285114
Ni 4.472542041200004 7.778537286681669 8.405858832109448 1.436222596769675 -1.5873258153378145 0.014658373343123143
Ni 7.675287600787303 5.5510590769765455 0.6763016143569754 -0.8862849707268609 1.4748547073195761 -0.9250597775022134
Ni 7.998722578528534 5.875224093667534 10.804542264732241 0.31379002820882085 -0.014420803411020327 -0.7678381047411614
Ni 5.906652732504618 7.193776087924889 10.40119482089058 -1.238935423446305 -0.09030639899574125 -1.5602171320464806
Ni 7.02266050270105 7.784322152283554 1.5224971538218641 -0.01862301441782599 1.1393478562589539 -0.4164657474031924
Ni 4.245176492847284 8.948420083170426 1.078502250177559 -1.1792475206673692 0.2957488544363939 1.6378382222650698
P 3.686779865276096 0.748884119761853 5.2864754036851735 -0.8909582078328139 -0.47948220033472905 -0.16100505106288399
Ni 1.7635708006311948 1.6478919705922028 6.2497359230936596 0.33928200183233825 0.10293642905492595 1.1286698077198174
P 4.771728636610006 6.617054558614819 6.336039464354257 0.04338865139828011 -0.4901911021118009 -0.37285880934651916
Ni 5.220111166752355 4.642502501503339 9.078639625708727 0.8449611722774093 -0.467721203144059 -0.007657259434941653
P 6.5688627469313765 4.934961649376323 2.3950581885722815 -1.4897012854141054 -1.091071023530437 -0.9424949422595251
P 9.326571018146108 0.869974479028424 11.798220457647385 -1.1970349265577773 -1.9090811211402994 -0.09425047124515382
P 7.455453466916272 4.771728636610006 8.723470132051464 0.015455672433437897 0.3428144404656289 -0.28270770498171954
Ni 6.76540956240504 5.1618559067614775 6.582481207694155 0.007464940918477466 0.04454384804864587 0.5358533800356061
Ni 8.934336800139636 8.458721044871476 -0.040761124094822604 -0.6569870488248492 0.05457937790777698 -2.853096356699093
Ni 7.822635335646844 3.368492124180634 1.2578589586342441 -0.7836241639308246 -1.176610083044522 -1.4084310284787034
Ni 4.700951822480861 6.49718955586392 1.817832100696936 -0.2723939817605373 -0.36716304451332255 0.5114939773546352
Ni 1.761602467766655 5.974213678855079 5.744842833640363 -0.3834826076089525 -0.44967797248910296 0.3666236270700847
Ni 7.352628866992653 2.456183702965628 10.315323758400222 -0.19007240074248555 1.0937190026762453 -0.7538034810249663
Ni 0.6551193956147341 8.470142920085422 8.0204740428316 0.22946144406306931 0.5759458771811178 0.6713402322227277
Ni 8.595977608425489 6.0030363558715045 4.925259524144023 0.3222330167698515 -0.5551237982294439 -0.9120471672926292
Ni 5.688555906514024 5.039985607148583 11.514570754468137 -0.6639940762703016 0.06452671892847597 -0.3085061541020622
Ni 5.196278629392508 2.313872312759487 0.8262007891409259 -0.4858207409582471 -1.6146003347830515 0.19040715837408498
Ni 6.877484402692058 0.4053499684038467 4.688961625806026 -0.09895481869935861 0.8215571915311722 0.7638948038226973
Ni 3.8491904290990138 2.8309616731734377 10.226829176190412 -0.3820150219244905 -0.21749321595759966 -0.7431989660362427
Ni 6.781220912316904 2.970685583557649 7.229267070082402 -1.0259411238003235 -1.0279563544581392 0.4819849121519248
Ni -0.15620892914971363 3.6925277668805263 9.611408189743635 0.8376255578479446 0.8372820584655967 0.1626130189799522
Ni 4.694242856942571 0.11482126529800946 10.057643111633782 -0.17430716748842884 0.5255424850279014 -0.7773920669781837
Ni 6.340212699667055 5.910644844229882 4.168474349925919 -0.7363893993135769 0.6337162512223666 0.5274764688258207
Ni 6.475861329331727 2.659587339967406 2.8705344047500456 -0.9176344315724198 -0.8761257708056719 1.1202473879840773
Ni 6.7900183437114645 0.3206321826341181 8.92579257212765 -0.11557674352675579 -0.8320737747917799 -1.5124519488470598
Ni 3.834155323133729 6.680956069217122 4.2697094979589245 0.9216931750228254 -0.26673035571685677 1.115492904018227
Ni 0.6164236348777733 4.44456953612507 0.32846762599488355 -0.2574049645508728 0.4109396753786406 0.5349074711825691
Ni 8.66147781191777 1.636100455403694 8.344359981341794 1.1109276532450478 -0.38519804763816246 -0.21831571185889498
Ni 2.3521670141240487 1.699807905019352 2.5939318876858093 -0.59133418671173 0.0986192897368108 -0.5105298136691531
Ni 0.6330592819329094 -0.4152415341231099 1.7819095638691225 0.7912477419143534 2.1940745368324017 3.396948181559143
Ni 8.161585951320289 8.326084980999479 3.606301850014587 1.2130487854875303 -0.9528282058647333 -0.9545446743352077
Ni 8.68566150725345 1.503344258539965 5.829766693695909 -0.434756061071948 -0.2053542666022205 -0.11855125277404746
P 1.3664203709630562 7.3679781669363145 4.061625294779263 -0.8385640105018137 -0.15517224643119082 -1.0580040657731393
Ni 2.319500081372184 8.27515783350428 5.949748133038796 2.851467305736102 0.5516111570904951 0.8041634215347571
P 2.1679384508026445 3.8943881569885095 6.33202240193071 1.3718961667774632 0.8443132542807653 3.357340080249218
Ni 2.566715296358853 2.6170879838922083 0.44180293859515607 1.3142888006766398 -1.4048091154553999 0.24315359683818125
P 2.455832544989795 7.463908981334365 8.656330575272003 -0.7467915684835075 -0.4251115960036485 0.32930715000781347
P 1.706609280551282 1.5025495325946578 8.813073634184956 -2.257933797380208 2.371263910964632 0.30718177886368386
P 3.494530114506709 1.728418039050405 12.09103908039563 0.2405781228015212 -1.3767277838381515 0.5657139150404644
Ni 3.00295515333686 8.545928355869876 3.096323438611262 0.8927394681029529 0.007494765715148383 -0.12946301459054477
Ni 7.363154365268288 7.258564734466139 8.411188116442688 -0.24020274173997344 -0.4579091021496436 1.3996594529336603
Ni 5.195705687431938 1.8522936355252961 8.69591901654753 0.3851186005504787 0.5897056499693714 -0.6544704530505826
Ni 3.7342970840059646 8.603897144880467 11.80943256217577 -0.11993990559145797 -1.3491370187040765 2.3500906193211266
Ni 2.702613433006354 6.251628479763413 12.659379023282519 1.0246463162483 0.8234487521269304 0.2511011338200321
Ni 0.39266854497658127 2.002469116190231 0.9011443698833145 0.09206529066837693 -1.2379982563440164 0.5077234545686093
Ni 6.803399310790588 7.358727926572916 6.113023654402188 0.7883256831715519 0.9692213025107761 -1.7362253413864164
Ni 2.247873095301548 7.284568906676534 1.242800750170549 0.47675425988060477 -1.0592101702660983 -0.23679654427190186
Ni 8.930852943379394 3.755884058520351 6.981391123641205 1.2314308875391435 -0.02350862464490145 0.11415132393413889
Ni 3.4603846218565995 5.673502318550011 10.398964043644103 -0.312958533446461 0.5006022701427959 -0.38024738850110645
Ni 8.743861321248144 4.683079729710817 2.850436155233205 -0.006151364313376502 -0.9705734456632962 1.7279924119536627
Ni 2.178916758047118 5.3547340454876196 3.3458211804408466 -0.443347659395701 0.11086545409401552 -0.8318503459270642
Ni 8.683979645369195 8.531845072839085 10.188296057042256 -0.13588743005964984 0.3288926881782142 0.35664131904639224
Ni -0.007988843950208381 6.6654496722842715 2.1125451283148085 1.1159191929223684 0.8938954360842669 0.1346036782512198
Ni 1.073693234108515 4.998567447998976 11.509025230749778 -0.2703687238003924 -0.9199150000764802 -0.9315340723726472
Ni 4.523284368707921 1.3464782943354685 3.168722972228731 0.3081999357155531 -0.5392935160654067 0.05051163559630655
Ni 3.346341448705042 5.595813236896568 7.76676887399157 0.11481621121164742 0.5420119434378343 -0.7588837237613512
Ni 5.483562817621634 8.330317358708207 3.3090734223698246 -0.047205196930892895 -0.37746134111553703 0.2965124720752958
Ni 4.030692897608028 3.2177621835538566 7.319465692574941 -0.8661781726746566 -0.7763841945389597 0.5081340597434668
Ni 2.8546278725447314 4.767366884910182 0.869855270136628 0.7612241989690697 1.0289007206492795 1.5765220398540913
Ni 7.612652107097874 4.061557835483906 12.465401205632057 0.35688737361892725 -0.9256524167808896 -1.045451168808793
Ni 0.9397079843293695 2.700654341141178 12.208762019493946 0.07330549356237052 0.20762249381110692 -1.0387202778428626
Ni 7.033648050944888 7.639007437284102 12.181035325002096 0.9018224042408275 -0.8979096994499826 1.975982768058855
Ni 6.7673316902727585 0.4787429094529502 11.056880689766329 0.43113569071054136 -1.1663827488895588 1.5643864329328219
Ni 5.692705115228477 2.4750630646663523 11.873731435750724 -1.566552073125573 0.648018783887968 0.8245730955393605
P 7.743495417093247 -0.16082111193230356 7.09168891975052 0.5290795516468824 0.7003461325367745 -0.846284261964207
Ni 0.9193546832300822 6.040065040323193 9.204125928372768 -0.01950541702277931 0.18221253837843457 -0.013950548642821137
P 7.622881893393861 0.879833701249913 1.8396621134945963 0.13845956166220022 -0.3817923643907231 -0.6751192396491856
Ni 4.831887542469874 4.319954659701056 5.54621217281011 0.716556680858366 1.9541240203125505 -0.8880559465843545
P 5.331187979108058 7.424551565042939 13.563413053666968 -0.08230255485465825 -0.7421152460537607 -1.149212921978492
P 1.3114826297438673 3.593926303666271 2.456760341325944 0.4346527027248644 -0.8375365976785639 -0.9044582992017778
P 9.208849927247664 6.359544870336617 12.847595077829505 -0.0364052781019115 0.24405065473115387 -0.4349195832330058
Ni 4.387709667038162 4.272095523994718 2.7799162408863802 0.5598769966437133 -0.6752753056110757 0.516512256504833
