# total energy = -381172.31381888955 ev
CRYSTAL
PRIMVEC
9.20789718967427 0.00000000000000 0.00000000000000
0.00000000000000 9.20789718967427 0.00000000000000
0.00000000000000 0.00000000000000 13.47668828559670
PRIMCOORD
 96 1
Ni 1.7625388529128494 4.1239869642472025 2.3617225066712986 0.6426356651991836 1.1330064874219583 -0.2743464775012178
Ni 8.790033629523192 7.545696815960394 5.118054973141631 1.3228040372365024 2.811715222649145 -0.957242789992661
Ni 3.048504569775367 1.491992417002135 7.140663516516308 -0.5971045135366039 -0.11346921026544973 -0.5891317797437724
Ni 3.7548147412886466 0.6913519424908524 9.209981880872807 1.528393816888297 0.14889515517322743 1.0409291125687234
Ni 5.4211310683262335 1.5654622288642135 3.1850807051863557 0.2479548748815665 0.15593586407009272 1.5361878590114189
Ni 0.614210021220252 0.22185599623838909 0.15313193459986177 -0.6927346387381037 1.4907988893536583 0.6672043556774833
Ni 6.094688749453072 7.82078274519709 1.8586241811196393 2.4847542042760047 0.32204558334939376 1.599975385781025
Ni 4.908499806790013 2.539068448572039 8.176993932038705 -0.8239804562606842 -0.07672583209782916 -0.29193616555852303
Ni 8.603546087269443 9.437450090462482 8.927968850562813 -1.9132792183820468 -1.7955116378515592 0.8412382148998673
Ni 3.513613873795584 7.375488835979128 6.19689088377842 0.6408567189218899 0.07678522458085486 -0.47774721992149327
Ni 8.418504184878124 0.7956949129182103 11.91397205563616 -1.0816350749285177 1.707968403423252 -0.22859163986360634
Ni 4.1412978110075365 7.575640897696887 1.015344696984378 -0.4526026023350657 -0.07525336131736073 1.2105483876631797
Ni 1.2517767945108573 4.87101445723612 9.220574645826577 -1.519714286836428 -1.3643710620450116 2.438833016263858
Ni 1.6697784963896538 0.25638376920748573 8.803053596182295 -0.18538682234135814 -0.44710069868023 0.25650610688568726
Ni 4.153231245795512 1.674152247565802 11.308585962315071 -0.30252988191396935 0.07028573289944025 -0.22664017256419033
Ni 7.0598697432110535 3.6821091848952427 2.70454264859613 -1.6552535895280396 -0.8256411317925587 -0.7327620869736349
Ni 0.6701489175786068 0.6882700592936802 5.051925696937712 -1.5494210698722413 2.3848035973222803 -0.9086165443445254
Ni 1.0873697897737458 5.333840202747527 13.231681998140301 0.6465918216334542 -1.1704803159977002 1.3699241306527568
Ni 7.9630355492398595 5.767154637691448 5.886334292898023 -0.9131080044569757 -3.558419630735485 1.7326625637358226
Ni 7.097161726923476 1.5073143579644734 1.5608564386782988 1.757828778588805 -0.4545702675843978 -0.22751151942555015
Ni 2.530173619864335 4.305714023641861 11.58390116819237 0.673328209187034 -1.066489220426015 -1.2074193551158947
Ni 1.0122517643105502 6.381302966000374 3.052550519810734 -2.03857164653467 0.8598396320511384 1.6823735856732833
Ni 3.156108056605828 0.8392565538429261 13.47108180093851 0.4366856739944931 -0.09868022488173327 0.21599940502089252
Ni 6.7979326911944415 8.73610297554698 4.2365995471615046 0.07523202116112204 -0.4182408370257442 -1.3835550911726302
P 1.6025055993518862 1.4770203761338883 12.045383481500409 0.0023106504110476335 0.17032889956697117 0.11766550773498446
Ni 0.6137118739810318 2.0867304979861747 2.114465605181283 -1.0763332030996302 -0.8327026666250305 0.32558959194691023
P 7.82803856820089 7.678014298910396 7.579168443119166 0.15787678984654746 -1.1083899744248586 0.24267460031923366
Ni 5.87310070302358 1.191336157205094 12.880870322224354 0.26517021031858845 0.14589467778400678 0.28148488831821195
P 4.866521003396203 0.31015512656191363 1.3474413218150154 0.5651814395757621 2.520978733825678 -0.2570172421941509
P 8.96630961376779 4.2254764073282685 1.572298171755103 -0.8133067785969218 0.27952673615057666 -0.45667008753621996
P 4.533977795550737 5.393857276781494 7.02483185273636 -1.429758586311886 1.8753083955652285 -1.5634965741287008
Ni 6.805041187842835 4.5822363848437755 0.12902013495804718 0.7342522983659161 -2.6303593758440504 0.7754555120771032
Ni 2.0940415683732523 7.788822133970962 12.934642600368504 0.043004528585984 -0.9583943870986011 0.04582785696739204
Ni 9.07250429232467 8.90022453547049 3.0982235315663784 -0.1422874200487227 0.08710588978057257 -1.4597533329017636
Ni 7.9960458607482625 5.626642126221927 8.53025859177218 0.8552512413495077 0.019464536482514866 0.5135704002676897
Ni 7.0602656827912105 5.383719381950043 11.21318386008148 1.459263280639222 -0.3005280209925921 -0.5594900456179397
Ni 7.392238001009472 8.633002150453649 0.1554707404919495 0.8261355549304741 0.059038185010078965 -0.19644308015551976
Ni 1.9807936405512563 8.186538838289644 4.451026611928491 0.6060984895050981 -1.09550386249081 -1.3670185269701876
Ni 4.18140741126712 3.7696762873903378 3.3942390111680956 0.49144220091008267 1.2888598190805738 1.0943944314767151
Ni 4.666258446911888 3.5530605054558353 12.51701289753711 0.5771856631254898 0.9480791212155221 -0.03923426291027437
Ni 2.5160118739508275 6.319103620326938 10.67092250610373 -0.5586613790690572 1.2958426781563104 0.08665311851387011
Ni 5.237507182105708 0.1807178738601201 7.6648258277322965 1.2366335147860057 -0.7202968646270885 -1.3970806364628905
Ni 7.276890672622926 3.0388639013934147 11.801010493417484 -1.6550779831821236 -0.9902434132883977 -0.6248567439492078
Ni 2.3089078498372957 3.1024260158543657 0.02969546851174374 0.013280004938357773 -0.23287638328188925 1.0459160242603536
Ni 3.019693059396066 2.114851416074505 2.435521040463879 -0.3083521450227012 -2.2569899454097 -1.1389022840811032
Ni 7.124831458048372 8.147663096256595 11.228170633585268 -0.9138217426945487 -0.7044732673312707 -0.29103447967986007
Ni 8.785263938766887 4.405601292607876 3.8093742946445026 0.9191673232771782 1.8481400626805524 -0.14877174222148573
Ni 5.129277558264767 2.3029043008544563 5.694925129583954 0.013345568068970564 -0.7470088267006361 0.2463674757897886
Ni 5.165326475853441 2.853499722599643 1.2921285624671406 -0.7922970091144742 0.7567931597809096 -1.0202091064125525
Ni 1.5299381614166763 8.634456998213293 6.62694572310896 0.23729945205024938 -1.139732236181566 1.5204015427114395
Ni 5.705443310570299 4.862616854977914 5.110589210081376 -0.5364079669874956 -0.11930098645587839 -0.5576802461027105
Ni 3.5098294280410642 4.692224717052389 8.782111154761177 2.6229265737150893 1.2847252280869101 0.6912871076582998
Ni 2.825176230772628 8.686638151719047 10.905417262056606 0.5844323173855741 0.4977596584876782 0.2715306053189775
Ni 2.8911047748173058 2.8304063163895803 9.56975560314611 -0.5959698857115284 -1.6303149173048312 1.4376235908822594
Ni 5.563623277696538 3.7430102170616526 10.002546108738615 0.4096165856918429 -0.27053096040986957 0.8345749439470788
Ni 1.3567468227384165 3.09540039028089 7.83728698016157 1.1808894271461663 1.0029734592605566 -0.1726009834305995
P 9.443711460567284 6.234446213351133 10.608417458242826 -0.7743725634255696 -1.3307322909446435 -0.384819324142505
Ni 6.234667202884244 6.529697437484176 13.048304883565082 -0.9769860340578592 1.9716142066775142 -0.1032938123943447
P 0.25765261744342943 7.579388511862556 1.1569023047875693 1.4503973456081602 0.3814627489654463 0.34240357818045547
Ni 2.4684807085376117 6.374341795707388 1.4586358885585247 -0.81528267137637 -1.157601146042187 -0.27569116445457037
P 8.453448154801245 3.637579793973446 7.387435161823202 0.14608236831478064 0.8035818379996742 0.20574018918672954
P 5.192020169873766 8.249078876159958 10.048636238238005 -0.3684282843789913 0.045663563475385874 -0.14722445233902387
P 7.850542668989324 1.5429765438702046 3.8201429304350403 0.022503580419154793 -0.2110531167592107 -0.7840581661444497
Ni 9.296569263104445 3.9486778092099653 11.456020970909284 1.2363692053810256 1.5536145391282985 -1.0703813563915694
Ni 4.928305993695055 6.008963226400565 10.575588542309518 -0.45160141476406096 0.5816861220990046 0.32179695767369737
Ni 3.0639277976070476 1.1267795898451451 4.709495969854709 0.49668313759404775 0.0005712991224377258 -0.07917737896211526
Ni 3.267947176154243 6.201583228198136 3.926850488866682 0.2910799882058148 -0.48479667056910697 0.00557415165366782
Ni 2.1744633426311033 8.81946206901576 1.854081925424494 -0.08281471860438641 -0.002894805049291789 1.216127424412854
Ni 8.912848562549437 6.88669682032722 12.485949135499522 -2.0619866830245 0.9572039663349258 1.1423545042957617
Ni 9.006152185008197 2.8841159808326813 13.398576976704348 -0.09951146253377702 -1.1760935484194197 0.8971373400603324
Ni 6.447489331167013 1.010640382298285 10.137542168987864 -0.7644676456070318 -0.013790626026189152 0.9604898361750491
Ni 2.1196671463168744 5.680526740712073 7.384214239378114 0.2509520098366775 0.988822364571155 -2.5231819121245835
Ni 0.4487708112055695 8.427334558305336 10.856900851641605 0.739934436352358 -0.02435965979128708 -0.6858564235610317
Ni 7.838461907845942 6.303477818756573 1.4423425144402207 0.46775925547084607 -1.0152419922152645 1.029025419152602
Ni 5.96969154478736 7.190713962606985 6.152646937670226 0.42515839008118395 0.24437024285410175 -0.9488566228114947
Ni 7.152022378518194 1.9397540426731656 8.230644665939645 -1.0543831811911004 -0.6780554394593742 -2.856064695298797
Ni 8.285173833234698 3.2591075948298176 9.468154744508766 -0.3889639424384979 1.946690961073273 1.3146197016534973
Ni 6.226950985019797 4.3834102603246805 7.529102343603227 1.2896134094171467 -1.3145783068926007 0.06290075328927879
Ni 3.2038510036549415 3.856442302827907 5.942856049149957 0.40085658011102576 0.14908824502064 0.8765224920234582
Ni 4.671184671920813 8.29021976090739 12.565300031311509 0.8195139358488984 0.9503015827881376 -3.2501343343949762
Ni 4.488776228132396 8.652937247919672 3.3774732719227676 -2.2365471041743157 -1.1116401059310403 0.5991662811616391
Ni 0.7951424390854336 7.0796943459105215 8.743850500261951 -0.24346161499690328 2.070911753428272 -0.7470453363655263
Ni 7.532584770329162 2.7615496610311863 5.6622711636976915 -1.690035730204231 -0.4774037205391456 -0.794835716375928
Ni 0.23573598049718056 1.3715254977651912 7.234313355910274 -0.6645612616276813 0.014652202695536057 -0.9529207655785396
Ni 5.8250170637775875 6.668202627361277 8.399291907343317 -0.15177504782418375 0.703898368664407 1.1047935153228523
Ni 5.4204220602408375 5.621025308922031 2.166404590990335 0.34317773734231866 -0.4172969850552362 0.4698793871376424
Ni 0.672727128798231 1.8619381033265778 10.191516100080975 0.8003702730409119 -0.04485366597958081 0.25813284385583285
Ni 3.8191687349099106 6.055324988867737 12.807544153558798 -0.22817177871736835 -1.6795268602531075 -0.40575556007453994
P 2.144390350333629 3.1515593553826338 4.264940533993225 0.514552561675301 -1.1655857069095603 -1.024304359527849
Ni 3.385927963143692 7.511415814636604 8.613827625297416 0.18050558298965688 -0.10982287176211408 0.5435864870138057
P 3.7281578788571745 4.657326786615333 1.2310562634125697 0.032351419747512024 -1.1073034262288994 -0.6561295859205604
Ni 7.494813975961667 0.15079681186665925 6.3470615586346 0.018307282949620085 0.7622955776563775 0.68047047665877
P 0.9832468880897773 5.934655495892109 5.628498438300056 0.24188784275188022 0.10220674997775302 -1.421644441845184
P 7.019778558745896 6.268948204208033 3.84962937968005 -0.22642240012642942 0.06059215976076017 -0.08627490923884497
P 5.031646224115923 -0.10023256511149968 5.44533678851962 -0.7689709327940241 0.9398017116980781 0.6539909423110026
Ni 0.4702712511977933 3.3921064621735777 5.545617234696627 2.1704550976412493 0.2533017410157767 1.1452997029670147
