# total energy = -381167.50012086594 ev
CRYSTAL
PRIMVEC
9.23417244528999 0.00000000000000 0.00000000000000
0.00000000000000 9.23417244528999 0.00000000000000
0.00000000000000 0.00000000000000 13.51514477813351
PRIMCOORD
 96 1
Ni 1.5755529715711265 7.9091795125266895 10.873001663729935 -0.88156905330843 -0.22492833207940618 -3.2854180972979354
Ni 2.215204097104363 0.5210132481618875 5.20077641809368 -1.010114955401344 0.5285262502465736 -0.9762944073074734
Ni 5.492384196691041 4.152681223636507 6.043837894330629 1.4550351014904879 0.14206501962527146 0.9245010767852659
Ni 4.31832380902434 6.0350395748213455 2.292033335296208 -0.2041803008987774 -2.0562775484548648 0.25769009989145947
Ni 6.491115352071043 3.2880671889038955 1.169206906627574 -1.0213149378822217 1.0851909106005762 0.3515353652783946
Ni 6.30921138900075 8.295814312960884 0.2524345722347639 1.0202638709098881 0.07642192770416516 0.8307799956810208
Ni 0.2122834670098315 7.957760493780195 3.4524437692489887 -0.3898993097685736 -1.101472164259103 0.26672469928990195
Ni 2.853950273737611 7.520033017186402 12.924532824429813 -0.26643622151520563 -0.915983526232558 2.620666831146635
Ni 2.3262265524571295 0.8271168306694849 12.844698786523104 -2.7118134666554847 0.39453269477552694 -2.3211114584799573
Ni 8.449868011925384 3.464698439505884 5.9737754577093165 0.39262853577427864 -1.371402000749864 0.12088041512785634
Ni 7.483096327390922 2.681446698220267 8.03691582001191 -0.46548974271037896 0.5806232280521291 0.29535316165987197
Ni 5.260477189810116 2.520301154815034 9.078474143792528 0.035063419362036385 0.05449118906934487 -1.3712559620903029
Ni 1.7056532272032583 5.897690493816851 5.093087498994956 1.0679902304515736 0.7439397008570091 -1.7438854290348351
Ni 8.620247727779487 4.760686840187466 2.0237713914840807 -1.3634135832277487 0.330747739109082 0.29670736169492123
Ni 5.320083772967573 5.281309482854766 8.136739071018686 1.9991736043530215 -0.6812081261557429 1.4327546928257324
Ni 5.42128106883474 4.027050307469628 12.242275227217487 0.8293157524306686 -0.3318520279168543 1.0668280918226725
Ni 4.209406744989917 6.386686095846771 6.4552248940140196 -1.2062549024941485 0.5255573974262367 -0.31313902488838324
Ni 1.9716158620756172 1.6758637868832034 7.584293623258089 -0.7500424713206373 -0.002533822165447249 -1.8622739309787735
Ni 4.14980016183246 4.54390540777779 10.307825062414082 0.8480158999433332 -0.43488255934748327 -0.22910714604744412
Ni 2.5130246269253242 4.504198466247648 2.293385218142723 -1.71630263432056 1.5349295611242855 0.6472795917290982
Ni 1.1828697881829224 7.0686020286784865 8.676411811448006 1.8665193365186887 -2.330745896245928 -1.40413368665493
Ni 0.15630683704202541 4.162543319811901 13.218189665893576 -0.4966841660353123 0.5900620048675257 2.3299257143374774
Ni 2.1643884461182306 7.598486546312003 2.2194435056756396 1.1568555261254143 0.6678445603646433 -0.494931959230896
Ni 4.0535708507427834 3.0486620339944874 1.8800378036484369 0.266496899549812 0.8449182348546157 -1.241974467382945
P 7.827826453252142 4.029155698787972 12.008936000189742 -2.4527755944868788 -0.41673674167639196 -1.1160109813052264
Ni 4.49854715270894 0.09414885203694562 3.4884884379859082 -0.3452821852798311 0.8167230033673224 -1.3604663276739666
P 9.291516659777656 1.3202188691874173 6.42820847568036 0.30668504173292344 0.5644970119142279 0.13308338495195146
Ni 9.048371665026455 1.297632083377481 9.019994129673833 1.1073371076803122 -1.2294935613071147 -2.7380759998964392
P 6.23671390110467 4.64835313234696 2.8793608694824115 0.4319936678354625 0.012250021011946645 -0.4695736829717655
P -0.05373272606273065 0.038799222378417805 0.25985053612845155 -1.0870816998653858 1.8413968304194481 2.7923388750050617
P 1.965724460053238 5.551399792811771 7.393500845788514 1.4614425476787283 -1.011412334056529 -0.09446310147659215
Ni 0.4918738935822328 7.878503591651542 12.524187124743534 -2.475534999670582 -1.995054439978325 2.780738314651656
Ni 7.2812188493137215 1.5366678713889343 10.62680939207061 -1.4558244301610026 1.9767978077609827 -0.6748071077254055
Ni 6.67380421979949 6.962778412414433 2.569944989317405 0.004682235967017743 0.05927652627313017 -0.2584388051320259
Ni 2.076626871164169 9.003622865339231 9.004708804019218 -1.7074336139657045 2.0577865289002233 0.7768338804818685
Ni 9.077690162551619 5.713791949497601 9.970500742856856 -0.7108709433274983 -0.9963896353954517 -0.08459854997768655
Ni 1.0707669346536386 0.9775110270924986 2.740236057115999 0.6279940040266088 -0.020437699029061576 -1.0128966319115393
Ni 7.212784397295145 9.248393074441433 6.104412218760727 1.119763249258807 -1.3952924342142163 0.5412151585681517
Ni 4.184160517514706 0.27351988160451407 9.088150633101698 1.431302019539606 0.8303308239587442 0.5904358432671767
Ni 1.8197968328437426 4.458129179900235 9.842323041928578 0.35341252769644943 0.5413799662807903 0.1598197725055312
Ni 4.974430229861464 2.3744935718473736 4.10121086982375 -0.06051476955560547 1.3973709140098 -0.3960254772709696
Ni 2.9544919433609094 8.665005761639161 7.033010757808806 1.6151934882823602 -1.0548572926140416 -0.8329294379238559
Ni 8.570300089003549 7.96638521084744 9.14833435203721 -2.224598159342556 1.0593657220073562 0.9905012949354749
Ni 7.209903335491097 5.505589063292926 0.3517637950155257 -1.204690386220506 -0.521512795043218 0.30627032279300803
Ni 3.6764841846207217 8.199114059076315 11.000652093411384 3.0467140515906754 1.1424660901729615 -1.2085321285640993
Ni 5.564401507619779 5.9791543631607835 4.445023118943554 -1.612741684307758 0.8193640405345953 0.41274587534944396
Ni 1.6148074386512736 3.665347772647384 6.046121505177235 0.44772984762379664 -0.03684699362502041 -0.32315192903969503
Ni 1.5626435984876061 2.7787287049691147 0.9893732450203173 1.041645679019774 -0.7451000397136974 0.5012195920118206
Ni 5.8547885286194 7.061796443583669 10.123113910919333 0.7148060167158464 -0.19954485900929506 0.30145490368223565
Ni 5.319732874414516 6.5778888705730765 12.67713826351764 -0.94438804551718 -0.37481233352846416 -0.903516761224115
Ni 3.6920529993695164 4.652351529017322 5.000927687703497 -1.9716890257795077 -0.6715346076217208 -1.8066635407033207
Ni 9.264552876226956 5.895548165808713 6.514529519732399 -1.8748232283986936 -0.6130728639404022 1.426569389950627
Ni 7.573018698698019 8.91871464967187 11.724144887694138 0.952121923826328 -2.058836567431293 0.792894533489157
Ni 0.3644653992189466 3.839125663962672 8.029793502802097 0.21305034969489758 0.04502464433980633 1.061304590901282
Ni 6.899570502001918 0.344233327383472 8.558141454140122 -0.6916522043072023 0.8737742398543596 0.3332023712971616
Ni 4.244542771157868 2.0644285293592115 11.056023885083787 0.2595700905229916 -0.6514278095695168 1.4086475153648834
P 4.757667265796686 7.886851283545321 1.6927992591544312 -0.4340112124861235 2.5951810281707046 -0.4285733293000038
Ni 1.1815308331778365 5.702987967732423 11.846795012994521 0.3010250152336687 -0.35402470735915154 0.6391284233768735
P 6.475638879046737 0.8612241700266317 3.9318127465009614 0.38954475464263233 -2.291200786963454 0.2638404357635714
Ni 6.601297497730962 1.5611384283784402 13.108339027024572 0.05508665656149868 -0.15269318876307897 -0.4499955037295218
P 5.01467275339364 0.9941048349831184 7.271742741546691 0.39708657154563226 0.0069229523720784 -0.650006503741958
P 5.595317516978597 0.0022826874293607065 10.904573299332624 0.38191423468056807 0.6242908441434086 -0.19106947454843223
P 0.5512773249458146 0.725214044027223 10.84109205741562 1.100148303241357 -0.5888078207454506 0.2721916359417441
Ni 6.854461569589186 6.521486545255377 6.713796497258302 -0.36323362755192923 -0.2278820153910914 -0.8663962022227336
Ni 3.0455501178792184 0.6093233329594124 1.3371626522138491 -0.05291278883863145 -0.6461606476333065 2.3057447462159
Ni 9.036551924291901 1.7706895037606512 12.554744848211337 -0.7169870835275651 0.0950418567981976 0.8398811866513407
Ni 0.24352636607333886 8.324865019485028 6.819377254786949 0.11512885735605978 0.994586263638126 -0.2736962455117286
Ni 7.292142875320735 2.7395481112685585 3.78368646283139 1.1768895619581539 2.2265282864857334 -1.223341939883422
Ni 2.3824718968431977 2.178950736070099 9.700927546556988 -0.5030131935771338 -0.13934582092189549 0.9369110204138446
Ni 3.656972378236259 2.4209229909202934 6.048459597641289 1.0932564612175302 -0.7903324291889356 0.514102618622076
Ni 1.6808410058331442 3.0874086215899466 12.079160958246154 2.5046141764247256 0.3665300389150139 -1.22766422140786
Ni 3.438611902337826 3.889110239428406 8.091841601155036 -0.8852174486942948 -0.046048971839262626 -1.1471131020266696
Ni 2.7491331822704854 2.590804061462158 3.78732195652451 -1.4137115601513524 -0.42477940947521037 0.05975140902701967
Ni 8.481735141046435 7.313732370506194 1.1263187926887965 0.23393284957086166 0.878923388155467 -0.024741725721054163
Ni 9.112309075062432 3.014190868242855 10.44822049690946 0.21414846785508276 1.9749836373703793 0.02315664062212141
Ni 3.301115074574149 5.1150205053955125 13.274534739342092 -0.01946505070314712 -0.8750217391082157 -0.05583407625048449
Ni 0.4819286898547996 3.567391671309769 3.7770230839922854 0.24201536946868 -0.10337788746771874 0.11511548761962109
Ni 8.521238930782701 2.5115563935059537 1.633494633436052 1.329618746165491 -1.1588435030897204 -0.13088714863158105
Ni 7.698926640038364 6.230804030737393 11.829239004334728 0.054438738564854636 0.8500691829279359 -0.8216590072163591
Ni 5.184258330417141 1.3128684679181166 1.4859630304721883 2.4386802927360773 -2.224038430184344 -0.18881435996566837
Ni 7.701521442496496 0.27416535025869004 1.8984719821081164 -0.002989678755943238 0.17186719058836852 0.761354811009663
Ni 3.403817540550483 7.602632689741546 4.225186098870546 -1.1149650565392153 -1.8374895249452419 1.0562426029973422
Ni 3.6487077938945203 6.763375692553531 8.845311289458555 -1.2327305801871737 0.15725818242594206 0.32373274124382956
Ni 4.450113918214615 0.1765204405326022 12.856484360819596 1.6172573127899244 0.3032207373334068 0.17534692160685286
Ni 1.120594529187742 6.043442671749817 0.8286293881166098 1.0068182869279434 -0.6461732460387969 -1.490450247764988
Ni 8.743708613420882 0.7234493936722439 4.327630008018312 -0.727543775997489 0.9642513601000103 1.0509271043216997
Ni 5.360861878501783 8.229420613053506 5.318088268301371 -0.16225537853021732 -0.006186845537002248 0.744175471016899
Ni 6.483635672387458 2.116546198660634 5.9494748094928696 -0.7851511420983123 0.12709939945437465 0.5705645582645464
P 3.691258860538914 2.7376089350542956 13.088417223383379 -0.030066737478393384 0.23986849832900622 0.6171539759883112
Ni 5.507325087713313 7.909807436253212 7.91783377894577 -0.5438065734444119 -0.08618826306230963 -1.145236453829247
P 0.9186819612552366 5.830456484216627 2.9337861584788074 0.5706620030743591 0.7233281952542446 1.7360913869117134
Ni 6.758583157052567 4.0781522178016765 10.093299538333666 0.2700661049583091 1.0578464571493524 -0.32325837271057234
P 3.039003089612969 6.209879395968254 10.954687153212642 0.4211510686940037 -1.1915445928671673 0.590024466761371
P 8.153266392867675 7.2323793112316475 5.139363630805224 0.4025599359553776 1.1763383174403739 -0.432780682513132
P 7.4862359460235375 6.058919144774124 8.687034803433187 -1.3672362994079486 -0.25655984294175815 0.23556807118143944
Ni 7.575604266983703 5.123589817428064 4.759750495101151 1.2698678513591033 -0.18144120743004882 -0.9867132886479524
