# total energy = -340857.3921433444 ev
CRYSTAL
PRIMVEC
9.42815432347326 0.00000000000000 0.00000000000000
0.00000000000000 9.42815432347326 0.00000000000000
0.00000000000000 0.00000000000000 13.79905686484958
PRIMCOORD
 96 1
Ni 8.741982867444365 3.1311278305924306 8.717871305060424 0.8500666118247747 -2.5353897670446854 -0.5057658166216064
Ni 4.41501620127979 2.591988242196634 11.112491503232178 0.5973467114543971 0.41148603480041385 0.6881691308546084
Ni 8.675297530484317 3.335266232382193 12.107623785261904 -0.5719881780849504 0.45998192551827227 0.7510732265779968
Ni 3.9000032603151777 4.250146063089434 5.809154582543953 0.7170423622455327 -2.716059129305716 0.8091966130832902
Ni 0.04676553207821819 5.343302867722531 1.8517781734937278 3.5779258190892125 -0.7763541126319726 -1.3210942536342474
Ni 0.6620374682687832 9.428248807213212 0.5039122318260906 -0.625999085083767 -0.8939129195857637 0.3750907840008314
Ni 3.102862223324478 6.311216067636654 2.0649044349928096 0.3308315570721399 2.4147029559848736 0.6761006297258485
Ni 3.902869419290981 8.969455951685157 7.937189940240634 1.6279464170726545 -0.4127602735271472 0.5510727680885219
Ni 6.761712147182121 8.235370412162125 11.595264869796267 -2.2302774691155207 0.21511083176835213 2.1886698208770627
Ni 5.595081734330494 6.016275109610183 9.069664977692124 0.41393603900280324 -0.5028273028185728 -0.5994694142243547
Ni 1.5000570976518741 2.3167521271288094 0.8426743092724133 -0.5239458299647428 1.0627634348349955 -0.6698204531440917
Ni 6.94794648352764 0.7601242166920223 10.457353558445277 -2.3895333986977816 3.100946587681995 -0.33347645089415473
Ni 3.165154040275566 0.6159328498228144 1.4469963867968676 1.2049431256612604 -0.6615515282670801 -1.7094285329085463
Ni 8.331037896134077 0.12205311722748707 7.8598045907094045 0.8195908118334208 0.06757501883649653 2.7685890808836318
Ni 0.9786235834552823 7.275424002822191 8.78217509018729 0.9121207008430421 1.2295030743888116 -0.005056588587300969
Ni 6.565106840858367 2.435999425569458 1.6722246274450967 0.30815519852054674 -0.4817062045692414 -0.29805976195775763
Ni 5.591187906511393 3.764501823472278 7.5762481292726775 -0.10644444220818443 1.2017778405594013 0.33127147282303593
Ni 8.250823157429695 4.7430782661549316 6.839999771101457 0.3792469722610501 0.1859496368233636 0.3442956529968458
Ni 0.5562149190572335 7.8020430020079 3.701776311413009 -1.2968752331858826 0.2862951652226618 -0.7365642343285445
Ni 2.8028583463177235 2.0607211628297706 9.477371377922845 -0.492520521575926 0.2761130824833374 -1.3553328631021433
Ni 0.6749304695826343 6.118061465869295 11.191297675650425 -0.3875233533372294 1.3238162805511007 -2.6674873910445998
Ni 7.6926575532011 6.376411756181649 4.986096491577644 0.6648978190314937 -0.2161233321932665 0.3875495785894745
Ni 6.205319036004352 3.16930242826686 13.106068177976498 0.0010387256771595013 -0.9634280928677665 0.31545147507164384
Ni 3.502087998559362 6.845019320570922 8.600649174211888 0.20221854918671625 0.140216653562623 1.2842719425995752
P 8.379300619150971 8.676843747826528 10.414576135731417 2.0108309860862916 -1.3523542400897934 -1.0938257034574388
P 1.871149259782165 2.238536157183868 4.627072367240208 -0.1714226468517822 -0.6129491938783443 0.046503799988494104
P 2.5260005886714842 8.429694105090666 2.833056725263438 -0.03780832909702521 -0.7509955792625259 0.4097173729357654
P 0.862149105260633 6.6848538314888755 6.42873235690639 0.007911541537592826 -0.225105995307851 0.7890975283405701
P 6.8049025230642055 3.3357847808811045 11.059295969767453 -0.17233898801846448 -0.09177809844526129 -1.1188037135590152
P 5.3874926279843365 5.948335828098221 2.8035682863535065 2.1876380371784387 2.0342935879846062 -0.49316072626308616
P 8.920042993816132 3.122717916755535 1.3755894300503637 -1.0891879475751114 0.4693553963133723 0.6458166340303265
P 5.617219041156762 0.4576727907704047 2.4005533358147564 0.5907297203585117 1.7577197638147664 2.38463956094059
Ni 1.4308261589698945 0.8881378132106367 2.7990559715975216 -2.267117777872321 0.3270759466844496 1.3252417001437176
Ni 8.040952437688325 6.843859657564265 2.1068540657393164 -0.35030406397445474 0.5220450133976041 -1.3721823305593142
Ni 0.9054120779325656 5.032428328547681 13.014084273977723 -0.20192750030885867 -2.122687600448983 -0.08195802703104596
Ni 6.2446532966854384 8.46868895220883 8.976120714119352 -0.2879807804552008 -0.33874669815415853 0.6047291199613972
Ni 4.899463065272186 8.358247550095156 1.3169340522998256 -0.04316342276135147 -2.1559520189290677 -1.1440172367101653
Ni 4.308119785267767 9.198352687259323 12.917876556751452 -1.3778739816274528 0.32150539457520755 -1.368036940932373
Ni 4.507883523357619 7.849994595925447 3.706729863800795 -0.5385460963764209 0.015161024011154536 -0.1426183210255802
Ni 6.941290206432519 8.017089778583859 3.4256435788497934 -1.4828714069764655 2.2852450836006515 1.0941825725762253
Ni 5.188879124746615 6.025222428255043 5.240867854432054 0.3041134243510053 1.1814879799621136 -0.19124533800466417
Ni 5.62262137369997 0.30879091702467687 4.998915010470742 -0.02894470805880821 1.3562358345323868 -0.7640786376987292
Ni 0.7626160779331564 5.029713020044289 8.767107013624367 -0.38313062358617245 0.765573477076701 -1.7567627992181358
Ni 2.841890906053989 5.151175934798469 10.27704104595733 -0.05121740341407953 -0.23538860818078172 1.0991149768808361
Ni 8.241894695093887 6.786461052811999 8.547425356283588 -1.53190748646851 1.0026497573725506 -0.2863766691928746
Ni 9.114385543053725 1.423113928567898 10.694807287066942 0.2857292654168628 -0.14774355806728748 -0.6931578423184513
Ni 2.8394018732592126 0.20780312545388968 4.74908305777233 0.3940210452464311 -0.2645811705843379 0.586563504795964
Ni 0.7521442267014969 8.184948641758853 12.218650675771622 -0.21175039993655145 0.6193543260737397 -0.22102411192899354
Ni 1.6066235282554993 4.2689552313681425 5.486339285662345 1.2126168401564341 -0.06607760835536362 0.4336337745420467
Ni 1.5474147178343043 3.202951511768969 7.639751464080314 0.9496621494319258 -0.11171314680629148 0.0320364596102545
Ni 4.171694389281351 1.4163633699275198 6.8794509408986615 -0.4613338115604764 2.0042124523285096 -0.9806066615295821
Ni 3.9227345408765633 2.641372915602083 0.18227168299838087 0.11463314866656386 -0.2961944266142447 -0.7666219729458732
Ni 7.5032553569349565 4.760963475290124 0.5193885474799745 -0.4151200320085754 -1.1993532902783086 0.707215348852782
Ni 3.302069700297316 7.13539705180697 13.389735891636626 0.02408943684903593 -1.0755233056038251 -0.07618152955858493
Ni 8.92198519364842 8.344124174615704 6.003141690355928 1.1101563222966622 -1.5692183071038266 -0.7440284039160735
Ni 4.030158933542024 0.15819971886344544 10.326483231105387 0.720933469769823 -1.7450357405891945 1.1301836732611827
P 2.0095734245280217 1.0643726488662324 13.016291404952183 1.6535294077480813 -2.1723553999877554 1.0266900861512058
P 6.414737204328489 6.032208690758563 7.014005791027185 1.2147608830826304 -0.4578445674602954 0.7053523275021143
P 3.64342546305365 4.019599400473275 8.683484939874408 0.055223953470311345 -0.18561822162587388 -1.609352456120551
P 8.64118646741045 9.16412848633115 2.1840734797508947 0.1364769840145327 -0.5723283350331885 0.514484684551843
P 4.30669613393439 8.06980259053687 5.908107778368101 -0.7623739963027967 0.2982549086876992 0.5855409770687207
P 0.21727842075218598 5.167420645046195 4.34112775426213 -2.1285548578630373 1.328361990940254 -1.916888790110176
P 2.5032504518010477 7.686538680913942 10.291047512320663 -0.5173506932457284 0.6528483440661272 1.394296131739218
P 5.055687585762504 1.5778865132612634 9.200383511744153 0.7308263034035026 -0.052564661470593334 -1.7150448506540594
Ni 5.093023077684149 4.423209267562595 1.299846465037505 -0.11582434076118762 0.5776870282419406 -0.40385268662487217
Ni 7.3258646295345144 8.11291754118275 0.34679675073309696 -0.7945328404235285 1.3717629836337084 -0.3585156532509696
Ni 5.382967113812016 4.943916813860711 11.6678758018757 -0.4313133539389862 -0.37245437481924887 0.4357675330555979
Ni 1.5578893975123214 2.6792740967952677 11.80248533530047 1.5414979583704225 1.5397197834240772 0.6238722685487514
Ni 2.3211550752922965 6.581087562779374 4.571489625049585 0.6127216512485706 -0.455320515486861 -0.463624407366866
Ni 7.1117229557930175 3.614688448059414 4.914796072977279 -1.767896190127136 -0.7457968086704058 1.2105805264526956
Ni 1.254368818867493 3.534030586092325 2.793936483690084 0.31872526072690915 -0.15074480678745653 1.4180397552130612
Ni 1.0822012890742705 1.1787644477261616 6.559216129910729 -0.23292163469752789 -0.09276514494887896 -1.064026360707819
Ni 4.058933661154363 4.6653054194726975 3.5183591076397596 -2.246148374709506 -1.3521701491034455 0.5782341589946622
Ni 8.30480877024367 1.58468421267427 3.34407684278643 -0.1450017336560922 0.22914237016075376 0.16200109642756616
Ni 3.689425428984384 2.301101390616201 3.2008433764170294 -1.6398673368799563 -1.242236719905396 -1.7812219607017645
Ni 7.518368688639602 4.7524781362170225 9.392866828909284 -0.7865613921822776 -0.7155958596069933 0.3830951423625467
Ni 2.9541990827637457 5.968728926337241 6.7304210451268816 -0.8884740079583795 0.8936822916321963 0.1486161904802279
Ni 2.427730934050447 4.800307164125736 0.6597690542899075 1.7758470695430966 -1.960590858983817 0.6523811746217217
Ni 1.7911136560137697 0.5118912790011634 10.986822688744097 0.6072613994649477 -1.5709198631759653 -0.781323540822106
Ni 7.754204545944661 4.782704799626314 3.16548968257668 -0.8872244518219947 -0.6522829584809605 -0.6701133017941621
Ni 6.460765454722799 8.32704978676972 6.666297337751455 0.018765967753593488 -1.136173315185714 -0.32492264778687263
Ni 9.240402256443803 2.818556223602961 5.417441160835121 -0.9240141098465183 -0.6413855948421664 -0.050054236343913795
Ni 7.72541096202327 0.9356227134791634 12.892210291686224 0.8681795193754016 0.11814990357057072 -0.585857736978191
Ni 6.479848039482752 1.6323623901105728 7.3839166053954095 0.23257710687391556 -0.6708722914473736 0.1337125338955181
Ni 8.592716324993992 6.38067328202725 13.253994036853324 -0.09650738560013057 1.5763109522845498 -0.16997305888944922
Ni 4.488470953189269 6.90765997923946 10.950945732327572 -0.29139237723991107 2.083541783487457 0.7868573261561416
Ni 7.463817386554088 6.2045364991787215 11.142903901285624 0.3495939252813076 -0.5505582903459486 0.16621256340575247
Ni 1.9051471850017236 8.619907122646017 7.0225335567956515 -0.047272559833718586 -1.4814876392550613 -0.7289820511059122
P 5.711462873795339 6.713081726138726 13.110222222860509 0.15775234845354122 0.4064520719209323 -0.47694889238991406
P 1.1760491392227694 7.047762355490887 0.2987508752702931 -0.12194305206441579 -0.5808926796634318 0.23290389408571502
P 7.906092115353172 0.7022306338271583 5.865510433405681 -0.9570347877469131 2.447759115108894 -1.7947305367111608
P 0.7961755939672714 1.1688648854742103 8.660632978935093 0.3546435718900731 0.8394165883100962 0.8302714314757185
P 3.299316679175821 4.320744084177636 12.4485430244637 0.39792835072063726 -0.44034101135889325 0.18052640892526328
P 5.038302068817172 2.932514327354709 4.498644874737917 2.5630065003206894 0.19609880944222358 2.1058278485791666
P 5.859984592038186 0.7619702493481482 13.765663754223132 0.7489749492880713 1.4067217590970804 0.7849030306432482
P 0.7320339730982472 4.0678904079537475 10.51747595704001 -1.3474022954011569 -0.22925472736890196 0.5720306012871116
