# total energy = -340874.4360755348 ev
CRYSTAL
PRIMVEC
9.22118229332313 0.00000000000000 0.00000000000000

0.00000000000000 9.22118229332313 0.00000000000000

0.00000000000000 0.00000000000000 13.49613237766828

PRIMCOORD
 96 1
Ni 2.5380197482240736 6.589650449776687 9.863054868398729 0.06664787903653682 -0.47219569397564487 0.44770002282712573
Ni 5.79602940315193 8.867153358295392 0.09150547951055732 0.853728376947078 0.509749998080335 0.44063591689149273
Ni 1.1336060345879804 2.6441278918772557 2.0088585188162966 -0.5009714805567566 0.25443842572338116 -1.0774457194375187
Ni 2.7092478806213913 3.4891754716691104 7.013791635031681 0.37301898907346726 0.5207052115402581 -0.37065511682698105
Ni 8.812361093622826 6.799542999166948 6.914999577341342 0.3559977719251224 0.5697083809118383 -1.2652959157177048
Ni 3.1504353433038 8.790599103614873 3.3885410217738614 1.654396383734067 0.11336816591121121 0.2601475602930165
Ni 2.9636141917948526 4.228880265930945 2.684974962698538 0.23040632447484188 0.3087195556644489 -0.14237843710063222
Ni 5.816214571002527 2.566605413065028 8.545238198984535 -0.13607486348010756 -0.7298397711205172 -0.5761885893195431
Ni 1.1593331329448393 1.8487271570865937 8.138504761499462 -0.21626320020524045 -0.24920057436320953 0.2782653529396498
Ni 5.3454916617118675 6.4965626153994505 10.165772448473332 -0.06880477747853957 1.420585147342734 -0.247559953435993
Ni 3.241116449125073 1.3021969088741645 5.545776661360905 -0.2752584477925259 -0.6756702270566493 1.5909274166461438
Ni 8.155951238234652 2.4703362708264596 7.2466135760972685 0.40660042457333845 -0.14892935084527256 0.03566480039146116
Ni 7.171792903671622 6.55376160862798 11.727328938685918 -0.4246043173499268 0.15967244829438954 0.597916467914938
Ni 7.203762742382457 8.724575439014476 10.446424661645384 -0.6396588419590468 0.611890670706843 0.1555838800473127
Ni 1.731240074590271 5.806034385846265 12.4352280312802 0.27204354039965406 1.1855582933767452 -0.7762152730612631
Ni 7.937944048502443 8.617766485513581 1.2105143826652371 0.06829467061134044 0.2770615624395357 -0.904260581368675
Ni 5.991619898939506 8.660534328588533 2.6167114729401186 -0.36517840998312595 -0.12992427049767946 -0.27633496868615637
Ni 8.918312477178494 6.093689164786127 0.21443213739064765 -0.9753402709243203 -0.7579995213841849 0.12486433947626883
Ni 8.188004067585346 6.634456174119332 2.7025735889401385 -2.1344000037899047 1.176230073997284 0.5947344706425306
Ni 4.181667813032337 6.374391172342094 7.8077280460879095 -1.7108696362304472 2.04864908537533 2.0010967895176632
Ni 7.042770122234643 2.4324372119566777 10.83985008896966 -0.9772616563167491 -1.6181749395081875 -1.3407251404912972
Ni 1.4921163776045834 1.2529004687968281 -0.36048275389062884 -0.9982120333161711 1.7951611964906764 0.6219118023882709
Ni 3.4960360312309398 7.8278246905893205 1.0497615132547988 -0.014285306274420559 -0.07711355445455106 -0.08948107488096847
Ni 1.2159788552409632 8.184131171058509 8.183554847170585 0.23401743886486795 -0.08130162439396965 -1.3468672488332933
P 8.9147715432111 0.7019892369179672 11.328829094793262 0.22835175593865834 0.03929082717982265 0.8526891370492863
P 6.813033588735437 6.729369802573507 0.9081342978594001 -0.6498100714604357 -0.09529948133495846 -0.9800333055246154
P 5.075440119604709 7.3837325555117825 4.0742659375155466 -1.5419329890253122 -1.4701315908122938 -0.2980649041640802
P 6.027222883439805 4.623509979651425 11.010346981617982 -0.38830908246331836 -0.5435108965808639 0.05346377624609501
P 8.682803483617855 2.832184681801909 9.21451160355114 -0.5421150446746018 0.9308293329961389 -0.27661444759978815
P 7.250458809077487 1.4180610633020978 4.717897078601594 -0.2776472597396767 -0.2804258509260783 0.5810382041023606
P 4.978829793624489 8.37964789738843 6.824886496344005 0.16895875869232194 -0.47634648291922477 1.0707832198156784
P 1.9119383611139302 5.535531005810975 1.140129098881042 1.8912988574562137 0.5389973249812265 -1.544999543765778
Ni 3.116427623325271 6.491389532181458 3.318995787688702 0.24602037686301498 -0.24598438141875698 0.39991941300873707
Ni 0.2518461620763537 4.544447563410669 7.152397069017924 -0.01185921333143119 -0.8654176403595483 -0.711258151463588
Ni 5.228179781677473 2.623094375263637 5.9962369448704305 -0.5221542852819588 -0.08356368095526899 0.0003064754968252786
Ni 2.0317952874373906 0.35188861207392896 11.069122797003867 0.32435751931202206 1.2746606447620563 -0.9072446036976632
Ni 0.8016711386912583 8.408556303606622 13.058898079243274 -1.3180876055974395 -2.0317029444392944 -0.6765690847218347
Ni 5.914558479237617 2.775824816154195 3.6261404573407714 -1.0118674193160768 0.39420642178435983 -0.13957850575799186
Ni 6.266770754807004 4.666914084298642 -0.28466619378665214 0.026828947267386053 0.4197189642331675 1.0826979689753935
Ni 2.9777687064822285 7.632713696276496 6.057144697582519 -0.0946451355804112 0.3050894151110294 -0.17547650520618166
Ni 1.7299583302635313 5.243320962860973 5.404782941183111 0.5527606973139061 -0.23079713215535735 -0.6488667337105599
Ni 3.268918313478453 8.786412686893005 9.154548099897024 0.2880108623621878 0.9107384757835348 -1.0934945453702651
Ni 6.358871922688118 1.7358230021470302 1.5328767693131224 -0.10617370504530102 -0.16501082978816745 -0.8005397087392406
Ni 3.8608075569659324 4.880412115931745 0.29738312616799417 -1.0298522859292716 0.016871064723725786 0.9044603560843069
Ni 3.3236183663289505 2.075024189622679 3.4365603281155614 0.8302588330702283 -0.9111519091718695 -1.3418692813980697
Ni 1.4660480955060742 3.5968512162974418 13.011877426934568 -0.14957958283476175 0.799882534771216 0.8791000229426472
Ni 8.09488856966149 1.5340174295520985 13.204737530670721 -0.012529499925578422 0.02110001520340882 0.15833367487830796
Ni 0.3357063594192867 8.171618026803936 10.342112804286078 0.3490151699597021 -0.925543144896535 0.6493611568484752
Ni 6.391570234793287 6.383999644201537 7.399092278713582 0.5725810744739429 0.683801340804216 -0.172617952711464
Ni 0.9852740976100468 7.301092320574804 4.257880883971204 -0.4617472449488112 0.826267452522648 1.0356210700922488
Ni 4.316721247632536 5.546660972734533 5.805684903040628 0.06959127793557693 -1.104343572269627 -1.7126640091267087
Ni 5.575274301122108 9.336262560699868 8.789113571161366 -0.1743436771533191 -0.4265915229832846 -0.08100671886137016
Ni 7.404839841583056 3.6471896499641416 5.430559833923886 1.0344594456839795 0.28561845087061133 -0.6684742235288422
Ni 8.310608906206422 -0.3468224945695353 3.55941598289266 -0.5734375089369672 0.5221159758448557 -1.3777071170322852
Ni 0.5937786637216445 5.246502270722304 2.6314625981162716 0.5259744303589974 -1.913464080699343 1.6171848076807762
Ni 3.776627384600425 4.693775388066932 11.469107251231813 0.34096993105772244 1.2596191770479017 -0.9062063922411361
P -0.12954470034988164 5.966787255256703 11.19784865637379 1.5171868924288838 0.18278769415561424 -0.6304152118735917
P 2.544640557048527 7.770376725441209 12.026309173612125 1.0914505183570429 -1.055296179923673 0.29836726589584744
P 5.025000252933734 3.518959890196944 1.6023150376846835 0.3977316613287989 0.5257422597435332 0.11540190851178835
P 8.243810662300657 8.611035022502646 8.089919274570267 -0.7489592655587876 0.629887878615212 0.0838020222183202
P 3.3031473418299444 1.7283077386485215 8.19329979252669 1.4336046995308536 -0.5334681676328813 0.5651035351499751
P 2.868986419989086 2.7274781578441547 11.636811047789704 -0.789823350763001 -0.8001740978697058 0.5079965057243381
P 4.295309662548441 0.6191157060711575 1.6932515702530837 -0.2271104273323895 -0.3314468220586356 0.5928333969650758
P 3.607759874848038 3.6700858453835257 4.8724680674606216 -0.3620570907453248 0.19505725555158665 0.09171047843211946
Ni 5.383492153585923 9.469139796299274 4.952594608128037 -2.1221386699240483 1.01432179439384 -1.3616114970220035
Ni 8.300548596418848 2.2610062135508113 3.080060202820032 -0.24833591237006908 -0.008368169459037202 -0.02622653779669677
Ni 8.16708120515821 6.73718936508484 9.208802769646935 -0.7391281384009787 -0.4129279094532631 0.6873939432514807
Ni 2.737381707534215 3.428472429202013 9.616830861113836 -0.17898708946260142 -0.10836299938713596 -0.9465966231327247
Ni 0.9826737242277406 2.1382446148322223 5.648010064250806 -0.7101754599223704 0.5534649224697823 0.2679254044662225
Ni 0.740525479478236 2.5425012427765594 10.800360376169213 0.17617610237636755 -0.2002783947412099 0.6957387156717502
Ni 4.957676401642183 6.852601681584642 12.89641808240551 0.07712949529415104 -1.3712029973651805 -0.25631841635491337
Ni 6.706123202230267 0.8175066748949265 6.768917608821858 0.27882328232564885 -1.339584599128951 1.1592299398948616
Ni 1.199039543527146 7.539505986530572 1.8503196552537011 -0.10899677631639293 -0.19484205421698703 0.41097798481574377
Ni 6.097718821410481 5.241808688979064 4.353312742865399 1.0577523547736492 0.9946163455451129 0.04587362260366293
Ni 7.421087564631366 4.575744255820411 8.666689467711544 -0.33427863508047595 -0.6875890899814222 0.598392379110092
Ni 1.2278372955588557 0.7570765794211486 3.4545646863742596 -0.6134467023400532 0.1590173312088939 1.0319950433038874
Ni 8.747351759065172 0.057842631746561055 5.671601536808579 -1.0026374160773766 0.09937030897022242 2.2990634775409826
Ni 4.826283776378067 2.8243651192905768 12.48717463912376 1.8162514415020719 -0.32630898661143803 0.4671342202923375
Ni 4.302428415212059 1.5805567361496138 10.449784860441527 -0.46823542377631616 0.10937035760572777 -1.4585641976896688
Ni 8.11551635425801 4.020785847071003 11.852100755125583 1.9316484649178538 1.6356250166638349 0.842971138430574
Ni 0.6897960676859691 4.815974494670909 9.366329147403228 -0.09043521126412167 0.15177170539007412 1.3744824394474005
Ni 4.715150088422201 4.590350608435918 9.101318825608505 0.38470388161056324 -1.0762087617066238 -0.0023533307235249793
Ni 3.7554278867070847 0.7325316366231961 13.0822332029357 -0.0013693695437008674 -1.2924657912642774 -1.399526526900222
Ni 7.3863513712585025 4.387788898900031 2.1606502433582064 -0.07202482707773401 -0.6965928361419294 -0.47582352053621924
Ni 5.282806065070317 5.755456201442189 2.2472814059542707 -0.19108155873329027 0.8088083765059362 -0.9907532630452809
Ni 6.830203430004423 7.798409119349757 5.319014881241599 0.4695865384875719 -1.2159304779106994 0.6789892641275532
Ni 4.34661632034685 8.487342084381174 11.254519275861869 1.2349185889774281 -0.8852470163806495 -1.0071602436483946
Ni 3.1821193253662257 2.402625129882224 0.9239799773634957 0.9276982435663249 1.484612043816656 1.024326728125352
P 0.5938994612085531 0.32026456769584727 1.4563944398538176 0.25551288973448255 1.776809690566682 0.1479268777226872
P 0.6207063600018236 3.532791663507083 4.005247232934392 0.22361861212904713 -0.17610796814259347 0.20551418921885253
P 5.79733881102529 0.773668252565771 11.752606965469308 1.0436089733937317 0.4530887979428648 0.5694026767459613
P 2.0114810230358993 5.981153857134834 7.692228128357143 -0.5284745710730318 -0.21536485676068715 -0.22249349738566845
P 5.9957233250215145 4.302944801415638 7.019203546868828 -0.05786833307169388 0.4964843913196805 0.5155851167048733
P 1.5062247863809253 9.15433785694271 5.771580360648929 2.11979022429653 -0.08241645472470323 -0.21639741179025956
P 8.712716998696584 3.687301792563545 0.47120794347473505 -0.9088605420345315 -0.5177240174247472 0.7647674362356377
P 8.234229853987832 6.235566274219329 4.889716288778366 0.4059165111324364 -1.2135979731227808 -0.5563797821237322
