# total energy = -340891.58281655126 ev
CRYSTAL
PRIMVEC
9.09194613652255 0.00000000000000 0.00000000000000

0.00000000000000 9.09194613652255 0.00000000000000

0.00000000000000 0.00000000000000 13.30698219879960

PRIMCOORD
 96 1
Ni 6.4647372978888695 1.9317203110879255 11.41933327451237 -0.2733056949415293 0.21560474068563512 0.3877573237249064
Ni 4.60608895696174 0.23772165741100576 5.963218281882192 0.6252958883691554 -0.3100439309028273 0.12961342412548002
Ni 2.957473661037046 1.7846762681103763 4.798205413137639 -1.055972380055091 -1.3880000143178612 0.7491081324318261
Ni 3.4402559946862064 4.251866740031962 4.9558797594014905 -0.026819434185689297 0.4365738310069771 0.2808678235595034
Ni 5.38067729811504 4.546536710532324 2.761771341350954 0.035951992614576794 -0.3127217348453066 0.5366056848205984
Ni 7.311215656220398 6.19962524389874 2.657816758144845 0.8959811149687021 -0.492828539734648 0.44594884446397387
Ni 5.234824300066079 4.6973902788921515 11.867991716360173 -0.08440443168900948 -0.41421011859979634 -0.8163301388042778
Ni 5.561707035314446 7.797161987084433 12.360496067888262 -0.047342236729389434 0.7586045019580354 0.9865361396401396
Ni 2.0132841588311763 6.431742625783167 0.35376580123958756 -1.5957690610091615 -0.3559556058332773 -0.10482336166499368
Ni 2.802519625022307 1.2928110803874777 0.413947210333571 -0.08528786273522732 0.9744928353223604 0.22646636599048742
Ni 0.4153210033771565 0.021861584204508587 4.949411749003034 0.6277183817677189 0.18634044450387907 -0.7420211436780575
Ni 8.797721554612805 2.3533956755382914 1.1381670797320123 0.1479703293661129 0.9215034276095226 2.5762517953663697
Ni 6.900086949152952 0.6069737703060475 4.779348717092661 -0.272389353774847 -0.4287203964008294 -0.2784049638413076
Ni 0.7414100117379981 7.287867538841659 2.339713205973157 -0.906450132820826 0.6474328294775108 1.3185506612767872
Ni 7.739064452018178 3.7307436700174805 3.959386110133156 -0.20137651290139513 0.6443462201323871 -1.3413707444950962
Ni 7.545433277635388 4.00712064512609 12.51155693261734 0.9148350144504116 -0.23527033743536255 0.31762020058818846
Ni 7.964635632768379 8.822733498113159 7.070292724615835 0.21616884071922124 0.18614864020804714 -0.07055441317979462
Ni 7.024382943189066 0.5878324963506505 0.28704455537359197 0.06744466390621932 0.11498821801313745 -0.6334015481954252
Ni 1.9289745433899586 6.843962366372985 8.981175204621078 0.05575205805963947 -1.1005200847584788 1.0991414592433972
Ni 0.131941411444129 5.045457248366556 1.3722692334325524 -0.570069878016315 -1.2135568354722004 -0.39210171673653116
Ni 6.463464425446103 1.70106673251268 6.984102894737731 0.21407313453245713 0.7466352454113013 0.301829513412835
Ni 3.534930428589948 4.469336996878558 0.6325275937891798 0.3897453006892127 -0.9951017698219639 0.39504717251810034
Ni 5.759638700164582 5.540777375576962 5.005967290024338 1.31842827676631 -0.18126740085634588 0.9521656325800698
Ni 5.026445989239241 2.70991815481107 9.449607719867252 0.4340690623072525 0.4140753927941449 0.25768032969944654
P 0.07918448546988008 5.569871602840189 12.307880067077319 1.222172087945037 0.42824782763978503 1.3463710259231652
P 3.9318575159745315 6.208026202020997 12.728448032502477 0.9936755788983983 0.6430478130359377 -0.4926871290607772
P 2.237582467138611 8.33988752084186 1.2800305318675036 1.6165685142530157 1.5549373717047803 0.6659072341326144
P 6.509178730033447 7.739137187586336 5.86506526943129 -1.4071639888408218 -0.3695564844461635 0.008434503920598376
P 4.561638432871143 1.144712371671636 12.3367697255551 0.5303962135757768 -0.7691529668978431 0.7819190083142599
P 4.086429690256441 6.0671283145528045 8.044470192378672 -0.19840071810252283 1.9136386586039946 0.3926560465781044
P 4.87496507660405 0.9923222644344691 3.6666190839347275 -0.17893798139222086 -1.6583175731653441 -0.704114084219639
P 0.16445057363237642 5.499318101726865 3.6264317733327944 0.5062556117738314 0.021520133459962936 0.6533417387627781
Ni 1.6045739094049862 1.0303902424191966 2.547781481440721 -0.724374891351204 0.10839770927981332 0.7522919294764463
Ni 1.778630124007237 6.5888423610585685 4.81330804467106 -1.1958437344631534 -0.3473328971612728 -0.6915102794126994
Ni 6.0487080319167745 5.766139441568709 9.35613887800573 0.3241577445963901 -0.7015895180255725 0.4914581417496826
Ni 8.925572499542644 2.3684337542549714 10.233056162416807 -0.15664471721165926 0.34776767070584624 0.9180910594938639
Ni 2.44143298884761 5.241306857578167 7.097358538722053 -1.9232072761290362 -1.243286244215833 -0.4632369421204603
Ni 0.46000609967506406 -0.06484557740211942 9.03377756751299 0.7676041343534844 0.9741076840687998 1.2447093498156048
Ni 1.75069966583454 1.2377775311298813 11.453625367315091 -1.1261940924858151 -0.14310708773654063 0.16499206073509
Ni 3.956669436662452 7.076052472419351 1.7250376481937724 1.1913407043864772 -0.10892658520008983 -0.07665666942279055
Ni 5.484807355879331 7.609195095071953 7.786859903049446 0.7865593352997486 1.4369610175975962 0.5939811374162739
Ni 5.246307427889033 2.52716094786791 5.023252897797102 0.49750846170882057 1.7101481846833904 0.7255861380504858
Ni 0.9390798285427651 7.617286927029538 6.93872590134772 -0.012136892472850066 -0.42275697972854287 -0.2640710637171388
Ni 5.156760851540436 4.396937830723223 7.408010331935947 0.3466533545957449 -1.0324748111537831 -0.8362261063972567
Ni 8.230547778008248 7.192756691528968 9.060258769490138 -0.5933902979098103 0.05619737312717418 1.0981857801983474
Ni 4.635283195631184 0.06350269697500115 10.210034445900178 -0.022522092361916053 2.5667489980822573 0.3788286537767089
Ni 8.230538686062227 7.0837806265361465 4.907481512349112 0.534471412086415 -0.23904651664834314 -0.5272679523594404
Ni 7.3459923497459725 5.942877780246788 7.296497614003613 -0.5903610241651833 0.6261595219210313 -2.160074268627557
Ni 2.2498747781573245 5.373067339296503 2.6387082151951193 0.517074042545574 -0.8600448060834092 0.3687640704518553
Ni 2.2920795915810417 5.57806344620399 11.440318395120572 0.1174168820592881 -0.6540104826950285 -0.28431078780278135
Ni 1.2851192940547622 3.265827010297145 3.7484438705287455 -1.2462370993140408 0.44374875148886156 0.7865084274571551
Ni 3.925584073220899 2.864626708283275 2.9738046144777357 -1.0708801504048588 -0.5151223181358419 -2.0151848921796134
Ni 0.8386965617332167 3.3765578208717804 8.121450790133364 0.4152218476937623 1.3284229260851768 0.3642463850871598
Ni 3.50891837102742 2.662330909343655 7.293836401403629 0.5722702281017434 0.22008925881954997 -1.0137180993715702
Ni 3.7225063669235796 6.89337709299037 5.93235930789653 1.5832261913471442 0.7095540242882876 0.2889359452796186
Ni 0.633127662226484 7.334563773599137 11.124929698030385 0.135353926153683 0.8885238873597084 0.18402233789366373
P 0.2886056425051845 5.635588188671001 8.02466884314224 0.3831321662480692 -0.24593141669363452 -0.5658604679206577
P 8.39099334941892 1.801614563545186 8.211072829633926 0.27523170831964855 -1.4410390443217116 -1.1177634452199587
P 1.9465129072620724 3.6031836673602733 10.423997939166952 -0.7126033526375727 -2.0097254117269387 0.12329905187167796
P 4.060490368262071 6.006785068819669 3.781644929809097 -0.9684612844162999 1.359143237987169 -0.10438164614188473
P 6.78583755546867 3.8917893098654575 10.397183971965482 -0.31474904968798056 0.42083096635042355 -0.3621187972211957
P 6.409794668091471 7.854504890631048 10.22142574506833 0.2586082408303546 -1.0130681244923974 0.24898588724924217
P 2.4586713185010716 8.879267218464015 5.7819503356970685 -1.0809087382854548 -0.597400447510468 0.710866315341808
P 7.110447304212097 4.138544724841695 1.5189250503150582 1.14508681562526 -1.9415171301818175 0.7496997432692378
Ni 5.50360950024819 2.7683611838260753 0.5282393361641454 -0.5301740702626418 0.4235743334235157 -0.7668520866788083
Ni 1.179352686006915 1.2196481907664831 7.148390722536354 0.6865987010436949 -0.19163254614075384 -1.0755194489490834
Ni 6.8574275384282455 0.6501368748402475 9.25012224144234 -0.139874696842172 0.11958097959014244 -0.15359076087668388
Ni 2.7032628503246063 1.809915510261225 9.224187465420979 -0.6216022415676521 -0.5542429382863874 1.3404171223325754
Ni 6.5410278169406615 1.9440217140526586 2.514114914524159 0.6992600985614473 0.8737590703457081 0.553550283094737
Ni 4.166575194420609 6.983723760588707 10.282478162591008 -0.7952046696795724 -1.4367177912385385 0.2803618304573623
Ni 8.484776772612726 7.216695785398991 0.2942917455459413 -1.1627688062860557 -0.3298231704122836 -0.14185984559300086
Ni 7.4227556499907905 3.8011153322104088 8.197326716446653 0.2838934977597046 -0.46151918809840514 0.9035743539349278
Ni 3.1647518463954927 8.32594956759357 12.356956573302769 -0.3353273880599644 0.20220080857490338 -0.28583082399173354
Ni 0.2621435336146783 4.936399355859557 10.213148437411943 -1.2658924116511232 -0.07655228263444236 -0.7809659003723712
Ni 8.534982498533832 2.2232444682654524 5.633045171369274 0.8226211140193124 0.35943842217555516 0.49150802115101166
Ni 3.491952799754551 2.946254199648664 11.85698682489786 0.38442054604218956 0.5271936474780791 -0.44160085190792336
Ni 1.2999482580129877 3.5079364408572857 12.857870974899134 -0.674462065681161 0.2032732157034757 -0.291772129176833
Ni 3.0760962807568313 8.647413503014162 7.973463912353565 0.7842036905833785 0.4738417142195 -0.4601799004616914
Ni 5.649044268780243 7.744128665951184 3.771225559670454 -0.5777384503051662 0.38672759690881137 -0.39675747034098763
Ni 3.1368668479528945 8.46059219620017 3.803135562615999 0.578851480863687 -0.21045199284010205 -1.0537576317919592
Ni 3.4836882208225908 4.685752587986862 9.489541365175233 1.0237343459569916 -0.9909921185289642 0.16715641537626053
Ni 7.246017311312711 6.360516320664382 11.631141067377861 0.40854777810769644 -0.6437749210099494 -0.8482146462177005
Ni 0.5194892473147301 0.09620097164045953 0.4688525631522888 -0.8013979429744779 0.9992142493284404 -1.1470362260421472
Ni 4.926698249456474 0.49809680752484103 1.4265481511705087 -0.6777543632791876 -1.114780451332235 0.3906588136424175
Ni 5.940077460872703 5.6293783895395055 0.7445485515040187 -1.2548035008268132 1.2988778654382083 -2.4540606318468896
Ni 8.00110342825363 9.019528669710825 11.409699448509834 0.46100728145899317 -0.16932385534122454 -0.02791009614670677
Ni 0.02812502581752001 4.869519000938214 5.8489643422249 0.355629075731794 -0.8299639275376286 0.11917911616603344
Ni 7.712034096501437 8.823460853794739 2.399062702006333 1.1725281996656645 -0.5786218813513841 0.9777828189275418
P 8.543401640548128 1.3971320690181832 3.447094047287666 0.9836498192312801 1.33319180822873 0.5786676469876549
P 1.994572933922514 3.1514594213146068 1.7420041286612433 0.35854856337143415 -0.04562731092081174 -1.424278279923605
P 4.823304639319783 0.9654919317301626 8.164858468015495 -0.6232685735264814 0.01735314656646689 -0.23924012071638795
P 8.523835772713607 1.899371167149626 12.485568514114462 0.3084285067865914 -1.4225695247626144 -1.9348754564955841
P 6.352597235681173 7.66870188177127 1.306363535124529 -0.8874856759031813 0.4628715883612415 -0.7108213210364854
P 1.7817122937079353 3.1979283574215907 6.086773282317695 -0.7749163517441816 0.3113503084190767 -0.583036465479312
P 6.821287052999708 3.736917101364896 5.991907917547539 0.44705107638921715 0.8669492465127262 0.056959962324811576
P 2.4191486291531823 8.680326347605686 10.160040562321333 -0.6575182387379709 -0.066140343272499 0.41326112442296564
