# total energy = -340852.3481446306 ev
CRYSTAL
PRIMVEC
9.41471024746060 0.00000000000000 0.00000000000000
0.00000000000000 9.41471024746060 0.00000000000000
0.00000000000000 0.00000000000000 13.77938010065336
PRIMCOORD
 96 1
Ni 7.794881106953145 1.8397097004367433 3.6460649654015134 0.6452242518619662 -1.1792567766387496 -0.09791660724283135
Ni 3.524217902410273 2.296323147538101 6.9141481437055985 -1.7607222980865163 -1.6917244307605641 1.1798568721165938
Ni 7.57560309053175 5.6286504256428085 8.129269019711233 1.3201092640131589 -1.1620555822691148 4.464298207323556
Ni 3.952088239119868 5.489613984678008 6.2349078677470935 1.937508523243057 0.9674382424684241 0.8442700597476556
Ni 0.48736659813139005 4.393205073150528 7.633060125713499 -0.3723980676600167 -1.0771716398405253 0.23784375458949358
Ni 2.8228031594010905 0.13061874853071181 13.150199898748006 -0.7757177645995543 -2.4298058730645833 -0.7531645618893867
Ni 1.2489931205413296 9.313050208238288 11.5265888670814 -1.1649979527268903 0.1722762531013291 -0.8217016875288364
Ni 5.007373696277478 8.537626427957687 6.213342532449559 0.47734278539422315 0.6547026236660467 2.3432494280295773
Ni 1.2829613951215706 2.3950928727657366 12.02913668549013 2.564897803806131 -3.035205536730444 0.13949648756714686
Ni 5.182666186413152 3.321999340960993 5.849939424173501 -0.9345682312132808 2.4209592213072306 0.79815089679209
Ni 0.2158614180718481 4.312728129937695 12.218506991861899 -0.10206559641419843 4.180524265860852 0.5586305258311217
Ni 5.676816083279315 9.034553664347458 2.373938960306107 -0.3607085471372304 -0.5675116303708354 0.6988327812160416
Ni 8.431127225615201 2.5021287135924446 12.156458402491461 -2.2248048760367234 -2.459282028146829 -0.39161577823904814
Ni 4.088874564335035 7.072848148497531 8.438492353443396 0.02920233259556906 -1.902654391678349 -0.39572774352489265
Ni 6.774966716202955 5.3402496065694915 6.136191806367879 -3.1181850630474686 0.7520900978782854 -1.8393936839464904
Ni 3.5021874804264135 3.7863234357567013 9.463775011977857 -2.0503634969632754 1.1816723280587778 -0.65915603145171
Ni 2.153097160512267 1.8304079667102249 9.148502726910383 -0.8696651027819926 -1.088798939666809 -0.7362497884119191
Ni 0.162443293587139 7.195870167327911 11.74288430329575 -0.21786474036440542 -0.4906443875991357 0.7865950736336905
Ni 2.1517696863670857 6.0081856399314075 1.0062103385110002 -1.2025977653575355 1.3532978349499856 -0.7762533253880503
Ni 6.688906849812161 8.365130106766118 4.467440063467935 -0.6159239602359521 0.024963354813557007 1.1612235732861227
Ni 3.4725782166916965 8.285867661175473 1.3677154412007573 -0.061540896827274656 -0.7112761491857169 0.3431818511073767
Ni 1.809413162853812 3.5333501713523 0.24613536035018055 1.3444298430363943 -0.6566777451145465 0.6975582853789922
Ni 1.2490119499618286 2.352613700119936 5.609558334727822 1.4528766603865881 -0.7887789686588867 0.36082681788264953
Ni 7.095255158891371 3.275697795953891 7.776545017271196 -2.057265623399747 -0.60350296086378 1.067729263480703
P 4.668114612436294 5.669048947323468 12.243970958673755 1.631690971716751 0.276718063057188 0.1800366137730383
P 2.5115151797112083 4.155690762975826 6.622949272746126 -2.7629920464118287 -1.0910021179657146 1.1330733361041518
P 1.4541019980372094 3.5139087946870564 10.292824981839683 -0.2508517368133874 1.9730812781413438 -0.5280945620257937
P 9.329733074800425 2.4425335977130302 0.25763731186201005 0.5090288036435943 0.2435606024686128 0.29311784457144996
P 9.189557453895432 5.869102125415359 3.355623978617127 0.33218704265876986 1.1438899671036815 -1.6158236656671914
P 7.697222317534952 3.986376613848593 10.796516687543726 -0.9244069744095628 0.25864449338492873 -1.0259100134520718
P 7.958791212397159 9.155664496997186 3.0383397699693306 1.7572626216726897 0.6428860906470927 2.292724165586516
P 5.444225666565108 0.12027009902444764 10.32298783053707 -1.132227957384721 -2.1600737544069255 1.4540516545312958
Ni 7.403342137096419 0.10836802232701391 12.922468413993574 0.5464825776146782 0.2765550551167624 -1.8262260362162805
Ni 8.074036680561441 7.749925865511724 9.25140645140858 -1.3867082920896312 -4.165799043835535 0.7033908329003693
Ni 8.971663399880715 2.6168657874032535 9.21971465376667 0.1675906747002017 0.3624718096852403 0.9458651442833389
Ni 7.65498792735564 8.766620425356582 1.1649545924411058 0.3787587197707219 -1.1980759662277818 -1.6805180205217831
Ni 8.68014631171481 2.0208016520861167 6.750146715572165 1.17702197377096 -3.0118347232149874 0.6979598916927852
Ni 4.111102695234135 0.10403537267018825 8.529532601556182 -1.2347380975355056 1.8255945732798688 -1.163171955261745
Ni 4.075185575632244 8.833220085661631 4.215663408736246 -0.049941364915133346 1.5258872484163593 -2.552771452856242
Ni 6.151741141815974 6.117518670058996 10.47372016604484 -0.7847896449938355 -3.5634841897425855 -1.7302110168715361
Ni 6.7959521053491185 1.135771815080692 9.225446329366573 1.7703335959240352 1.240127129761561 -1.7024587864589322
Ni 0.13010658829313831 8.158364240266325 6.650025037952699 1.9555373557203093 -0.6802588748685962 0.49887911680410213
Ni 6.961745152843033 6.10816986278123 3.713418743997551 -0.05391963283659101 -0.11183810241992997 0.7015218980124306
Ni 4.888324685172392 3.8718749077940218 3.0872840241434716 -0.6734019998477628 -1.3789769848836446 1.632046298173641
Ni 5.317626057839913 0.15779995849207942 0.11360354269676783 -0.04244068566271401 -0.8647195858512592 -0.7533537950820574
Ni 2.4475704676965195 8.25829197485465 9.55925241303124 0.30236841663544056 2.108662489814485 -0.16650952582088097
Ni 4.684562111242192 3.397938393833561 12.160082124466498 -2.994919435516887 0.8824964502187059 -1.2824292329638818
Ni 4.972859368502765 1.840604097910447 1.5779591016667212 -1.2944396271611966 1.0113992214304064 0.5151464865055579
Ni 0.9966694711441443 0.5312438552492431 0.6772857821107064 -1.3711312635869806 0.23731642133111386 -0.47224943003171577
Ni 9.409390938221549 3.961022799146656 4.2382615377481505 0.489971272791511 -1.9093986523807178 -1.023011094637722
Ni 5.5625497449809815 3.285611485846627 9.672449240245228 2.2952667295027114 0.236358942513851 0.5970806022772039
Ni 0.18696108201891948 4.741841208400226 1.3709324476930156 -1.1495919025844654 -0.04032492487129184 0.6795489932857651
Ni 1.7301977908144135 9.401802681760442 4.273303089296836 -0.2890225914561539 0.4521827411888277 -0.02062821777331286
Ni 2.662640108636383 7.898348772595289 5.747530913434428 -0.6421870076975391 -0.8184240452188293 2.0058420175121325
Ni 2.3734484539021072 1.3439687175384116 2.3733881997565103 0.2482443810975273 0.5288985459843278 -0.23380403730248123
Ni 9.301856117751617 7.398154631748937 0.1871352541585355 0.6731011807778924 0.05050957871377753 1.134891363149497
P 3.9082251040673897 1.680845879686469 13.300450201091003 2.459825816465441 4.04192663595889 -0.09629475536869223
P 6.6156886482017025 3.1751110316480986 2.35842351781491 1.348272356710936 0.15807990699628902 -1.510506909305547
P 5.507614910675076 6.73644172186195 2.150809385921635 0.10464081334054236 1.265559968012369 -1.0678565330871868
P 0.043543976375020374 2.290194171165668 2.4701601234691997 1.689875550477283 0.33259199140667234 0.6373412495694637
P 8.313283297422053 3.90145592739799 6.2179868090156445 1.6054526068455124 1.3710836981784966 -1.5905978012208672
P 8.252774954648437 0.5197211913748648 10.990599056395377 0.759855343646001 -0.20184908166243948 -0.9389599325230733
P 4.6718616671156 6.897226143503124 4.90391638681661 0.5361187178818508 -0.21490231530197182 -1.4292410232455193
P 7.9909142037684955 5.773589889934055 13.413068965095672 1.250432111231995 0.255933779321985 -2.1858197530227774
Ni 6.017967523880651 3.8108770000874297 13.791230573158865 2.1436076384311016 0.08605276592570987 0.7784055958443626
Ni 7.14778924208365 5.431327513523276 1.4111464410527834 -0.6168403014026345 -0.37106263667804484 1.901862234794357
Ni 5.792569945797072 1.4705118380021096 4.922504790733248 -0.3283229317176733 -2.206375979907574 -2.2919988573847174
Ni 9.117591408748158 5.863669837601391 5.526771963090784 0.37599375543107505 1.3974506182077997 0.9169620880957433
Ni 6.255886666596082 2.0221573703620463 11.484341296307736 0.7232297220031673 -1.7777651125014156 0.40046808642335546
Ni 7.216253015018106 1.8802494427711443 0.6763838528688031 0.514950568444668 -0.440322499416132 0.18667263103231724
Ni 7.003875981209602 7.826062627299531 11.25096004393257 0.24788494087557952 2.9456797246544686 1.5019070834516777
Ni 3.748674009468901 5.64388342682652 2.6173798305828773 -1.7314564592428632 4.515331519751289 4.8653939000285815
Ni 2.42303573278629 6.046437607675177 10.315105835116178 -0.23985204326877402 -1.0653173116051007 -0.4007547644258388
Ni 1.875636234748883 6.5201387538794 4.031695263105647 -0.8089140488458648 -0.12324017360928452 -0.31457627155554213
Ni 6.019116118531091 7.256547974886019 13.450287197654044 0.1220664650161575 -0.9645215830422614 0.41534371798360725
Ni 1.9572429431916576 6.128138463220447 7.518994320743481 0.06238498999512482 1.135814903405031 0.5023567909400575
Ni 4.172110017650976 4.809476486832724 0.8198743932526485 0.5963812622173341 -1.346510379714507 -4.087986920652063
Ni 8.913725273005214 0.007572251453682923 8.559364993923811 2.8903308155705187 4.6642130480777615 -0.1249080482300107
Ni 6.912280265192095 3.723715612597443 4.519747252143201 0.3866000701920116 0.40814591468358735 -1.2436829654336194
Ni 4.278741025936955 7.517156569302776 11.090003333093831 0.16825041977138766 0.7765716279594175 0.21071347403160484
Ni 5.948326912165007 8.327094677358089 8.495015449368394 1.829451999352746 -1.0256978974412656 -0.06895981499916512
Ni 8.87017282339097 0.1567012618059613 5.089193177171891 0.502727801126231 0.6730644140026859 -2.1578525783858904
Ni 9.192937334875007 5.554528411848397 10.097833151977929 -0.7513583619185834 -3.2011550762827965 -0.576152079654653
Ni 0.8993477283528833 8.204176220340454 2.2806523623277872 -0.21481952578017843 -0.527315260657608 0.7785858301759688
Ni 2.7083673563182655 4.995304037737602 12.409544643418858 -0.786596102074955 0.3720064886485529 0.09498503541833318
Ni 3.9375990000458687 1.5532106528338279 10.569528964899003 -0.19895941881947027 0.1557350609131963 1.4188475958263371
Ni 2.694941979502461 4.0263138147270245 4.475060329943889 0.33479902636032016 -0.06279071007397573 -0.5973821926780228
Ni 7.364431139635183 9.414710249512524 6.715325468243318 -1.7091469971123856 -0.33564569063133165 0.8639677952868992
P 5.533994928794209 4.879399539855854 8.182953580496003 -1.6315811856117646 0.7824836225684781 -0.21740836955327716
P 1.4570111435043087 0.5784049633021263 7.505696983987069 -0.27565516901031234 -0.05301537585476676 -1.1176343758412621
P 5.590219578404299 1.4441318198829756 7.000366177228584 0.55210095224272 -0.5125090488827109 1.9619568860934082
P 2.727921709506503 3.707296357922293 2.2758301477379868 -0.16130766990496737 -0.527717381192033 -0.6799716826454806
P 7.701571913670227 7.133074049963662 6.854993636265861 -0.23644815979354766 3.50228936340082 -1.141165883304299
P 2.1133388391285752 7.505595305116374 13.083879855337367 -0.9644056262896874 -1.0498194730798178 0.2572697245245892
P 3.4526284456729797 1.766595060639029 4.2306826959972925 -0.05757188487719762 -0.3009393974983978 0.7814299844929832
P 0.6956096326693326 7.293001732972131 9.729827191860883 0.4286646034622295 1.3218501579636655 -1.5333300778476495
