# total energy = -381164.8543942038 ev
CRYSTAL
PRIMVEC
9.15528505718570 0.00000000000000 0.00000000000000

0.00000000000000 9.15528505718570 0.00000000000000

0.00000000000000 0.00000000000000 13.39968511158600

PRIMCOORD
 96 1
Ni 6.586421768219029 8.010462236120722 7.694996755767493 -1.5548365844608578 2.121280178578495 -0.5686485721887562
Ni 6.292537125260848 7.044424046992423 9.893523050468609 -0.47757187068589363 0.5394747788382774 2.175514771552344
Ni 3.2521494316588155 2.8906163891112886 4.015670889348996 -1.4064397090802874 0.1252911426010423 -0.9143069098610835
Ni 4.880783049597469 3.7603684477102663 0.022050503506690924 -1.0384405418189147 1.2342871260410162 -1.2510134376567617
Ni 8.201496409328366 3.3126017773738576 0.42886741586729404 -2.4381403610722074 0.4758546308844708 -1.0456175191833281
Ni 1.6744375079299245 9.012883527152939 11.378637507925122 -0.19038633243847855 -0.728321534703778 0.5666122584850176
Ni 0.2896603945388381 8.47184281499541 2.3904503615939814 -0.28882101696830903 0.12167874265943562 0.8456337728644018
Ni 7.462463507494401 2.2788053252382854 8.878054563028925 0.061276073201662215 -0.5283179908905095 0.5295176676255654
Ni 4.625780901301076 3.750837796204987 5.428533670004968 1.6771676159923117 0.31698770921051217 1.5270797260625637
Ni 5.601130015098797 2.0653407042036145 1.3006821601378753 -0.3114233277488572 -0.9900181846514691 1.8627408433128627
Ni 5.984553343668536 7.815372271734557 4.465230164454601 -0.36508996403437766 1.0329211546625823 -1.846556006022884
Ni 4.0268147020408565 3.4602673663543095 8.27301932545665 3.107663080470222 -1.924967967573885 3.1297542559423066
Ni 1.9855890180725018 8.896721273263426 8.855248748523978 2.0714100332209293 0.23125273163553722 -1.506752070248805
Ni 4.028737311854601 3.61251059774844 10.846536015873026 0.8426654342646971 -0.6689491062827317 -0.8910973045138395
Ni 1.2208480764433165 3.010642173197948 5.941594000673126 3.062241457802313 -0.6373193951925926 -1.0416446505785093
Ni 8.392667911808422 1.0671583100464634 4.4783890553369625 0.09230131793858298 -0.3417417762267405 -0.9011240926222223
Ni 4.772421098380865 6.015058752713292 8.092243648898059 -0.8223658034753968 -0.5741139661787016 1.084796246265319
Ni 0.3482478087345479 5.0416597145837985 4.750764272121749 0.13271648853083595 -0.7468147084119591 0.030466286909657202
Ni 8.276752850609245 6.7773186121542635 3.877037904379216 -0.8833438858206658 0.3820073086150066 -0.47204965531608384
Ni 6.333076726476388 7.01068682240361 12.36228130977643 0.6602505500674694 -0.5651526432203557 -1.0663598939370023
Ni 2.3232450777902796 7.025060619582561 10.599820315873876 -1.8517637754760687 0.7382305662873738 1.0918729506064422
Ni 1.1643416584888653 5.007830937146712 11.57206121047271 -0.3978766715470954 0.7272069614833605 0.6475289887357429
Ni 0.8852730129667971 7.159377803284725 5.622628454930399 -0.844848557958945 0.5644779857508343 1.674045525423562
Ni 1.4681506301999017 1.8990166447450079 10.853557203807126 0.27085569073913995 2.3834432266396437 -2.394547821193237
P 1.1426710993025095 7.150954941243557 12.587315464247434 0.7404062337824538 0.11879036536804702 0.019358349921953757
Ni 7.076321059330937 9.189525592611979 2.519703757258134 -0.19921472936338594 0.12999703271714386 -0.08580259758811674
P 0.8247730597706523 6.3177050032512545 8.937951182954947 -0.031099549618281926 -0.6861580139618505 1.0149000354948134
Ni 0.6997448280543251 2.054162101429411 12.829460846060767 -0.8547398489307279 -1.599093240286388 0.29741852882933295
P 2.7239261182595875 3.6233046785598946 12.387592925738627 -1.0811715050285378 -0.32524017902729147 1.7992525929512302
P 3.5576887522022225 0.5248697325669665 0.5736930354942993 0.03403137855309623 0.6859261004567025 1.2950726327595052
P 7.648755243161475 5.443878842904103 5.935229246661147 -0.9446276723318119 0.7827345622370196 -0.2522337047625785
Ni 8.147388675998682 3.2720438655886634 5.591353086431662 -1.0708012175378074 -1.0883127440590097 -1.5352224097743559
Ni 0.9021773308720302 1.6686330573493797 1.8542354000689534 1.476050270289574 0.47762663518322906 0.2700126260125543
Ni 3.42436949454624 1.2361648679594859 6.111073886811722 -2.272867535871905 1.7328024317477961 0.3338371766676831
Ni 5.768314671331176 2.0873591642134097 10.3051080351673 1.47259907851618 0.6673653067353797 0.7398089665180871
Ni 3.3458995482909577 7.59277983172701 4.979041228478603 0.4253807905046351 1.7832032527978516 0.25895662530870883
Ni 0.40949208658715697 4.997192496177322 7.04243185701399 -0.6609689162907326 1.1274955849060582 1.8745748598333136
Ni 2.340438702696057 6.626915593010431 7.3617599520358805 0.2994245035157682 0.5200693777284721 0.6829860439917721
Ni 1.5467579057275946 6.69666970811007 3.539580514342192 0.586285568544229 0.4724916279495089 -2.5806419540142653
Ni 8.266672882014324 0.8191929136683778 6.814663934493538 -3.6341242206576507 2.028644360118629 3.035538751700146
Ni 2.827710427062514 4.399727763628789 7.016490357455671 -2.3012034067021205 1.6715811230434694 -2.4585713752330496
Ni 4.840261758951584 6.685692521602068 0.570932717118851 1.6057966204484926 -0.5000618242582937 2.0481029830638726
Ni 8.091166071873879 7.713831007714333 0.40223560783299334 0.2091211898438205 -0.2038753680638489 0.1987845838045028
Ni 8.782728821877994 4.593270484879129 2.4483502138991566 -1.8412790738946614 -0.13562826286099222 0.1753806030582657
Ni 0.04935430944731967 2.7431888375363482 7.773827420244973 1.1730020539782895 -0.17971676853977434 0.7149664535531105
Ni 1.2825363856100525 9.051079375452675 0.3651960720069524 -0.9205639465143888 1.0530418366718575 -1.6181713399637616
Ni 7.974481966749206 0.3071982581541244 11.82231451252915 0.3250344907743886 0.7831487669563029 -0.7319277639977976
Ni 5.326032016606355 6.3386431396514205 5.9125708322419195 -0.49099148652590924 -0.7602330387003938 1.5694977860174582
Ni 4.671484083159246 8.72065599074851 2.3200480523285663 0.9533858781404161 -0.7131018895405461 -0.7396058493683456
Ni 2.9190527037850615 5.361142533919271 4.867703809693106 0.41133639659642707 -1.0933281949957299 0.9963695807907937
Ni 4.416600953565609 1.5628803623085714 12.22102167358968 -2.240448753221567 0.45715345493054177 1.0268075855656769
Ni 6.234071476353342 2.814673301468357 3.4566766636450197 -1.064726214988321 1.4391300002244571 1.220304438608679
Ni 6.344685627637476 6.883510760866785 2.4747210963158777 0.6296189412245414 1.05917751725595 -1.3374595823661481
Ni 7.825964936279809 8.270884313034909 5.660093711500911 -0.20946443211585217 -2.2175805903741423 -1.0836055683913273
Ni 8.2081339908282 5.209100718791342 9.971348464672046 0.44130337527216257 1.3036932845489806 0.022522092361916053
Ni 8.543968148865334 7.376028463439317 11.230797968532952 0.7492680550484581 -1.2799853994090795 -0.2939966476319775
P 6.162870826250981 2.128887536190304 5.753127884859555 0.43766397874736235 0.2686779663615308 0.1073651542502409
Ni 4.016606559458353 6.34640682118502 2.929653608086659 -0.39510039435353894 0.8476528601769595 0.7289979919455122
P 5.85689205203586 4.643569619720632 9.813500367906608 -0.7454563946118516 0.6326428156525298 -2.2096693059468655
Ni 3.0404975570199606 2.664728046565893 1.2910608713128053 0.3975825373454443 0.22908657722215384 -0.35457646609756355
P 4.540160677595628 4.602279285149249 2.0328797263197353 -0.6966283173655551 -1.9201240092180223 -0.18499961420526848
P 7.918689661011288 0.7296816939113019 0.5490222894700186 0.9398099392281943 1.1488619663969761 1.1414569321821568
P 1.4888049527704206 8.628718620512185 4.212499442323876 0.004567564766024391 3.0393236726638757 0.3350494518082294
Ni 0.8661421297915506 6.167192120689494 1.1993935819788866 -1.3734627399336345 0.9984863700234804 -0.0873804835981979
Ni 5.8934491043515 0.07284493925735396 13.326374916407397 -0.8037361041893513 -3.115840988295324 1.5041295450242933
Ni 5.195834711076501 0.033865398576395984 6.136171269108958 3.6039178722775995 -0.7025030309787772 -0.9185098921988376
Ni 6.509709636650599 4.963784861842294 1.3248777468796162 1.078169999198053 -1.2153969740047328 -0.14983155094456777
Ni 2.9738287729071424 0.8812767311396555 2.9442993172249827 -1.5305085492384545 -0.8657128030024639 0.3957092315821314
Ni 4.064378835687505 7.975232700105049 9.48392201599201 0.0909067515839015 -0.10684887673545468 -1.2671028870194565
Ni 8.40240913486473 3.2700937899204363 10.90002759853383 1.3138224025631824 -3.0752808074847744 0.9094197569721112
Ni 1.1280226435787373 3.931590584551509 9.510962149729608 0.38259480568736043 -0.07359268578548615 -1.318798258511219
Ni 6.122523486016815 5.258722362555621 4.12845667419418 0.7240234215490562 -0.8355424500666707 -0.8037592441178028
Ni 5.377933326292645 1.5364856761512993 7.837984909729648 0.5323330255871735 0.24666598086681388 0.60171115907068
Ni 4.269438905250661 5.731720997876226 11.675667906749984 0.7955070314113396 1.0240773311187072 -0.16796656998238169
Ni 3.0623695324725184 5.326883458095299 9.665447510377959 0.4784450173194664 -1.4395051241756884 -2.364180778865606
Ni 3.6284957250570065 7.955612924720021 12.70831445511124 -0.7111478511379689 0.7841520114098366 -2.4819540158230478
Ni 7.083352318078347 6.002992087310834 8.211340171574742 2.034909110081418 -3.1812555091453922 -2.99018937703107
Ni 5.362671466485439 8.95417984083992 11.00266841226182 0.8505780042435546 0.0631303528015816 0.6754141451817852
Ni 0.051182619827343 0.11816817679518804 9.544113436089471 -3.434770908833872 1.4512717777933135 1.2284419801141488
Ni 6.533797191031376 4.1937338550132415 11.675841857161704 -0.14103169326475065 1.4344287380940457 1.825316637028134
Ni 1.0980024646298314 3.98283271373023 0.4585717374896559 1.6821236744460062 0.971556892622488 0.7771863787252808
Ni 1.7907096252373667 4.608916866649083 3.0235584490323837 2.05112094395459 -2.744929789593479 -2.136168408544237
Ni 6.72705609845207 3.7728287903603 7.192642615176447 -2.0102820555613574 0.702350564561313 1.4815894549402484
Ni 6.572240232021452 2.031768274741694 12.664644662013226 1.8943646408657313 2.1429674337439417 -1.5391721384507233
Ni 4.982470798174931 1.0513745990040988 4.200640601887 -0.13370662035824715 0.01604059840263044 -1.1685514744061036
Ni 2.603488346355698 7.703668641555966 1.4078914609947164 1.272190843065325 -0.6787648068215729 2.1400106651084627
Ni 8.879884704465914 7.79169670517101 7.7735591703995315 1.2915800462252145 -0.5994794415266838 0.06983450429463457
Ni 1.0380353490106389 0.595921151526641 6.145738541753547 2.9687155234280094 -0.9767857451215952 -0.854238226703961
P 6.691304711201238 0.22136105419826715 9.321691284379712 0.8205814578814642 0.3749755985792058 0.5170182496069741
Ni 2.9467016639636814 5.583680042217854 0.2808951248451258 -0.5357595347702192 -1.3719226491400243 -0.3369656949943358
P 0.44315973101128203 2.8614751175058095 3.9405124096157693 0.669783429258569 0.45718250839626423 -1.4835848881037224
Ni 3.7110672389149455 1.459810165722179 9.976816000770945 -2.3220717655106977 -1.4323176052883138 -1.8097457791730702
P 8.159244769850112 5.48796153934783 13.309893572661187 -0.15115489774168162 -0.355911125748587 -0.34505284287784443
P 3.9900287676045334 8.014444785020622 7.106362295434946 -1.3441117975753432 -1.6799644620111585 2.3880758403156483
P 2.186227085064045 2.231820403504286 8.142854063423693 0.18311345292614917 -0.8759465649153302 0.13600158704001095
Ni 8.05896693513606 2.2556332993402437 2.410321907311761 -0.9904272471644298 -0.38634116010367014 -0.13339114600035737
