# total energy = -340860.25010982086 ev
CRYSTAL
PRIMVEC
9.30144435549375 0.00000000000000 0.00000000000000
0.00000000000000 9.30144435549375 0.00000000000000
0.00000000000000 0.00000000000000 13.61360401867345
PRIMCOORD
 96 1
Ni 1.6681674923803103 7.192025402371597 11.175107468252062 0.14733218156148173 -0.4948291151044445 -0.33112877659758455
Ni 8.97136375465282 8.736548798310904 4.667587429185866 0.5138956448175923 0.9149463432172952 -0.40460910517492255
Ni 8.48165202415389 4.504977723114935 8.719458324918842 -1.2257906585342309 2.0970737565356203 -0.3638280666028186
Ni 2.5738956117621314 1.2266744481034615 1.5282086629853089 0.28581539737276584 2.4502086050906513 -1.3510846293487504
Ni 7.542057346798572 2.2537120014568126 7.489946006220017 -0.5797318265861112 2.0465040140078687 1.2113091770886042
Ni 9.311954733316792 6.814089125640176 9.032966288792528 1.4917250007123535 -1.1353701025581286 3.9132377805302094
Ni 2.0120139764797997 1.8163767026933264 7.4647744381925865 1.6539739514846676 -1.679840277728468 -0.01664197943205521
Ni 0.6292622264978784 2.9801454843384643 11.153039792121296 -0.06628638193206003 -1.2446954658585339 1.0003036257378772
Ni 8.894152467166418 7.102461797118425 2.512145184661212 0.989474139222541 1.748279444337473 0.04078103857210396
Ni 2.2014843928269903 1.8226737803500297 5.006185108378888 0.21975784362206022 -1.280700423198233 2.5927415654912767
Ni 3.938473270114167 0.8643980826612956 11.552231728913425 0.7715705752004002 -0.6357453658372535 0.37285880934651916
Ni 6.9239856876991865 9.205313676693299 3.313374369996112 -0.8495457063242983 0.03534392671693268 -0.594573519584634
Ni 5.007302211815477 6.4136991628477755 10.78235492121139 -0.07963477821450801 1.5308366220018346 -0.42334910478658705
Ni 5.489609992809629 1.1065928047533276 7.561798731759557 0.23469698143039577 -0.2083380318208928 0.1272274403918067
Ni 3.7520630288763637 1.1844179875504284 9.340348321580976 0.2602591461702163 1.4184691294409957 -1.5249984180535026
Ni 4.970942866822783 7.387606867493461 13.181916356612671 1.449569450390226 0.9325092918017229 1.1633509040417707
Ni 5.864681424757794 2.158344295084316 4.492149171410171 -0.8127696751465293 -0.18411181228367646 -0.4860793939362725
Ni 6.339882902458414 5.517123664461813 12.918179489981606 1.4293050437142352 0.21719085422583242 -0.08523155557599514
Ni 0.4897759104632322 7.068446416039305 13.409890100817949 0.5924302479893861 2.7427888319910765 -0.705005742795973
Ni 1.0281351237573257 5.007441733476999 12.168777951180166 1.1772443741944112 -0.09023415099690912 -0.6304463222218433
Ni 2.6920053489627516 8.416802355878357 9.140336578633576 -0.9280196314614857 -0.9527490158873656 0.2528137456357646
Ni 3.5421573398382167 5.000391238848076 4.266938886247446 -1.4176795436601648 -1.5616448656319426 0.3541396356704611
Ni 0.1402676373391706 2.303502631732046 5.906602103178764 -0.49897321917980514 0.7202590694106177 -0.5144198927521786
Ni 8.627275433006693 3.005994197496483 1.702231240968758 -0.6540711607296349 -1.3614862842980489 0.23088043589778298
P 6.851750672807076 1.3959142235299287 0.9804856859142532 0.5881354772687742 0.8194100632811823 1.0211565579274864
P 5.27040285967 7.960054943275076 1.85072879604892 1.5669246259736433 -0.6976436460039468 -1.4833079802932518
P 8.969456958612017 0.6248384596832134 7.246112369677305 -0.3112976008042703 0.4199382793328252 -2.116764292986012
P 7.771896030546195 7.078696607439139 4.769226169171581 0.06016587085661896 -0.974883643002876 -1.448742840723873
P 5.6993668587421515 2.0849931069000283 10.430620812513842 -0.5599932105066033 0.21693862900571026 -2.8265761989213773
P 8.342604736280833 1.7706508034904402 3.6075641646154293 0.09925666621049357 0.7077815057688971 1.8973910863968804
P 1.3184052898322782 9.151309492240095 0.8294004690850588 -3.3372528225810396 -1.9236340792538098 -1.5332282621624627
P 6.158476838147208 4.174785758956421 3.0646667767442226 -0.13130649555718676 -1.2246886837193036 -0.8915382487060001
Ni 3.904885755463715 3.526689038297452 8.815557124797714 0.06853712563944972 0.22841294819389696 -0.304610675702398
Ni 6.884305727162264 6.663173195093628 6.659394018355195 0.9239485467159056 -2.3006449630954893 1.0502429337704817
Ni 4.2957696423844 6.771618731872809 3.3234208597701227 -0.32811955745761556 0.20368536354022984 -0.1292113035910549
Ni 5.05394895398441 0.2468528852980542 0.37293675052687475 0.11996407396117403 0.7706056401839696 -0.09202312457653183
Ni 2.658966619514287 5.734451905892943 1.4971288176646165 -1.9360843892020205 1.022649340422929 0.323889578536668
Ni 3.6947754346553356 8.813220602039422 6.973214510750691 0.8043341427846663 0.418688208975808 -0.2165444788910851
Ni 7.41678549763981 3.929599692441353 5.06191936143497 2.7551938905236484 -2.537805061354397 0.387118661699643
Ni 3.6327720082748556 5.869834424790016 8.465660051310211 -0.31176785557246955 0.3897213894298127 1.3465006095224938
Ni 3.1356098210506365 8.287289048209319 1.271711110298428 0.1334101721637509 -2.284052348844131 -0.6315989477690478
Ni 4.567920595349665 4.1776413022955765 6.482838657142913 0.20238618511283207 -2.145600757601731 0.4581605560388174
Ni 1.3136429504523193 0.1299569865526777 12.186612540100347 0.12010419908346412 -0.23878683522905325 -0.7689855880820434
Ni 1.0437708512919173 3.1765919837617664 3.62746739470378 -0.9617221659202533 0.8740809724615011 -0.7540161112564048
Ni 6.002956692770428 1.912776869361087 12.423774250789068 -0.13667007386194527 0.6028054205761232 2.2452343475356686
Ni 6.506155517216508 6.343789508981036 2.714062793505006 1.690193595938334 2.0133856341873453 0.277430001522548
Ni 1.6296037051355654 8.906197837277837 6.025476419084526 -1.0967655028120533 0.14693031813737276 -0.08587870224169081
Ni 8.987892420821154 0.2840726138701349 2.220106814062568 0.3213752967552465 0.2287803588356447 -0.8356311531257351
Ni 0.4199871753698119 5.076690984812533 0.6743937634226798 -0.777078649502823 -1.416168249221961 2.685654805982246
Ni 4.192077143541077 9.04623107822565 3.2509970255627523 0.610329239756994 2.312033664548405 1.4793700786914266
Ni 6.497142417882173 8.550398997507944 11.858075302847487 -0.2727865892132657 -0.5012581585592399 -1.5833750582201827
Ni 8.003557797337708 1.0050768438297517 11.700606504931445 2.235473668604479 0.569889900795025 -0.22285576582109362
Ni 0.20714595057323718 1.768948639219869 13.503768645989796 0.8307098045647178 -0.18931443953053845 0.0984259427790821
Ni 4.059345536212927 6.322758943867584 6.272862277129595 -0.43971109108437817 2.200248783963914 -1.204830511342796
Ni 3.3940318425221143 6.02418258821001 12.843291703231754 -2.0858748024960074 -2.037769462348349 -0.9850569839914519
Ni 3.372275764768747 3.7358692146956836 2.307805479773392 -1.6677951736384762 -1.0682396274582184 0.23284064494794737
P 1.5315013741972334 3.8121038505514306 7.8816093541564065 1.5008804419593762 2.3109802835832265 -1.2729979123476527
P 3.1266153246045034 5.097051845950678 10.510464408680965 0.5178132347044437 1.1688571785719803 0.42287602180491035
P 3.213295482186215 1.683021898610377 3.3436914969004827 2.1406012475046103 1.4018227791335662 -0.07878554284033527
P 7.848158570734246 6.568428685475931 0.5576048312844702 -0.45224084812027276 0.10607960266959797 0.5094270675232776
P 5.095070638357062 3.7779489478107884 13.375719385622334 -0.3329995112577362 0.06881737588402988 1.9950953205185902
P 3.6948591476522488 8.16152422251318 11.584931885796594 -0.4576985288007343 -1.9223058473606893 -0.8103204422750884
P 6.67103291535938 4.413981695470136 7.168188591572728 0.22863226329355463 -0.13707013751384134 0.08900207836202091
P 5.690400266628323 8.175420580000793 7.411382288761259 0.1320534010255403 0.636812116538871 0.5216902011613467
Ni 5.793078908064585 7.946242298784376 5.054758179621238 -1.1046346211474847 0.7937748792115813 -0.011172985897683983
Ni 3.5062816699388004 2.1698408799937483 13.254177415548265 0.17177540220551063 1.6370514646977161 0.885494099394449
Ni 1.7399002292909405 9.076888637984135 3.488499169105587 0.31572375489642396 0.06853018366091423 -0.6599409892468504
Ni 5.101683965113216 4.237868152852673 11.35904073492564 0.49238168200521654 -1.5665592722144246 -1.1574057422019293
Ni 9.037831874202013 7.670714921610272 7.272959127787413 -0.44919409087414897 1.80062401937746 -4.829851741257914
Ni 7.259553886548356 0.6967702474976153 9.628221505510977 -0.9536303900510544 -1.308408430636463 -1.8694997593032514
Ni 8.340372389696478 4.984336946328917 2.7419699162426827 -0.013367422445841493 -1.7507415327247202 1.2389698762286663
Ni 5.07297040717194 8.658714314069702 9.421811299166166 0.4865838443765168 -0.7722917696371409 0.8054358604892775
Ni 5.04165244488225 2.3413595092250783 1.8970964948948086 1.3962213737863889 -0.4694369002835851 -0.00585105946413831
Ni 0.7246755099464717 6.524656089534355 5.297148232039402 0.7146903170735885 -0.1543032135626762 -1.2215925612924834
Ni 0.3346510764607642 9.247012050600244 8.978838395132772 1.0552167328359892 0.022103516767258708 3.007991695319813
Ni 9.032185897632413 4.870924438399546 6.644065238475953 0.4200547503060314 -0.08241928293818063 -1.026364327380671
Ni 7.905381054846565 2.8523901496046076 10.09297560119681 -3.714706193276777 0.7319300779906427 2.4614430403538896
Ni 7.494759503542535 0.9030744173796683 5.687246146933511 -1.1838567373046065 -0.762984376193286 -1.2392904927928785
Ni 2.115427432000078 3.973390891271131 5.842903953682994 -0.5879135910659552 0.7648664237073471 0.2294177353093275
Ni 7.839545433496274 9.16690801399828 0.02430653372599307 0.8299950378858802 -1.8768528572342127 1.1347376111804524
Ni 8.319611566461969 5.881321708255346 11.06734279718111 -0.2855881118533082 0.334638589523056 0.04878591115445147
Ni 6.422377410194458 4.837895010395183 9.368474028255038 -1.506811719842147 0.1916204619558958 0.014022025310704882
Ni 3.1254526440918178 3.0466508096640617 11.04531604740439 -1.328867212711447 -0.6990022169143704 0.06534407262344875
Ni 7.059991403351058 7.314432406747101 9.061514281028796 -0.4901170543407559 0.018667494502516237 0.5386453409584464
Ni 0.21905272916754445 2.6043206354180795 8.791801236562529 1.1513821617156688 -3.9117588819918376 -0.08154793607682084
Ni 4.883639512486272 5.466021530568271 1.409498052495733 0.866904766428036 -1.4071493335528023 -1.5767740079638974
Ni 1.116638364382928 4.950042521926753 9.662459191104123 1.8299801039420742 -0.18214903213035083 1.4807039670115014
Ni 5.850273487844598 5.30548790682079 4.826363079998165 -1.8848469311832832 2.0772991450118545 0.17082717935962835
P 3.0317778005457914 7.737080725274347 4.707203209758489 -0.23775376597884862 0.3002086899799604 0.9385765810417256
P 1.7715251392359794 1.41550306480765 10.039597403931635 -0.26024243399966795 -0.15816912427598567 0.5338777443664742
P 2.1727243276652075 7.12834771605285 7.31957145461317 -0.6870720411356877 0.11210986802407788 0.3519547122040003
P 8.43911652027781 3.6618111167596825 13.158419048523507 -0.24082006360899813 0.4742770019847058 -1.166039506617527
P 1.1935520056580837 5.367788979412518 3.175822754334574 0.27430482563000497 -0.008389509615275874 0.3213177040444337
P 8.832735031764331 8.131108500301332 10.93473210862628 -0.5967227047171529 0.05310973534078595 0.0892537893615108
P 4.196839482921036 1.7581031553975408 6.001353123807331 -0.45560102284175724 0.7008341279167866 0.15596620308739592
P 2.1929363656977285 3.762452741937719 0.29220765688129113 -0.18127408572456521 0.7648152587544377 -0.22030754547794312
