# total energy = -340892.554520375 ev
CRYSTAL
PRIMVEC
9.06036592422300 0.00000000000000 0.00000000000000

0.00000000000000 9.06036592422300 0.00000000000000

0.00000000000000 0.00000000000000 13.26076136592201

PRIMCOORD
 96 1
Ni 6.60814154187056 1.893879199112165 11.45334610298817 -0.30983515732613087 -0.660947576134494 0.46839663194452885
Ni 4.7008348806689995 0.46470616097509415 6.268918728870836 -0.4855415191549316 -0.5015651482766975 -0.4161644141126898
Ni 2.7802638439621252 1.600622339835876 5.063727899275029 -0.15465108382039816 0.23940852797345222 -0.5772622819996961
Ni 3.4283246272739896 4.4450879357315065 4.758027533633304 0.09579853245856404 0.19209200227567563 0.47286623768010816
Ni 4.9353171471153905 4.464984498989478 2.710128458477779 1.0349415275267209 1.0659791135588157 -0.5815966477089919
Ni 7.210565262736888 6.13223676878852 2.7127142868720524 -0.3868510098605531 -0.5918674335073807 -0.22253232104340387
Ni 5.125394560862642 4.307098564866803 11.760451731362734 0.1302474581650531 0.2652198326096013 -0.22808564676146525
Ni 5.944424446486849 7.898301387809524 12.305243371524316 -0.5204894959850261 -0.0498536902973335 0.059595857285761875
Ni 1.7831615292522383 6.291635783996842 0.4573473318866954 0.9068165150213091 0.29208451821092923 -1.0863167966749032
Ni 2.7535629460016335 1.6076803647803015 0.21032189505126242 0.29653252667995383 -0.7709861634518399 1.9541407324830988
Ni 0.4510068879122292 9.015217979624785 4.907966620928307 0.5168909800004905 0.5931599270665592 -1.0113058903856518
Ni 8.661845593382814 2.4174596169407625 1.37669268141615 0.4508370257942107 -0.21217334640658295 0.16393765132864668
Ni 6.639852822108673 0.786107234480998 4.7813262642425345 0.32820748918573156 -0.20746308541510722 -0.1748841230378214
Ni 0.9216838299378709 7.3737243297448725 2.319266996738312 0.5334265157616684 0.3415769685141021 0.7281407861515394
Ni 7.870495125223591 3.95199564876041 3.9646493556119955 -1.122164659611448 -0.14095764549370562 -0.894755212981401
Ni 7.512683159748284 3.816117343122986 12.803357819248552 0.4821746595652277 -0.03508810195238473 -0.3292225607138072
Ni 8.017644525894218 8.913778124325951 6.929132180806524 -1.3352905997392874 0.3658512676804344 0.2192572498365579
Ni 7.040157903103051 0.5162714207520009 0.540840414643913 -0.9591649467160384 0.3856533900080262 -0.9786960747704305
Ni 1.9148992477271432 6.391508196015334 9.207225251283669 0.602951459235684 1.5016414884951172 0.5678849545498542
Ni -0.2767987048327084 5.088491691031261 1.2910468557490538 0.4517387116728736 -1.32597806408911 -0.13663484974863568
Ni 6.152015547291321 2.172168334116065 6.9635706311451155 0.6163381649552353 0.10621252870303644 0.9203870546168923
Ni 3.4706093543800685 4.133837190011534 0.7000011422321599 -0.30407151536947635 0.8252701216063851 -1.4059218889036045
Ni 5.934095629495006 5.846219141772304 4.74375926959931 -0.3347841139619847 -1.324748562557383 0.17148126800385952
Ni 5.102535257993853 2.8357948258419525 9.785182360391426 0.06309847112238165 0.10143978990474144 -1.5350516885244467
P 0.21254983899713442 5.392358238638644 12.424629999364765 -0.46169787976811455 0.5322708048906705 -0.6081438020699009
P 4.110941645679616 6.0462085956854095 12.548234227476883 -0.4156396519574712 -0.2857287511962305 1.7491137673133101
P 2.4457641996447235 8.648644640437979 1.2716422703530632 -0.3362067053411242 -0.04519202315560604 -0.0952208055782231
P 6.573440340924281 7.788897470988033 5.577794026995614 -1.225351257003967 0.32579373753791635 0.9265669581753592
P 4.920911165521505 0.942423007213597 12.620411819408563 0.1555910791361643 0.29281573994999893 0.9072993681949987
P 3.965142239510554 6.252549366011922 8.37699494147936 0.0922907764156217 0.20040617856832582 -1.0447826819868586
P 4.578601485899746 1.1239927374912513 3.799313988743099 1.1877954102373802 -0.07819521755450405 0.0372794531767487
P 0.2959722509012499 5.562385062909625 3.323611261818005 0.3860966481930318 -0.5204982377357745 1.4523956069851116
Ni 1.499988857091669 1.0657527062425107 2.7434787588859137 -1.1278485973701027 1.012353872034192 -0.728227432328075
Ni 1.9034288246467284 6.53180796015453 4.616203815969523 0.7448012775263559 1.0345136959606829 0.04374603473769885
Ni 5.970636084695095 5.561334060478877 9.353199522512332 -0.4925912269128613 0.07737709252858288 0.6325484561665107
Ni 8.704438372925493 2.1321124569924366 10.219020761182742 0.5309333170261695 1.2808006962215233 -0.7340563803050261
Ni 2.3771409892094466 5.558679373304656 6.842274078197754 0.3238232440751068 -0.47445569365441514 0.815504300468873
Ni 0.6212330402304213 -0.12355711421004983 9.222103277934814 -0.019623687768198464 -0.029264553292072178 -0.16501442933259322
Ni 1.3344469138829356 1.0305894266413342 11.570239318165326 0.25429727215982656 -1.0779697102617887 -0.4067104677886415
Ni 4.053662013203802 6.945975400795854 1.4121123693689661 0.03952351201591903 0.11567598810878142 -0.08817418314408684
Ni 5.789474070877645 7.486408098979562 7.875420340062858 -0.17085520438408638 0.919890574596448 -0.21073147175373383
Ni 5.374300929634484 3.033664154161997 4.5625773229771385 0.3178778251249493 -0.13909282437082496 0.7781250884894664
Ni 0.7159029902167063 7.487595006897046 6.71299534299617 0.2554812651655987 -0.971828915336952 0.8393564244961221
Ni 4.928114156318448 4.719743864056697 7.154273210131346 0.067537994950974 -0.018409355745123136 -0.4402978168257836
Ni 8.231324192504408 7.10785695622853 9.132261596873926 -0.9609778315550612 0.16461179457753586 -0.007765759988347915
Ni 4.685260111889194 0.5086724919703708 10.518541957360926 -0.266822915430663 -1.3657144634467833 -0.6478434346523682
Ni 8.34945324157427 7.0257338007776 4.596908860999498 0.11616115527531608 0.26460302496120885 0.3000947901099154
Ni 7.432689190256198 6.031195569584109 6.760839510546279 -0.29721232635579786 1.0433891440734417 0.7846297223772036
Ni 2.399248281718303 5.233520966108826 2.556568849016161 -0.7279944903816623 -0.42025195391850206 -0.07018905942057589
Ni 2.2439989140382828 5.214249568089835 11.506428974033616 1.0983341328507534 -0.529968639120055 -0.20929525352783954
Ni 1.1910394442804049 3.408518667673843 3.833924586031554 -0.22679958096019004 -0.33114985964350707 -0.08239691434067745
Ni 3.4451950283606663 2.72360937672529 2.8076080278931608 -0.5720352292728019 -0.5089401005845299 -0.5947817789406983
Ni 1.0074583127990762 3.5046582089900196 8.304923355827334 -0.18715574131632287 -0.32498178315958226 -1.3134729896435637
Ni 3.6568270523040516 2.6246973634797235 7.2389695094644555 -0.7474348584944611 0.5841528384719423 -0.508686332702511
Ni 4.230873707540161 7.163070825305978 5.900574994210164 -0.833503822370087 -0.13160037264852176 -0.1521997940664282
Ni 1.0520443728138633 7.305807827840615 11.513602971660056 -0.17646997946770254 0.8842165182336063 -0.4282087468717335
P 0.32553169426606265 5.7320766536466605 7.968377880916286 -0.6700621368412525 -1.2054581176244659 -1.0394263027709518
P 8.584225439725696 1.7205272205990734 7.959069261111532 -0.7339249969334845 0.10676274477955161 0.5325346000750183
P 1.7550653349612697 3.3059372062864374 10.442013577780575 -0.7083245227565608 -0.141548227889853 -1.331992645714306
P 3.9737405266379735 6.368204935223213 3.551815600813829 0.12001652446566426 -0.37777167326710426 1.4413326643027307
P 6.941644545951906 3.7986398975288944 10.448989153396383 0.48210961065524705 1.162779347809017 -0.15182132768108692
P 6.29537771506494 7.745561741451206 10.07931898118518 0.551300824938928 -0.14054061256094505 0.4222116487480341
P 2.3834832452570693 8.60659548284224 5.979064942982385 2.1338783269584796 -1.3192615713008826 -1.7815117240280414
P 6.911373863873181 3.862379570807502 1.8182758828781902 -0.6438937059760008 1.0288310437536088 -0.7037975814204848
Ni 5.316423313017037 2.750862956998503 0.36990755379470014 0.4597176161132922 -0.07481678800057437 0.7647874908402958
Ni 1.3643008191356736 0.9960241311817908 7.00722528555748 -0.8207606637718058 1.9169157866933695 0.8027349166183465
Ni 6.969242420124846 0.7226964524802885 9.179469726746117 -1.0037571315041165 -0.37277010628745477 -0.4731945675538045
Ni 2.3563202686416798 1.5074455381305167 9.15142336446695 1.0288264157679186 0.9583612198678205 1.1344406487653238
Ni 6.545380388096443 1.8852899723505274 2.4509467288722098 -0.2284718264562904 -0.38088707896763435 1.6076681264395924
Ni 4.0842951099138185 6.780696208194808 10.55791287083141 0.25269136112528734 1.1899818763657377 -0.5683621512965888
Ni 8.291584685322604 7.212350154796005 0.14823030230845843 -1.0409458247392718 -1.3063775162493632 -0.17951185161781988
Ni 7.416335230019114 4.117863765137307 8.190814391055085 1.2353237948356468 -1.2049842633118408 0.5858446243520685
Ni 3.5186021119290074 8.308853742503702 12.609564749493972 -1.166458339322501 -0.15654470129868525 -0.4991038312203985
Ni 9.22426779932021 4.989398470470047 10.063883742038422 -1.0039139687969547 -0.8080236758211117 1.1836428215215873
Ni 8.288467919493488 2.405780805447354 5.753472707441603 0.8650422592980005 0.08209069595416829 1.0572574174151017
Ni 3.394565704369073 2.472501339068345 11.420472377820188 1.0331618099184787 0.395508428425235 0.0040836831510703865
Ni 1.1530855720182744 3.24243310251817 12.565512345023764 -1.3799079813383461 0.2773865498791223 -0.016942284281293404
Ni 3.146982149001449 8.518111950612122 8.118834315097459 0.6013571181653707 -1.0610271688701793 0.16614262939976548
Ni 5.549011963014924 7.929532468661175 3.4615888542071924 0.2409275357211399 0.5366918167765015 0.11061785685958368
Ni 3.099841065836048 8.614133707173128 3.432799541933877 0.04332488803988023 -1.3633099677703489 0.9993826565855047
Ni 3.271399091924241 4.291958693644549 9.12950362152979 0.3280902468815769 -0.191153035401174 0.2685949197294213
Ni 7.248057056344121 6.012531216072533 11.546317234390273 0.39790958166755985 -0.7411989048870784 -1.0029364353750339
Ni 0.31977292577482125 9.01133108270417 0.5518052693136742 2.24743983982742 2.203594303397379 -0.14074887191700922
Ni 4.670093059569593 0.3765080302671188 1.6582054945653986 -0.04441580711121383 0.3022835702311181 -0.8841535262061546
Ni 6.000997370431643 5.635783086112183 0.6049859923095684 -0.09688250955136218 -0.8071340741273066 -0.9660166795305493
Ni 8.126812873205369 8.664219409217782 11.158028916532983 -0.3924426450157177 0.35563576060001334 0.5676378715360547
Ni 0.2187987732771992 5.075118591136559 5.701238792669963 0.5177132187914696 -1.3473986958567312 0.1660924928881204
Ni 8.080940241249492 -0.49110806686476904 2.6076095136142716 -1.0583910167989126 1.340234574008124 0.8250752319867596
P 8.603533079207816 1.5541789048357135 3.763868025729514 -0.6005384789188174 0.3987626736964745 -1.2316424893293174
P 1.5548946737325164 3.3346495054506033 1.4156123886706755 1.6706922926806131 -0.2866373790534289 1.6573667792163005
P 4.693414441093281 1.1137907656203612 8.388173620781584 0.5068274251169013 0.20531492872385285 -0.432622559668713
P 8.4930147373951 1.658164722919378 12.447332557905519 0.27345353337330325 -0.96709782840987 0.842805302276671
P 6.408088665396976 7.614086773583989 1.3405834996272994 -0.17902051380369813 0.9639520836920367 0.3902842039118181
P 1.8245311594143026 3.519326941191593 6.023395500682112 0.5251110539174375 -0.7679810580769291 0.12165148896592597
P 6.741945023743833 4.074075017311364 6.075643006002427 0.18545855611955803 0.22565544005341784 -1.414456665847493
P 2.5707338248802367 8.633522889947288 10.348340268030345 -0.8497429099367689 -0.562410047478212 0.287933215046717
