# total energy = -340856.18579834263 ev
CRYSTAL
PRIMVEC
9.38762337011020 0.00000000000000 0.00000000000000
0.00000000000000 9.38762337011020 0.00000000000000
0.00000000000000 0.00000000000000 13.73973571766500
PRIMCOORD
 96 1
Ni 0.4601841082837698 0.769325113431848 0.33502925380045595 -2.1666688911259397 -1.9535267530481837 -0.06518337867586838
Ni 0.10698135462251028 6.8549082147103695 9.02638751286733 -1.0471933483108804 3.4054695887665933 -2.621952382727278
Ni 5.8775815328009005 8.99666629763963 8.47672996733302 1.0270904069134181 1.151912837408158 0.5352674256251492
Ni 3.066392035504212 3.3641580575533 0.8279780447714392 1.764161405675052 1.5586793552457157 -1.232826739445406
Ni 2.1118678904829573 8.297335303202642 1.9022798136751156 -1.9111374894486957 0.3611237802977781 0.714089450264796
Ni 9.117945002480646 3.1635069980849306 8.113478701738808 -0.32460897320119575 -2.861236212197408 -0.43291695098068017
Ni 4.816235622752483 7.4309609405528665 7.364813869568211 -2.5239776685530018 -1.3282771445359318 -1.7347261311330706
Ni 5.820889675959435 3.234740283349551 2.8106281174259946 1.3314370303211522 0.8655413104216061 -1.0063930264650667
Ni 2.8338512198360655 7.9190328612424885 5.739252087840469 0.8826702567924088 1.2640085643648489 -0.6557968851714899
Ni 7.191642260894069 0.457885079348437 5.922321067713147 -1.1768029157816184 0.41591990220205144 2.715020403628557
Ni 8.411930020285565 6.858897954594061 12.28031422062698 -0.09658914668065946 -1.1915253095934577 0.08696705020986313
Ni 9.118583360862036 6.023127243758027 0.9357761226171998 -1.5644139437366475 0.990909586117487 1.5384640566401053
Ni 7.20808937683814 4.009022061860434 11.608386637235848 0.49883232272656675 0.5083466899749052 0.31536405756416014
Ni 2.3516747265510536 2.504683597996499 4.499639905977015 0.45230255459614366 0.4486744709252531 1.49258194939601
Ni 2.7038983511067385 2.566012940726304 8.716144400749027 1.0292820152480984 -0.6134814122327306 -2.4738051614636682
Ni 5.390194908608949 6.217441657528765 3.377172119672744 2.562400234195258 1.7939003275003818 2.623516127669972
Ni 4.681269763204586 5.021955998778956 1.8597829819586675 -2.730154688166833 -1.8318544381466515 -2.478240571527203
Ni 6.13749665788281 8.368831441918424 4.214952720647836 -0.44340036701050733 0.23077887732291225 0.5264176885440031
Ni 2.050425896274083 2.880779948491552 10.690751157798058 -1.1355976451879024 0.9970288116413475 1.5687102571191565
Ni 5.851662304991779 6.245182084249501 10.958195156731078 2.564684145133428 -0.8457864963921821 -1.5458464651471056
Ni 1.3092073268699462 8.680284618674392 7.949962263583203 0.21809022611165021 -0.12296326579881404 1.3479972486726786
Ni 5.3600888008277625 1.5020572714127884 4.225792609221249 -0.5945159268738213 -1.648182541613871 0.49452855314489025
Ni 4.3590865330672965 0.9125408162968964 10.169506192809596 1.3474056378352666 0.8377140037966928 0.334758660040688
Ni 5.340168264279065 4.097031029883077 5.098046440316101 0.13616382364948806 0.23323248106972733 -1.3373153434788
P 0.2988568638714057 4.505064074694187 11.696554256091513 -1.0897818724053683 -1.754841670936023 -1.0321251411238483
P 7.501734232277954 4.4933764837407795 1.014619954055255 -0.07234878607605605 -1.4649155938289933 -0.18776663542744437
P 4.594274658493565 7.04303618475557 9.560740416207791 -0.8040821746748603 0.4433959961351332 -1.066981072460769
P 4.025994884706828 2.0630146990600418 12.775082332984928 -1.4308176237040195 3.071928346072774 -0.9687908998415767
P 8.351257811183663 7.865739324019604 10.390248643569917 -0.7084535921352573 -0.8931428741889585 -1.3709566856823292
P 7.185014598875511 2.9674370987653673 4.5684211440472335 0.7987566486968889 0.19749260446595662 0.05502417875467942
P 8.905859817886775 8.933018211965654 4.841896690922072 -0.07972605237673366 1.7712563648486204 2.406339414511527
P 8.187209094789457 1.080224420415728 7.933653145700991 -0.5351188158624268 0.09152895854893268 -0.10064249081442668
Ni 1.4364659477248731 7.813675565443223 10.768160560402633 -1.8322244198915607 0.29346082973316556 -1.9486843373542182
Ni 1.2971348433630534 0.3801518037415369 5.953606260975255 -0.08613324145465812 0.945431913400662 -1.3284504368890022
Ni 8.430968120248222 5.639023250625819 6.797610856168908 0.21259629287661452 0.0024721156895763877 -2.4652140773605478
Ni 3.1008070623597863 6.648286626851344 3.2848955381180382 -0.5304008415614673 -0.692297551200685 -0.3584362061632859
Ni 4.486983512303615 4.994947806672169 7.472314359756765 -0.20954156521069076 0.7515038863575122 0.8409890750035387
Ni 1.491430481887281 4.486964737057104 7.4732615709432695 0.7437232139708289 0.41578646194798075 -1.596756107512779
Ni 0.04363367289271918 0.5358877797427771 9.655997568146196 0.2543019001455169 -0.5417149810227057 -0.46931168755963043
Ni 6.211602555863689 8.091399011841286 12.535914794060547 1.3703730452647174 -1.88877609103436 -0.17586242779069067
Ni 2.6178044582282687 4.277695839439957 12.467422694786606 2.1197138625326395 0.2682588765462412 -0.3942899826371016
Ni 0.35647621789053907 3.7969556525130748 1.9576104651444972 0.7100312210350223 0.07316485421944818 -0.38241534268670274
Ni 2.4874009835826656 6.721219071925254 7.615331045008791 0.005642800108074153 -1.1643703464452204 1.544002212849515
Ni 8.183951589519712 4.947230517663198 3.063837663216323 -1.0741932739384918 0.19328370859093164 1.37458939733891
Ni 7.216087631852037 0.15115950966406289 1.068848498554412 -0.7044465278583932 -1.839829485932328 -1.0823917505888843
Ni 8.855448281003405 2.617832621098036 10.563383640513363 0.20652977496756045 0.3242832144306609 0.8471175564987797
Ni 7.99944724205123 2.1378997697711477 13.089159350440879 0.06441950392665034 -0.37332700723218926 -0.9269094291164424
Ni 8.451536402801569 9.241026130986764 11.80998960170235 -0.16615497069493965 2.4220797080649192 2.111796664568092
Ni 3.705895706932314 5.60956488884928 5.526904988557764 -1.5545591624297548 2.0732522286359907 -0.7667844666656666
Ni 0.9935484948954018 5.126609222834041 9.670616913842375 3.0869176203927546 -3.621901453339214 2.8932916979710557
Ni 3.353878610088255 0.22291005297007452 7.859444922626625 1.231245511001215 0.4806127143947464 -0.5361621695252765
Ni 1.1302041266293332 4.627647659167751 4.727389278735428 0.650306808591196 1.7932282411340215 -0.6520582440646641
Ni 5.127501047043337 0.42081992644776506 13.126229197153176 -0.029494667025007266 0.8863803586541444 0.8820105117212229
Ni 6.377294106327651 1.9030871492751098 8.848801843738334 0.8601448219963832 -0.07868424137578062 1.6194486640142882
Ni 8.545741202173005 8.418229115490172 7.323567469269429 -0.7800554727429598 -0.433720420718582 -0.5371882967969458
Ni 4.458388811866605 8.927207273170346 2.4244175416351976 -0.03477134204291431 0.4730891523241918 0.3753340103598891
P 1.5688126603844161 2.147953914278055 1.3977570219921196 -1.506403942880767 -0.13660168251785507 3.3827837171333033
P 6.592599245698244 1.0129245492952668 11.166585372811484 0.1551917868152166 0.22926475467123095 0.07898428911470268
P 5.590705153728481 1.4721764665897406 1.536267648081387 -0.6414632421576372 -1.104013442623718 0.9029691162507609
P 6.207500164500927 6.267552790467951 0.9664295288341954 -0.47811000257755076 1.1669689604103322 -0.37612770990577804
P 2.3607713334858738 0.3486966944985002 9.903258177079358 -0.6919409391922148 -0.7357252833670168 -1.2634799455548884
P 0.8112605652776023 6.13930846917117 2.8050903584674285 -0.06298379992138829 -0.38641906452945707 0.23695569555758544
P 8.550425626177624 5.020134799867342 8.665912167469841 -2.9545806266885246 -0.5109568739042427 2.345752911177721
P 3.3573895811859056 4.403274075732105 3.832410828025386 0.5840294255202007 -0.7172994725616615 -0.6668914524227547
Ni 5.943520198549279 2.999852561867467 0.05995687220981473 -0.4043849049792584 0.8269904467316016 0.35607593346122546
Ni 7.631583837151468 0.9586171487607614 3.8432647980336823 0.3796856024603654 1.338710938274746 -0.8666299155000946
Ni 4.609360569065553 6.20265615090096 12.67017939815124 -0.86555699415089 0.08561619260892352 3.0175837098836222
Ni 2.7497099525947912 0.7040050920560241 0.44733714585827794 1.66060045566225 0.5469217220346257 -1.2339546824022618
Ni 6.188086559608039 4.406522193378594 8.951905171193895 1.8203726627592973 0.43096599790189655 1.5686544641805564
Ni 1.150772409182678 7.923482594665713 4.015615928435271 0.446946689600869 -1.0828584058126578 0.9959844295372331
Ni 3.5558439368124293 2.048492045883399 2.6718011284330085 1.2069087340280635 -0.9220155913592508 -0.8550041583357081
Ni 1.5126652856917842 0.9389031399236896 11.71662781089928 -0.37181108480829517 -1.1798257617683423 1.094020335966748
Ni 4.881151037565984 4.031364605209116 11.766832820071023 0.4597950063184468 -1.2202712713778985 0.8455342711720599
Ni 3.552342353338035 7.97981772182346 0.34034452608786075 2.650726626646493 -1.8289336649554306 -1.4773725886454234
Ni 1.085406388452901 5.8081788340711515 13.053284548169033 1.3125648760069974 0.7165659368297466 -0.2949096463645502
Ni 0.9583449076863447 0.8630502052549158 3.197236728442835 0.16054739470017512 0.5500535827953883 -0.39849142231295887
Ni 2.9302433354260913 6.045873454906705 11.022015974672957 -0.44798901482245423 1.907327371673986 -0.17912850013647216
Ni 8.048441247822982 1.9523346208747665 1.9078588781760069 0.8066000560007076 2.640748175277542 -0.6047661438469197
Ni 1.5481035634822349 8.056965209739202 12.972481519757503 -1.0634131526038524 1.0249219385071897 1.6195407095074625
Ni 9.533037539980079 2.60885805326554 4.8812195672157515 -2.7262849207987823 -0.9492602860078166 0.6034818778178574
Ni 1.101055556420234 2.805228356529288 13.149449483276271 -1.721641015814338 0.4698341357220037 -0.6965838372808648
Ni 8.394515979146151 8.472076522485146 2.921287542840107 0.2206243053874136 -1.8772886592200508 -3.142859682976013
Ni 8.10905713118535 6.994248706695444 4.876479756233923 -0.5680029681849573 -1.1911370730161035 -0.03487958548600444
Ni 3.8490851244522464 4.442749031522528 9.91554094334718 0.0055224724801259725 -0.8789596407100412 -2.7092421063838823
Ni 6.683264911102262 3.2357541466611717 6.776519683000218 1.326442148209722 -0.4397910523926942 0.19864882955758692
Ni 3.470041060254888 8.399763660546114 11.544042928678621 1.722976189685994 0.10038152384355616 0.3988045826780035
Ni 4.290049951644522 2.262032312081911 6.128278950607991 -1.2749714911342558 -1.0786556805852199 0.6928788776254519
Ni 6.735075203850739 6.688493817255715 8.102954237306788 1.4208281165914756 -0.8312415086984717 1.203039223770328
P 8.752757070208771 8.240465081519318 0.23066141349234606 0.16325373788774467 -0.9744951493152055 0.1632442248060479
P 6.1878518690266455 5.969533302590957 5.897767739087737 0.09139577540517807 0.7151970815066779 0.051520793587111265
P 4.77375662752022 3.010967507802273 7.984462717810405 -0.2240058202651368 -0.535862893117303 1.844078491016669
P 1.7816864053317698 2.3889342032531196 6.71323489834624 -0.40992177563708754 0.29511970549282723 -0.47918780902276187
P 4.975637465635093 9.229929960298469 6.252019090266663 0.5764017337716137 0.8643498612166662 -0.5160972804546015
P 0.9779368774210919 6.399064004657731 6.065241060445639 0.46656600649369323 0.25509020037476715 -0.03152069631610055
P 3.0036920997790677 5.719625383899675 0.49784443649885624 0.3357829875401443 0.421493539635087 -0.39340243782582573
P 3.150251674047814 0.4416238383448294 4.321558570340116 -0.25215477189552704 -0.8956854381051542 -0.6904530417927787
