# total energy = -340870.6406532102 ev
CRYSTAL
PRIMVEC
9.20237913857296 0.00000000000000 0.00000000000000
0.00000000000000 9.20237913857296 0.00000000000000
0.00000000000000 0.00000000000000 13.46861206004069
PRIMCOORD
 96 1
Ni 5.12230179185888 2.2936101326284324 4.580243941772584 1.5678268260729387 -0.06613957194155061 -0.2017755481120267
Ni 6.720819432650271 8.993558569813265 10.791914151710435 0.25910317818890216 0.785944327423569 0.26605055604101274
Ni 9.015257779384475 4.291253353369994 9.87596732571472 0.11876439722611806 -0.6684657388884101 0.15974829583764746
Ni 7.3991635947928245 0.7784200332565928 8.361300841705306 -0.9714360507739076 0.031157656549726985 -0.5077823328310029
Ni 7.904125735081621 6.8474073575279455 4.636569862868199 -2.3370777520012265 -3.741925434004046 0.3838441047134293
Ni 3.8263307639057658 4.580530135758023 4.354941177628021 -0.24639858613804017 0.576500464133007 -0.13099796317783244
Ni 4.107472643299329 3.574296009140588 6.58527575257552 0.08699327546210824 0.19482919870118057 0.019787467039572376
Ni 3.17252014405195 5.882022591082946 7.905832776377406 2.5427204963781436 -0.9897803576090504 1.1613241034197288
Ni 1.0898561441634822 4.303308469798443 0.02656266684787804 -0.43832372381854834 0.024002790672500596 -0.9604286439198106
Ni 7.497122918747671 6.536164496579071 10.72931128793097 0.08213671870075531 -0.3726307524961131 -2.629059683196021
Ni 2.984524744420805 1.7141363299570724 4.98877343277484 0.06013527472899966 0.829194653471772 0.19322328766664143
Ni 2.613503229793143 1.170073281496915 7.449717783809108 0.23785686721561614 -1.1995944597548371 0.4147662482135825
Ni 1.079255003609609 2.5480467083003466 6.245273616922682 -0.9677915120427848 -0.4858035145670665 0.1587954450060749
Ni 7.165239121807182 6.71171827986574 12.876060654848235 -1.1771510431496566 0.7608318486266574 1.5237187800101306
Ni 4.036467087297865 7.890000083388744 7.405042994705906 0.07151446310021878 1.7582596954786365 0.7307507129705609
Ni 7.61133364393354 2.2855856581814034 3.5561038261883726 -0.16266469815349405 -0.15647836683712407 -0.3066858130638718
Ni 4.533128681771042 4.234520687124656 9.594056127440682 1.161577871301748 0.09862006106775918 0.04762222986365346
Ni 8.846973875470688 5.996518590016359 0.6364245652978843 1.3670550366350778 -0.7225195833100202 1.170489314858765
Ni 6.154366996197428 3.104348920768014 7.992085754066121 0.28955995201686263 -0.4685421563834576 1.1016755385191608
Ni 2.630730083193187 8.917473300629736 3.6798132469295455 -0.7277497213607079 -0.5643939106774603 0.2333019008550821
Ni 6.103256983492382 8.890307877960435 13.197151901752628 1.3605488600854438 0.035399719655532576 1.6891623264603426
Ni 2.2741378987638527 4.715970749188498 10.052015276751163 0.8634697726045582 1.2058334986860135 2.772139774349368
Ni 6.212765293033261 2.2639416628839117 12.63462151920956 2.1431756931000057 0.8987900451724069 -0.36979765392269215
Ni 0.930958666781771 5.953147778010799 4.0942690699775435 0.31703681728089267 0.235149238476466 0.6039287355472889
P 1.257514286308464 5.579494383002575 8.089706430475495 -3.5567504705631783 -0.7917768749449461 0.08515416537084045
P 7.248621877500451 7.884082953721954 8.801953076918853 0.10665270156424857 0.11200702389762646 -0.570041852991857
P 5.536666511355243 2.0137473839093376 10.654749012464166 1.0468102539398487 0.2788777897126681 -1.7079444921638522
P 1.3817095926583558 3.413327996494449 4.141638315638189 0.3441763538101621 1.9174078958384395 -0.03628829290807299
P 8.253659694853992 6.9651609986107275 2.544584773338222 -0.5117965961967185 -0.7296942466815884 1.3292243389405494
P 2.9263104951640315 6.717782647595776 3.2787984185803207 0.4277428629789085 0.08923219209495599 -0.5940212466255899
P 8.249113719651204 3.2235013234516536 7.47160472191096 0.9622458996342074 -0.049136609625650855 -0.6030820712762776
P 0.032629795291600885 5.948988302724037 11.973245623618471 0.9781782545937476 -0.9952138699197957 -0.8439576707135595
Ni 2.73289489432956 1.4634175153821767 9.850781334758212 0.6380169354802495 0.9957648573272592 0.937051916867083
Ni 3.805330935134985 2.860265021418242 11.83896358969818 0.31605748408675893 1.2333227052452178 -2.3236997880324237
Ni 4.845282578236267 8.841590483783174 4.638441626747242 -0.6433015809179566 0.722469189688059 -0.35970273158053534
Ni 5.427066178024833 4.792580553972349 12.933436567382389 -1.7167785455157143 0.06564771990679662 0.23697009373528863
Ni 4.504076771416374 1.636983584814994 0.3949523010949778 -2.7887167048714425 0.1681339487981814 3.0242240980182755
Ni 1.8386077076755547 3.4630024380828237 8.417330446198633 0.4661908825424616 -1.5260320015243396 -2.1972243953152932
Ni 3.0902416738330425 2.938291992560857 2.6565491978216613 -0.7452576483374842 -1.24002557118669 0.2772068297681484
Ni 8.956822673032828 8.355244756116326 10.047543840817895 -1.6528128412970309 3.4115906140626664 0.7395174034195974
Ni 2.663481349886968 8.367226253513152 10.893911479549866 0.5738820526735535 -1.2330807644377408 0.6957541422907179
Ni 0.964611766612947 6.683420964585218 9.981520452781593 1.599615174228129 -1.8806989704531807 0.3124473981379973
Ni 5.438237866073794 6.411601095071059 3.9527005924022545 -0.15449913162356618 -0.6176039190415363 -0.5905708261831442
Ni 0.16481828800008136 8.433133691574646 7.533708816751171 -0.4011327165905479 1.1315116480439869 0.15118729364151381
Ni 9.105597533566224 8.46730212462719 4.512281612490882 2.464809899943594 2.3895051165630075 0.5064019075437085
Ni 0.4657416011910464 1.5275120847899266 8.608166620212575 -0.3211400408159889 0.5760016701197176 -0.5274849534662528
Ni 5.28372992345267 7.2445544260032175 11.687993961784489 -1.9998287214385173 -0.3850640931634594 -0.6165104288670415
Ni 1.8914017557290022 4.893871139108186 2.2893945228300563 -0.1354256599318829 1.166412830796546 -0.5897951243593842
Ni 4.697188693745395 8.901166685124993 9.58437154383053 -0.09346294234685194 0.005916108374118843 -0.6275646297986741
Ni 2.8726698282469063 7.225238632580839 0.5196675418557147 1.0815409725528147 1.4771987820717205 0.7009588264201089
Ni 4.57463141084914 8.256254765718744 2.337962838468279 0.02248558269702579 -1.690267129488747 -1.3672920923465486
Ni 4.560754223387994 0.6462140560281017 11.90912160659807 -2.216360601924112 -2.4387620538166064 -2.010672091910924
Ni 8.111280487692945 1.5264170016945178 5.914767416111459 0.6949434734639645 -0.3080646956892694 0.6608143929907394
Ni 8.235034079853092 1.887012220968414 10.338695147798653 -1.1998711104549915 0.42068724168370775 1.0902361863339676
Ni 2.0681150387637506 2.1742276704709678 13.237301881124631 -1.1611076165335488 0.888299172943412 -0.09181280833793865
Ni 5.61433458971869 6.539468150623203 8.389934964055508 1.6913174251301324 -1.1999083914508302 0.12108198961570116
P 7.471199817237026 3.7047673379364365 0.7885334477259565 0.2854356454358439 -0.8404375733754429 -0.14381414110589424
P 1.5992446287286792 8.967092527944393 9.103084363874155 0.7172408514095842 -0.4636909989387433 -0.20831206367896382
P 3.292813641725763 3.859532947168244 0.12612504521633883 0.7090904543883078 1.507148020135643 2.0113477778217104
P 4.540159299291146 5.931522187471215 6.24508588839204 0.8136309947055601 -1.2507154468003685 -0.8129144282545097
P 1.5818429301285277 0.2571512774630535 5.806991914527433 -0.7834161616850766 -1.3601140865408705 -1.1197102845336844
P 6.856996236396989 4.663765653388045 9.792003899909515 -0.9036576576773534 -0.304850559627346 -0.3330766443525748
P 6.661132802761014 0.22081476392917812 5.4034455117282345 0.03485747399881739 -0.23252285659721245 -0.21212141012272498
P 4.12114737842351 2.4061184177079946 8.400939168807524 -0.07746245315353756 -0.19174438912826977 -0.23402335240213892
Ni 5.2655092131257 3.2687034088688636 2.259965314938314 1.3461044025253397 1.4417301568514653 0.22848468197209681
Ni 0.7820163229514311 1.365964322269747 3.9467880639249424 -0.20310506555672764 0.5322646342430832 -0.2762832895126145
Ni 3.0557787646540007 7.342302095242144 5.516662379987179 -1.6996542271306017 -0.9508214598473496 -1.500665240624777
Ni 0.5073685623850102 6.65348562585106 6.275295458018999 0.6023225674024336 -0.4664500497411192 -0.7488566785426523
Ni 6.594286722046314 5.5228537405467675 1.5476238839917411 -0.5699747471993475 0.4087832911572702 0.8710113323972419
Ni 0.9415874144725033 0.7992192501661975 11.604663659651251 1.8413034993746935 -0.30278724934041407 -1.5816647603972953
Ni 2.078016798517195 0.9844060837408825 1.7385953329762915 -0.09345702880958098 -1.585541469743882 -0.26857923600013744
Ni 8.771008237213548 2.369575770885572 12.757711619847194 -0.08877145040845358 1.6685968436041652 1.2273312635484734
Ni 8.421004956114572 3.737021676166754 5.156282496380783 0.5473330985404317 1.9195005167014103 0.26286033123848923
Ni 8.326110024351081 5.810501701860113 7.966535348903074 -1.4374909219591372 0.3119146655629789 1.113242931641786
Ni 6.652059257113343 4.836301056378124 6.4712776023434655 -0.8262882784582544 0.48478330083266835 -0.9739557318719678
Ni 0.632529198287073 2.982711875767061 1.9278698632819058 -0.9958954693678526 -1.471459308484782 0.12153707487524876
Ni 0.8122737449489447 7.7620502064260215 12.830280660032775 0.07786020281258849 0.7517355427523441 -0.5323937036217798
Ni 1.0907487749219247 7.574183640100219 2.0476333039280252 0.7122210295974896 0.005732017387770774 0.8368616830987264
Ni 1.947536267342394 4.656716631110035 6.176637673501619 0.20489198225382133 0.6930879083124644 -1.0829723056827025
Ni 7.4820034101278665 4.429997620844603 12.086906966780845 1.5399750939679928 -0.3862840816134896 -0.9953354830993245
Ni 7.136932604147708 9.056097937177956 2.9268644783770026 -0.7832284711543027 -0.5547450747337865 1.76664072045348
Ni 2.68250266718285 5.650058224814295 12.429872268456554 0.38563487806526486 0.012825948120074685 -1.5347578114331117
Ni 6.559750193835648 1.6401768103116903 1.4707186828434988 2.204715561486016 -1.1591134689216553 -0.8505774900229223
Ni 4.1414754335307205 5.272355783066744 1.5858882959162732 -0.6331727200140708 0.5858219986442491 0.7759787315704249
Ni 8.493492095127472 4.762912084227828 2.7743451698476265 -0.37892584147620545 -0.5332190277365527 0.3253265680935107
Ni 8.283972331125225 8.362256968878524 1.017272380171576 -0.47425874715226063 1.5180662097100437 -2.491439072495348
Ni 6.170784040249607 7.403369081974353 6.030139481521201 0.35167600462131693 0.014156494006040136 1.4924328254126553
Ni 5.083246895582284 0.6484529948273702 7.179712623424483 0.8998547389914954 1.3993318943909125 -0.5982980196240728
P 5.145399763030948 6.894339490188323 0.5349554540103587 0.20926105785579446 0.8678864136150151 -0.8825617562390026
P 6.269718816373471 4.248821184017641 4.024488350614725 0.6564972536726241 -0.029993718148612857 0.34444297720798744
P 8.277558272994973 0.4030605171904795 12.25413351735293 -2.695286929755371 -1.9661107603607815 0.7408170960676274
P 1.311780714994394 2.911172581786322 11.105812819225152 -0.1693526516966309 0.5147777903122295 -0.368127722419437
P 4.105668977024538 6.637142200830505 9.852963218807972 -1.4995164717323142 0.054194483764532474 1.4082196837988457
P 2.484412257840247 0.15171410037098784 13.039973428759339 1.2412797553087653 -1.9736080971790912 0.3668452561625875
P 4.699047574293904 1.0871138352354839 2.66702794673546 -0.2411008280742106 1.4124013259803612 0.570867691327262
P 9.034122656238155 0.9167400710614673 2.0247497481855623 -0.4444750881319248 -0.04342644661475102 0.5518240444322496
