# total energy = -381172.43799273355 ev
CRYSTAL
PRIMVEC
9.18332067691851 0.00000000000000 0.00000000000000
0.00000000000000 9.18332067691851 0.00000000000000
0.00000000000000 0.00000000000000 13.44071807494954
PRIMCOORD
 96 1
Ni 1.8978066759647771 7.73957406541073 10.19252624879397 -1.258731889346942 -0.5858112000109718 0.31053064073125874
Ni 1.083264502205601 9.297010145328132 3.531817875004266 -0.27698751466849075 0.13967620767812072 0.35713368530177847
Ni 1.873103543454324 0.9557449118561014 1.4332243216609375 -1.225277209232922 0.6943364360075848 -1.0461425384488627
Ni 2.8257628595767774 4.279528432835998 12.503335322047173 0.4262940463475239 -0.7539963137620628 0.0013907096999395405
Ni 2.705378709361338 1.910902091191508 12.86030752514005 0.43673452495455756 -0.8462480094096329 0.6492197461746045
Ni 3.4381893294613937 4.719804374080854 9.945821849904073 0.39957102853038284 1.1537033536496777 0.38606348096225124
Ni 5.042827677447097 0.8566265772371143 10.955824575073004 -0.4358667776376235 0.10794570934405925 -0.5187622288812743
Ni 8.441960344244194 3.5708148460844296 6.381357270039339 0.30515754934480344 1.19176622195967 -0.2867420229520932
Ni -0.015212170633295849 6.01113537193305 2.975183751310731 -0.01720145147995102 0.0792334290110313 1.3153632646877411
Ni 8.60301742155584 2.5357535938964375 10.361812499727408 0.5629954876680369 0.481849415015325 -0.5478462907314242
Ni 9.152887111269004 1.796578932595734 4.651375778694835 -0.8699772347057727 -0.14049227582151289 0.14637804517832853
Ni 3.0495328335106864 1.2930207288491933 8.4680290365332 0.7413099765436459 -1.2116575615669585 0.3040319203807926
Ni 8.230266436946437 6.469465721547998 10.065793669022963 -0.30662899168400737 -0.3321667309437957 0.6492017484524755
Ni 3.40892208659492 9.59601906523161 2.7881966498516806 0.36734944949251574 -1.452130269138867 1.7030447408693896
Ni 5.309162342528198 5.327841216701531 12.358014782977131 -0.8498817495074782 0.2248712535892256 -1.2401615825439223
Ni 8.848606965320544 5.621018728001241 0.9231854485416733 -0.7938692386976006 0.1668568818579707 -2.8567925746037575
Ni 4.914472404919734 2.8474814128805774 13.02913644670582 0.5585875884083283 -0.10183651112252784 -0.10576207142917915
Ni 1.391282259652855 3.732983105193015 0.9521771917890713 -1.445184433948653 0.820237187168168 -0.7357149989543716
Ni 8.814536845761516 1.954678980662635 1.1060262807336345 1.1578816533970833 1.0515891633857308 1.7968936058007505
Ni 4.192507286490625 5.063572798763496 7.556546811809861 0.9260691926033341 0.21029901220200556 0.15262479741898877
Ni 6.468134140055799 4.1778598900764345 7.632889592919861 -1.0372370084291167 3.532334760722975 -2.457314105787181
Ni 7.035277655885008 5.256422532116477 3.8720690878833754 -1.2119612088503062 0.2412941750319393 0.844730544323842
Ni 4.2396085380319315 7.391195613768888 10.19241880394253 -0.2587205980385028 -1.0529004259979866 -1.4408109874713055
Ni 7.939678622066038 4.016123247037734 2.17548733369148 -0.300127957340696 -2.0075895963308588 -0.3762758054478681
P 5.70279619826354 3.504621470941178 1.8367954486563391 -0.12195822157306739 -0.09115614859054624 0.3427000263749517
Ni 5.326913701317309 1.4123212472296016 2.9015013781889385 1.2676811281204297 0.4850856625644356 0.5041768748679317
P 3.854735570183197 7.581226067686662 4.367681882615773 -1.0572245072946374 -0.6489472092395081 -0.7558796468277047
Ni 2.5379116742458643 9.091671095910387 5.510318389396312 0.10681930904909992 -0.49919124872788223 -0.8637165985080415
P 3.8036763074478364 2.807028885479631 10.916820257336333 1.323512633267753 -1.237977944629042 0.4226284245704786
P 2.937064705683355 2.0312127748418605 4.867838584398792 0.8316569989693355 -0.0560356507383293 -1.1062950395690432
P 2.888402289633953 6.449124666339577 8.492692680764918 -1.1212097518973465 1.1689268554676513 0.03579001311541578
Ni 4.7433228582292815 2.997546055391104 8.842608420281204 -0.03578692779162224 -0.2963924015576637 0.8845715875801798
Ni 2.3197159759379202 0.903089587994229 10.728837683920357 0.3848697177644662 -1.098096820028967 0.6706979706530385
Ni 7.944472315437955 0.42442920315562177 2.7037348949675204 -0.4574043945990832 0.5945642636132534 0.20862985202969878
Ni 1.3801245250802896 6.4717982849895055 12.944486433748624 4.190874498746925 2.2321574597470524 1.8618800379744647
Ni 8.550470460877472 5.591099469369622 7.83839853376937 -0.3641201439219407 -0.1852775504570035 -0.07337157091361557
Ni 6.01891364451162 5.350505652030823 9.596094368460825 -0.7366840477358603 1.7460305004022965 0.37382580124547876
Ni 0.4763002714351921 4.720924739198428 12.28612040238314 -2.4411691205962023 -2.633348026158729 -1.7699211909769645
Ni 3.9421791492778198 5.5221510980356125 0.7022090407451919 -2.819866133891053 0.28016796927900134 -0.05312593329070205
Ni 1.062262247911398 9.079310346334525 13.108987256298718 0.7625853409826545 -0.7707681339037629 -2.3103830163188595
Ni 3.3645207313205554 2.8734059270356 6.963702854849144 1.130640558292943 0.8084036848683497 -0.9328450778745869
Ni 8.492652274154121 7.968486698900718 8.34280160301441 0.9074608334735274 0.7086667365873279 -1.1364731058143203
Ni 4.759999768503996 0.18101059638923503 4.983508936131846 1.2309374928424928 1.1386415742205485 0.20809814789594486
Ni 1.8843622945538836 3.877840804903011 5.4655607212812765 -0.4786159956796918 -0.027480721918772027 -0.4195706115807612
Ni 5.679452197207194 2.0822720375772215 6.406061320881856 -0.011224665071225829 0.7797430837088635 0.33212816439637644
Ni 1.8175444536073937 8.391534730632708 7.8246079411705045 -0.15749549524772877 0.6524225693826183 0.9946410281354611
Ni 8.58387019803008 7.100506782361495 12.414223133593016 -1.7786367164730916 1.324724394187667 -0.8378271323357893
Ni 3.2982171563296734 2.921682643618296 1.7020384833137212 2.8691552099341684 -0.02828547720825451 -0.21675762334315574
Ni 7.0594022391954026 2.5691808810109547 8.643053944531983 1.3661330390414408 -3.5781906427148247 1.2304880640099
Ni 7.373058555513072 0.3082464221310867 9.7133782296296 -0.04775746988993711 0.17406805489442925 0.08700767363981145
Ni 0.5030779160772854 7.985439108794509 1.679659649256203 1.6517286070939166 -0.16400347156957562 -0.29800859700484805
Ni 6.253868902980002 7.66138727351705 11.224275995560673 0.935268599714415 0.0005093355362507356 0.4001428418734528
Ni 0.33238202542624407 8.443319475698301 5.952988422330935 -0.7858957335738207 1.5872887914522922 -0.2066673289866892
Ni 6.512507945368256 -0.1493336501879125 7.122666135055816 -0.6672902305230701 0.9110984302261149 1.3865848791378894
Ni 3.4185829399038408 8.422693737550167 12.16403825618213 0.2757821815064799 0.11618429520376763 0.8558204835894164
Ni 7.345554510208683 1.2566364124899307 11.932091453554055 -1.241773150005416 -0.09392342692303825 -0.07118510478525805
P 3.1670977042909176 6.167968121752203 11.767080038376609 0.6459189639361457 1.6676074831077021 -0.37971208482292673
Ni 7.5497915611501245 3.4856119972249555 13.087616750847017 -0.2537545122824791 0.975377809030475 -0.04747670542472469
P 7.627601836897735 7.409130638970716 6.303052013309457 0.14556403391746542 -0.8661776584540245 0.31040902755172994
Ni 6.121592352541128 6.734468805136902 7.7401333296374535 0.22338592729295076 -0.013817879719698781 -0.1254369241502872
P 5.9138931897199685 4.178291506146319 5.566702141436342 0.026695249902999187 0.6129149982062994 -0.5159335011832277
P 5.387918500301302 8.80956866929752 9.042633082046978 0.2852207012115604 0.21497867706586202 0.10047305511609793
P 0.2721100554289924 3.1365631631766964 8.345100188169564 -0.14003076280406207 0.3770337666598152 0.3207685164091831
Ni 1.705866091354746 3.0948525208486366 10.82721033290371 -0.9738148354187293 0.5357153117958451 -0.7475001645147579
Ni 2.1917555861978992 4.652747766797831 3.304615175816674 0.5470217379475999 -0.05613926619572912 0.29277485940973447
Ni 5.702649265133367 6.878151039805507 5.092257819101657 0.5585544211775477 -0.31260963474747455 1.4681875797120456
Ni 5.596223762284429 7.861106130705652 0.2174013410729425 0.022974606518302368 0.20462535885599595 0.10653648770135846
Ni 1.724150082740736 4.752956161576295 7.585901296222375 -0.3429568795807642 -0.24149163575472601 0.16651235403435838
Ni 0.7981673947333808 0.9994758847240489 9.019608660548759 -1.5400098038606704 -0.16338049327359605 -0.3732547592333572
Ni 6.93013781792509 2.7627101800909886 4.050293464791692 0.394288697085521 0.3453780874277471 0.4847393349686104
Ni 1.4680823701305208 2.5687308982997976 3.028932808660334 -0.8062411299993922 -1.2880825745949172 1.6251670545553045
Ni 8.040254349669935 9.175597463201477 13.72485471642559 -1.0191192157824835 -1.989871096005173 0.05361315733976573
Ni 5.798761898908238 7.785775351529724 2.869673825529188 -0.4602904578976266 0.8065925998015399 -0.8127066831190778
Ni 4.400518682213404 5.820737585189843 2.8909240294805594 -0.3091479014511192 0.819179692437931 1.0163275119699593
Ni 7.822756583730317 7.719793192761096 4.1092035483386455 0.4832766343801548 -0.058929427346356575 0.3259783427448967
Ni 8.375950635513659 1.4769075412615784 7.016095535740832 -0.3068305661718522 -2.299680542299691 0.749453945807019
Ni 4.153120024283437 8.286789775460132 7.200945678487918 0.059583258880271585 -0.2942272755855449 0.7949393318333277
Ni 3.6383949026436957 5.414843996405633 5.277565291216408 1.086205982128652 -0.055177930723724324 -0.3705877539241553
Ni 1.4712689823911627 1.691677860972348 6.407297395839442 -1.0132108207178485 -0.27385462546646383 2.074762237522614
Ni 2.11352287770104 6.849333779650191 6.231305484177702 0.5586757772467604 -1.2483623731871598 1.2778439275860445
Ni 6.079633760555901 5.545366532603058 1.1574556312906201 2.568756258320273 0.3118457599982565 0.7958117071359521
Ni 9.127008513717161 4.144855035711167 4.290895547119061 -0.18491759601442345 -0.8893600101077586 -1.0469354666638033
Ni 6.544475084501672 1.6183674123363079 1.0005365582574903 -1.047804499532318 0.05030414757119078 -0.8183391988145069
Ni 7.098174218919988 0.6474663481027892 5.128897431774596 0.6251701614245685 -0.48431767405015946 -1.8655325471253872
Ni 1.0431425743475453 5.1197655377343 9.815809906334003 -0.6210332564380595 0.481725487842951 -0.04523624612998016
Ni 0.24913981552252523 2.1032008253063377 12.45967965240844 1.5012519663661825 -0.0738752500229115 -0.2644940101871703
Ni 4.586444191806949 3.665008165846407 3.883789760010919 -0.5264973927420029 -1.1461157711104069 -0.055247864729711306
Ni 9.19369778817475 6.203709605666954 5.343464800099312 -0.8441546172157139 -1.707810280578833 1.543663598563174
P 4.426902362400219 0.5451797678644318 0.633064146349576 -0.5224692454192164 0.2592322475675987 0.00456062278748892
Ni 6.544530184425487 3.5929741987787507 10.693220174834186 -0.34844927015390315 -1.7962140632352228 1.9317531088165183
P 7.708506891699629 7.376731883767414 1.808851522293492 -2.1831681743325433 -0.05536330726165303 -0.49697624335443447
Ni 2.993799260571675 7.8592143666546646 1.0682947712370918 0.5171151801961547 0.290088570826823 -0.07499316567743858
P 2.0777354771831082 6.160235765776812 1.9897638571519234 -0.43469435459607714 0.9006291552636747 -1.7655238332402174
P 9.099651401542946 -0.07257670131723538 11.189451925377442 -0.05143980383753076 0.09963127594109293 -0.3668411423975295
P 7.2910974188380555 5.39149081202865 11.854793607097925 1.6329844937171942 0.24350455241969673 -0.8924561325345792
Ni 1.701081581303465 7.025910668836435 4.057174526944139 1.5421016533926926 1.207721716847662 -1.1311576071386775
