# total energy = -340866.9791474936 ev
CRYSTAL
PRIMVEC
9.29039965446972 0.00000000000000 0.00000000000000
0.00000000000000 9.29039965446972 0.00000000000000
0.00000000000000 0.00000000000000 13.59743898230401
PRIMCOORD
 96 1
Ni 7.95711581026164 2.474256394779753 4.380496826287425 0.3102779012905043 -0.2716810148539128 -0.8945762642013755
Ni 4.877459813082449 1.9173991305200406 5.587527844990707 0.4904960349467294 -0.16317737612385444 0.8700075737230758
Ni 9.01296972979844 5.881287494613037 7.073455731965901 1.1051321296091934 0.5342754940255251 -2.1799519813880908
Ni 1.3661439772456403 3.8326521787223244 1.180491134040363 -1.496928913510796 -0.7958122213565842 -0.13595505007279168
Ni 1.234712693482445 5.478093440464532 8.954892654504112 -1.0221402619969944 0.8063390890298372 -1.2712158807465654
Ni 3.4809826809992583 5.999191956494617 9.186729003379511 0.38698419300430775 1.277221463510697 1.067093429668917
Ni 8.622800815950775 1.9107750755738924 1.855642127926737 1.8081306121671508 1.8088975722401621 0.44372561156041
Ni 5.16777551155676 2.8710029115753453 3.3232140432853825 0.789331241617931 -1.8161714801937558 0.056156492586909745
Ni 8.270908348636254 5.957292254100327 2.1722041344352183 0.7452288519820779 0.6763996490235061 -1.1917965609769734
Ni 1.9668054758266547 8.020978017414265 10.087355209505061 0.330577789190121 0.322687844919083 -2.9200602243141516
Ni 3.960423045025797 3.9608782746083517 11.2599169874493 0.037370213118342085 -0.26874764325720163 0.6241566325583896
Ni 8.242572629722156 8.998922645536762 2.252687795590865 -0.390129937722141 -1.4061895407426945 -0.20656988417687647
Ni 5.6113084809593685 0.36361323550535 0.7222561072011778 0.08535753963089815 0.37782129555811705 0.7784508472600012
Ni 2.0255300919761674 7.043107712488919 7.107367548746308 0.9199391684461964 -1.0109464501637042 1.1222461635816607
Ni 7.970521856947883 0.9383768160388434 13.438688505392836 -0.5837324631050721 -1.0889586051731246 -0.5687943537380011
Ni 0.9642691598465781 8.614625264264085 5.935485828056009 0.1514947975796036 0.32160335360565256 1.1984073814252716
Ni 9.007785686797106 1.487894664579822 6.620538529882923 -3.7417367150320073 -0.8267631612121439 0.8867156305063761
Ni 4.5802506380723145 8.736431693996131 10.352682520056995 -0.6975323172370633 -0.7160784556703668 0.15911888978376468
Ni 6.5810403957966 6.2369054121847896 5.378942579304263 0.6910068574137196 0.39071717768417874 1.1396885274278243
Ni 5.503289004298969 4.035600958944775 7.285209023930938 -0.7816361869665184 -0.023636922692649616 -0.5192630797770929
Ni 3.7258404540156413 2.3621305614767203 1.6595403722418907 -0.490457211288994 -0.9413394884988432 -1.742574423532896
Ni 4.032665192657281 6.006680018607653 5.58994799409796 -1.1637378550675441 0.5604768350112411 2.855043196012818
Ni 8.163539199950932 4.539633010828893 0.1602705423379961 -1.4961030751753912 -0.13071976981578132 3.050925261458546
Ni 3.3033874014051934 9.252875719804589 6.484496420776427 -0.7590171640154219 -0.17528727201351102 -1.5371823617142042
P 5.5903772105615115 4.263568785408426 5.123488176453972 1.942299773984113 -1.2073396509178949 0.6128085545354219
P 4.631542934506654 8.044919377296768 13.094306397150497 -0.5142813102917853 -0.40983332968833935 -0.7763430568883791
P 4.423605209675395 2.657909014941684 12.987743655154272 0.8339144275449445 0.8984977107429687 0.9526860238599141
P 8.710316380596941 7.684526194308016 0.6075122392784755 0.2997294363506967 -0.3747843085040061 -1.0008384151954248
P 0.7474145094370394 0.27428975908846903 8.012698413251563 0.7591362060917893 -0.7319730154134362 0.9926399385450324
P 9.279028194802354 2.7214181869078393 13.278402169375447 -1.6952987783753835 -0.32454778094595715 0.9643732303898552
P 2.224595485147439 5.35458686759764 11.624899627862169 -0.4538105066002378 0.1965778059611711 -1.3148680702188775
P 5.990236011237833 5.877264751567199 1.4087358144134048 0.03677783094998182 -1.4724054744481352 2.3334689516040457
Ni 3.623005020356575 4.014641817347986 4.540184860567744 -3.029449093862641 -1.6816369646175748 3.3244196753721136
Ni -0.1876697889679823 4.461844494609961 11.891748705875784 2.519581339257519 -0.8958546166931668 -2.6895549123676004
Ni 3.2317119681519912 9.114355861113047 0.9257827502814823 -1.2520470211275985 -1.7247685056997262 2.6765749551681646
Ni 6.886982546472062 4.326808535784907 3.0907793926729115 -0.012457766147378545 0.22280485797850014 -0.9092276955659631
Ni 1.6735447206652059 2.5413052090102592 12.172277897365142 1.5772198372520643 0.556329645612087 -0.9320084409059045
Ni 7.935599244686213 8.150495478850804 6.347067255003087 -0.5705943830612173 0.14350740849875285 1.550500418979349
Ni 5.292833581164195 6.79216472770574 7.618278212526819 -0.4379213461738071 -0.017693303514705012 0.15555405525064178
Ni 2.183225335532856 2.096806038044679 7.783418782358183 -0.20516066253417573 -0.13082827036918757 -0.2932356010962369
Ni 4.599333118941022 0.6027109607424737 8.287516796079773 1.1931813571396421 2.456900158178214 -0.686017117508612
Ni 4.964789569735735 6.276055156284464 11.28765533366629 -0.8926695340969658 -0.16029465525942072 1.1707541384843774
Ni 7.999944552620326 3.4110817140780534 10.255949949924052 -0.515212563856803 -2.2932193600553794 0.025974826797206876
Ni 9.026189968491805 8.244644388842762 12.042748358409066 -0.568788183090414 0.8530174669229825 1.1721641314580264
Ni 1.0793957922346118 5.557888683006561 3.05466482213692 1.8140395214524176 -0.8848094146225988 1.5062347642927543
Ni 5.836219765940155 4.6272321890718535 13.153332951288439 -1.4295492985145575 0.04279061280296501 -0.31061265892210377
Ni 5.318075596996851 2.1421803499058116 10.110538472776614 0.21709520918823258 -0.9256994679687411 1.4732418543065016
Ni 4.611819416062513 8.46026527417958 2.655688609426776 0.22761153533852413 -0.4847761017438167 0.8610174544093235
Ni 0.8440318786143984 5.875230154045171 13.294773711628045 0.2888480135515026 2.164004199809583 1.408002682692033
Ni 1.0987105330944185 0.7457283019016594 0.07326873679214235 -0.695226551922022 -0.5177453575809857 0.4943115520380777
Ni 6.922555486708809 2.152864309496373 8.309313002684483 0.3970282075038711 1.157495216591942 -0.35789601738909976
Ni 3.06037841791796 4.521925509107493 7.475042546976001 -0.6659352591570725 -0.3202347553929001 -1.1271068341080717
Ni 1.9023579734964586 3.6510713176809984 10.014581651013941 0.58204042011463 -1.068083047275696 0.2212747944872189
Ni 6.755681328303883 7.4829059412346535 10.666714750742424 1.7110403574803565 -1.010834350065872 -1.2520645046290952
Ni 7.833627818194035 4.824718214303651 8.635203499475471 -0.9286436381987297 -0.016282282099791313 -0.09200409841313832
Ni 9.449265477878397 1.1991025916471212 10.154213570542867 -0.8727810227031549 0.40100339010153524 -1.1989311151392255
P 0.3009281219876143 3.4866962767802976 8.505293054133993 -0.14471325588139594 -0.14752629985015883 0.4482427827044732
P 7.276343195550701 1.1125810997628605 10.715665866466484 0.8397734574288829 0.170308587851997 -0.9022466362624397
P 1.4558334954084935 0.7987959937079608 2.2098553370723217 1.0564688600755352 -0.10905668302005088 0.5820288501504041
P 5.0035119554517875 7.722375282457536 4.722690116373646 -0.3228691076919536 1.128452549502689 -0.23283781673447
P 9.07213099473122 3.8273009085274 2.8228015311025536 -0.5433771992164771 0.46738644551245956 0.5323435671101349
P 1.4158011633426415 1.7220127356077795 5.606469111784826 3.5267076443441843 -0.4644471603784775 -2.3392613899161065
P 3.5558911733285608 8.134627476258908 8.40055215950795 -0.617523186402272 -1.5096970118097417 0.5332735351235719
P 8.770285910298744 7.6846748407023195 4.426551195402496 -0.4588321281845453 -0.7077534807444391 -1.2603388288227455
Ni 3.206850858704737 0.6382839009792216 3.8972028044885687 -0.8235153436988075 1.0355722191321843 0.163082502417203
Ni 6.6841917030435605 6.8882646216229295 13.360013685047871 0.7298778234473042 1.639992292493595 -1.1937043195226473
Ni 9.479737988710609 6.5450215163769405 10.656041010591471 -0.28084879739610985 -2.2290842201383674 2.249064519915036
Ni 6.139690670310324 -0.1308078979470849 12.040586482411916 0.6939356010247404 1.0515724512151823 0.6273198607777196
Ni 1.8004887414003652 2.765138807632346 3.262161252985092 -0.5497468501882468 -0.8693575988439028 0.9428800935130859
Ni 6.8875399704507005 0.42001153558401344 4.821325360353675 -0.6001134755662568 -0.974046234703245 -1.2160842298797443
Ni 2.584709956146871 7.577398596013437 4.378225323574475 0.5589781389785277 -0.6723691877078742 0.05078648652424801
Ni 7.603114422227937 3.624900261883944 6.450992452540391 -1.150505158427354 -0.4492514264746456 0.6939199172954565
Ni 6.873920244572645 9.166205581526023 8.8251187780374 0.7325571700516803 -2.065978577792713 1.3863228837257544
Ni 8.483742114079885 4.782576961518618 4.814118797349849 1.5797821986626017 1.8681900393528923 -1.3853139828452656
Ni 2.61946534121495 1.2071945297370161 10.044822830895017 1.1278545109073737 0.21188255463904154 -0.14173771819283976
Ni 5.0283637744993985 5.740101291223677 3.619285144339131 0.04299990060029368 0.6952556053877446 -2.9283474040236084
Ni 2.6922834936243603 7.539651702260001 12.049587950626954 0.757787919594011 -0.5165032576437686 2.3273034462232824
Ni 0.9826176991434121 7.83871895719893 2.5941192729062807 0.16023012057007244 0.23868167710975668 -0.883096288586234
Ni 0.5946050870531129 3.5958956341954806 6.3336732858363805 1.833786622172358 1.3240160552667326 0.04153282913646396
Ni 3.413933866768751 4.506735705689607 2.5470178757513344 -0.9887457456969488 1.1944648518377559 -3.523518705093241
Ni 5.478121311663464 4.696445666419404 9.47571524566477 0.8950573176028521 0.1475628095150491 0.9469118403802984
Ni 0.3326734175710481 0.3942473992913654 4.1209490733540015 -0.12591772044144767 2.049092343560335 -1.129366576676526
Ni 6.765826444715095 2.65506615265063 12.14782928166208 -0.554196144208852 0.15510565485931352 0.18205312998243484
Ni 3.3571323633455394 0.8106328918943386 12.658182521463953 1.1235623112899231 0.47421143885409295 -2.7167325012236563
Ni 6.48470824188831 2.6815809532345107 0.8742052385780732 -0.9808390892553623 -0.15999126508638895 1.235460063303195
Ni 2.9708375461494096 4.8659861695221505 -0.007470410353713519 1.9754688045369135 0.1192873596091236 0.05117626576349896
Ni 9.33740906616504 7.679342151306683 8.844549648892757 -1.3198135871496108 1.2278773658599305 -2.390425314384432
Ni 6.683355567075603 7.3309335838586485 3.0749931455978836 0.21798249688919236 0.9666160036774448 0.6779145430061357
P 7.199911077679788 5.28865290132441 11.401710782975373 -1.2699822654497805 0.47866047576438214 -0.6453826318167014
P 4.0639831298570925 3.0629704394186263 8.754792310812503 -1.0865109149635803 0.09268801185404038 -0.24424862967457292
P 6.446329600959084 0.5822525716864949 6.900400670677843 -0.653619417904197 1.1315299028764318 -0.9027765406239806
P 7.342407227418947 6.787956176667023 8.140759140023926 -0.08507497539347285 1.7292010875497834 0.24491480250366204
P 1.5950965860715525 5.487235193714195 5.610466770751625 0.822168856973242 0.21786242637156028 -0.6964853640297876
P 1.44170279755002 0.22303462425270545 11.567150503675274 0.6999144443159946 0.03743243381484521 0.929137804226329
P 2.744319022030217 6.581709304570965 1.8422760299589624 0.042660257872687825 -0.21552992158364168 -0.05100451607232507
P 6.689329294046674 1.071861278123355 2.644906171599988 -1.7487026479178207 1.3574751062561266 -0.10184936663833427
