# total energy = -381166.9713785069 ev
CRYSTAL
PRIMVEC
9.21230286872775 0.00000000000000 0.00000000000000

0.00000000000000 9.21230286872775 0.00000000000000

0.00000000000000 0.00000000000000 13.48313644223269

PRIMCOORD
 96 1
Ni 0.7832170709508893 7.094495577756636 4.166288730038265 0.5268935997391572 1.9612215505892805 -2.8213725432332506
Ni 6.078010107415779 3.784616584161422 10.303758723440703 0.44035180999217066 -0.705116043121592 0.3621231680965699
Ni 0.604867813589534 2.1121230447343557 3.856985669799963 1.1066580793354168 -0.3832105848944884 0.26031108245407425
Ni 7.4189252388858185 5.738831549802859 9.384046649591026 -1.3833853983639854 1.2940097387126295 -0.9702831681163872
Ni 3.291113533172119 7.034505063139456 4.094140739662441 0.7843330170723911 -0.41009995308616465 -0.7050455948949729
Ni 4.042266263647493 3.389344315936706 9.512797790913156 -1.7723560256707023 1.0276740473310302 -0.4992580974100756
Ni 0.6202956567758656 4.116204204421063 8.068146604636881 -0.6080268168760625 -0.3246082018702474 -0.5023683609042833
Ni 8.384300854328622 3.979935824166559 10.20906638610985 0.9143429053053415 -2.19586248197076 -0.5661731140650701
Ni 1.8199917165670645 6.657629763233308 12.863734174794894 -4.204517800561971 -1.3093358275467386 0.34357702966326636
Ni 3.7689925189294287 2.2059411345472184 0.8751365051951708 0.4369597535914862 0.36313721118338105 -0.8285881302360245
Ni 1.3729370953535331 1.7439257338898446 1.4531854634171473 0.5675743652879709 0.5689265084404912 -0.5441919818082886
Ni 8.72203308043127 3.0493919249042767 0.9759513388427618 -0.4956971195316947 0.9290190192602774 -2.2160001332609
Ni 4.890415328337284 1.8740679329065684 8.107598290577924 0.21205507566116386 -0.8123631837367301 0.09541106721215827
Ni 0.861335554650331 8.51652503373593 8.190951204622188 0.9615959247550341 -0.25926335791585026 0.1987485883602448
Ni 1.9260068950398088 1.8779739492145666 8.852960167630638 1.4600122429901048 1.7801336127335923 -2.274016818985
Ni 5.937660677103627 0.6636911294656213 1.7940664545529879 0.07103032437494863 -1.764642973297161 0.4956582958739593
Ni 5.506128785793343 4.950415055257078 8.22604823511797 -0.2871623983189635 -0.40159808626274063 -0.563075706086669
Ni 2.9018200493433723 1.8349156468004542 3.2392289236242964 0.33308924275806506 -3.595338358138705 1.3231441941847406
Ni 7.293343129662629 2.766712419218132 8.0398325925552 -0.5965244726634179 0.05320872281249545 1.373323643252609
Ni 0.3616722369035791 5.823492610818198 5.73269247134142 -0.7563637855529748 -2.2456860903611067 2.154546911051425
Ni 8.228004928193014 8.239778250932687 9.45902650179015 -0.5223116367954295 0.164424104046762 -0.691565301020351
Ni 5.258142811748522 5.275673823621448 3.2036335075571403 -1.0199507105448435 -1.1354798886631154 1.1040885188360277
Ni 3.002519729208298 7.918250465126666 9.885956847945138 -1.094352008274554 -0.7326633566122415 0.562675899545089
Ni 7.506193381540693 0.16642116793777964 12.124318839079004 -0.01620052101926242 -0.7251089413037511 -0.3735074986741116
P 4.077374348906411 6.883469361795987 1.3070986110374914 1.2237934255985439 1.6803228737918414 0.7106305451819181
Ni 2.839572520585957 3.7307890999924744 2.5319442569627357 -0.39987236182088554 4.304180701071949 -1.5101703519017347
P 6.518137077064183 1.8475088644727031 0.2653870924509005 1.5127175438036207 1.04394115992217 0.7949984672060373
Ni 8.358782776090049 7.144942146866538 12.706709555522584 -0.0881790682400933 0.5310096787900597 -1.10003851713637
P 9.178990926953995 6.547791479176084 7.73727109536924 -0.8393183721693351 -0.29315743956013385 0.45172354216422206
P 2.018608960907729 3.4305325209203383 13.153176431829392 -0.005372062945190748 -0.783766860156276 -0.007126840852768371
P 4.055135850398138 3.2892250111364123 4.283808232014378 0.6121827480259651 1.119459344865143 1.1749008136628991
Ni 5.651664742476729 2.666095650076725 6.168696935570415 0.05547720713169801 0.30377326740276717 -0.9666959649857608
Ni 1.8170806289412924 5.964109197906133 8.92300498931987 1.8658554776824448 0.4870607840129354 -3.7289629603061067
Ni 3.6452068087158156 5.1148638692053705 0.33334624882850145 -0.7263842084717489 -1.1592312254464423 1.6298585464937025
Ni 3.7257499704630526 7.182178274029106 12.3818607346245 3.171205838218874 0.7032864461120211 -0.9300428325391016
Ni 3.9601201612455585 0.9825565598164284 5.783847466522277 0.30388639594186373 0.6740118655176199 -1.125235585227288
Ni 7.125089634735084 0.3421412341333267 7.367751819099735 -1.0290606432659117 1.262157370088723 0.3703082750105235
Ni 0.21328691502192895 6.207931211169786 10.271965224662017 -0.7833012333737671 -0.026690364806992745 2.2502487700311247
Ni 5.700554432444999 2.192776754112951 3.2950895629799772 -1.9063837768137943 1.6943700959135268 1.3596895974089422
Ni 0.031241681852156478 4.482107651914886 12.23436808486607 0.4583981259709202 0.16441022008969103 0.8889864288184238
Ni 1.4186393286176349 9.032367918562251 13.268093458317276 -0.6245006461613696 -0.3699220953156984 1.1776824901730945
Ni 8.440735420137106 8.179585065658017 6.183554537224989 1.8646712275663564 -0.030029456482554735 -1.6913526492434419
Ni 7.9213642234099275 2.2288244942384154 2.793314785474279 -1.0816042216905826 -1.4480807816598413 1.0160732298673083
Ni 1.9268452145776103 0.14080359683098378 4.532301803933186 -0.34476385088251593 -0.07537060362151535 0.23251565750836087
Ni 1.539108609890495 3.9947307821633635 10.370243911400193 0.03654823143767899 -0.17769613856531977 -0.24542516648117735
Ni 4.556837850713191 0.443601850194103 10.022661891343509 1.1726480130729806 1.1836302231160971 0.013342225634860894
Ni 7.015546144361483 7.722691705253585 1.3759541244593572 2.0403899306903313 0.023922315143552347 -0.29538530044938804
Ni 0.06436359466766776 1.7655838573334857 7.462578656048743 -0.30650609295289793 -0.7898338922859623 -0.8780774952154039
Ni 2.2337438638338662 7.552245682304096 5.962714455290495 -0.5727757069832523 0.29149830669015603 2.1815872029986685
Ni 1.1239469803238733 8.687533007144824 2.2800660850638366 1.176271725868497 0.6050260823765258 0.43932876804429494
Ni 5.633046678895445 4.030889069920187 1.3826008007947834 0.07492348878176774 -1.429018365711752 0.8474677407493468
Ni 7.830733590301233 5.418657972480977 0.5053159866302135 1.395177505902907 -1.7575734680448893 1.6453489288198178
Ni 4.966868227724259 5.163210033319461 5.787043214298798 0.9755755268635778 -0.4756080620913035 -0.17753595883837167
Ni 7.676316973898719 4.833584633516433 7.014480280949136 -0.4925467468281711 0.5639923043636674 -0.26950149070409074
Ni 7.661862871098603 2.4485102746554754 12.01188360691512 -0.33862405653336525 1.321669409411427 -0.507556589973442
Ni 6.7514017915331035 3.9290010030181577 4.628747242451334 0.38675485060232095 0.5325286865377473 0.8411734231002028
P 6.667044736504001 1.526653576757444 10.1513853957578 0.37111920094759304 -0.16253948542953942 -0.28562153619440483
Ni 3.41503742792493 9.139239841178021 7.688784904255428 1.0804623947766554 -1.0050087445230305 1.741639570423452
P 3.8281262894035812 3.793101114868182 7.231086388602602 0.07376546391792457 -0.3329668582475878 0.49089095639230296
Ni 0.5949139206159678 1.8534600119608324 12.3240047105228 1.3519901718821554 0.10131611984268357 0.2738816220496573
P 1.7441376168499483 0.5990004980551848 6.76191395004503 -0.6997902600333045 0.8095426835687993 -2.275964943850306
P 4.874735989289613 7.8727693271252805 8.751054597353644 2.2710513085987727 -0.2337814115946619 0.7728831233642367
P 7.988586395578472 6.540320301756776 3.628878002333913 0.8190920178201313 -0.5622506390822123 -2.080538220774443
Ni 9.087512762004886 1.427077797811329 9.90209588089321 -1.4060810401892883 -0.27602026565921495 0.6328734436060972
Ni 3.4023889364370024 9.020935451019264 1.3311482482395203 -0.7250235806787965 -0.18865598001093317 -0.17855411569024088
Ni 8.489413227145272 0.6037697071180402 1.011811147994917 -0.21765442412581223 0.47555355470428423 -2.6470280947489835
Ni 5.2730206804688455 8.680706690908439 13.40090261894052 0.7824147170037558 0.12455066489059193 -0.8891617780540235
Ni 6.995979213611039 7.0972316316327575 7.517347637544759 -2.156856275910892 0.2205302030117105 0.5968000949223077
Ni 2.1183966228139472 2.6556028374002865 5.911963880194357 0.22865308922916106 0.07716034853208646 0.02152527566628551
Ni 4.243029974497033 0.013342177874702394 3.4969191372418655 -0.6502476732184866 0.013660528206228087 0.4085256666205093
Ni 2.2052041503381625 6.285047396344911 2.257400135714311 0.08534468411509172 0.7215289372619766 0.058795472871653584
Ni 5.863133148962811 3.9991158382072483 12.734551897710466 1.2837911463084148 0.7865053421333617 -0.7627568335635121
Ni 5.560453734303403 7.44547509501707 3.0355393854648027 0.14970633822061316 0.7821882028152465 0.23017363963874551
Ni 7.567022215695675 4.426870685446119 2.6502182465228694 0.8333827234111906 2.262296702334594 -0.8135860004002374
Ni 1.0990277017551582 4.852285607821236 0.9817339011930694 -0.8200921769498716 -0.38738451376651994 -0.4047196626108578
Ni 3.8522348853423343 6.605672376494841 7.48341043594798 -0.08652816290023163 -0.41397743376369994 -0.43734953283073713
Ni 3.8453440829876584 4.394102525050955 11.768040405355457 -0.19328190881871873 -0.4465538250378245 -0.9355336804503436
Ni 6.336341497295227 0.20690739546228568 4.541942478617903 0.2521203191131658 -0.0977065481145543 0.1982672778484521
Ni 2.7454320001816326 5.05469832083854 5.750692389417358 -1.6116003716144633 0.02398916382574578 -0.2584562886335226
Ni 4.876384991457376 6.076794083470837 10.456077698538191 -0.33429971812639847 -0.6181389656094 -0.9082324215322294
Ni 6.736533135115393 6.577694613458542 5.151339981402349 -0.159287554151145 -0.25806959471806523 1.3164253874036682
Ni 5.93200432329912 6.339998781432669 0.012328824587250027 -2.6340779623462183 -0.08429747379749998 -1.5368869419609723
Ni 5.284471572617058 1.8073340127765234 12.153172692093818 -1.3786697380558708 -0.5958963521611157 -2.1047875802401106
Ni 2.9057813394670498 2.395659294563528 11.338561936297653 0.39099742792875886 0.5348755895033692 0.832675670041837
Ni 0.6452711303905212 4.64434551323601 3.4718404858379417 0.026466164611328613 -0.20022003069944871 0.435195976822844
Ni 3.3767142490540043 0.3151353690227211 12.107775386046214 0.18930775466231914 -1.2266560918583198 1.3433026714104865
Ni 0.5159746207536897 8.237852879686528 11.221959979661818 1.3664991641316078 2.213625462381136 -0.5666767931743659
Ni 8.826436105946703 3.323264469292199 5.657389267320574 0.5096944622520512 -0.01860167426158732 0.10490409430425802
P 0.2863460021261994 7.171630187536987 1.1558565541154868 -0.208422364004583 -0.9731936568949627 -1.4237175223241287
Ni 8.138507408305744 9.013565608928703 2.965210824855086 -0.5452412490084094 -1.0157448999936118 2.972820546735319
P 7.823068954527049 1.4913704577488753 5.054166770977758 1.1584285270394887 1.0008016484202182 0.5176317148212568
Ni 4.944933735202222 7.956610493208044 5.4567057035037685 -1.4412007667105566 -0.7588073619974609 1.6593835525360134
P 6.962114789204904 5.558436240031111 11.495654726609304 0.3475316434356402 0.35714396971442364 0.8373815601579385
P 2.6199328016819634 5.8186285150384265 10.794517429481534 -0.000385151253560627 1.1342092494808078 1.5827911606922547
P 2.12363842300086 0.7342610524038041 10.43877883669112 -1.67711259438466 -3.2456140779271196 1.2558517395856692
Ni 6.311910470765013 7.819927559335945 10.489407809392763 -0.4712970934207754 0.6469584609442536 0.9140320589331421
