# total energy = -381164.90448655194 ev
CRYSTAL
PRIMVEC
9.30149897270291 0.00000000000000 0.00000000000000
0.00000000000000 9.30149897270291 0.00000000000000
0.00000000000000 0.00000000000000 13.61368395648107
PRIMCOORD
 96 1
Ni 8.561016091200983 7.545692350022261 1.7143713976887778 -0.8652263502843486 -2.559305397320018 -1.4598577196901117
Ni 5.53921946391905 8.90451115279107 11.74517875724948 -0.3920549226589957 1.712017119571329 1.2523480973077852
Ni 3.504535130936619 7.9295187118656605 12.182953814081168 -0.05670902265627008 -1.3581047694203254 -1.6776340141057688
Ni 4.472328211530833 5.365979042512693 5.733675674704509 1.4244083777435663 1.629220912909704 -1.137216411738248
Ni 9.214381295004834 5.997002045392084 12.498043027460092 -0.03323536501436211 -0.35012948606980343 0.989590095975115
Ni 7.0306497398685535 7.329320877122681 12.87928078209397 0.9164599516483443 -0.38297275785206947 0.8630005462776233
Ni 0.24050886315727102 3.3411449971151925 0.5741880527092296 0.41146957974018167 -0.06848004714926915 0.25088593248543245
Ni 0.30401856910736313 7.50590053671883 8.41969655452925 0.2345637982866412 0.7522320227727883 -0.18832199371028213
Ni 2.3154686873982 3.7918305347475263 10.539046853246402 -0.9298165754609083 -2.2645711001910676 1.1026168193865076
Ni 1.9469060856368314 1.54556500092051 1.023397442428694 0.8738827404077659 1.3225739235035674 -1.019753764042689
Ni 2.89250578929276 5.405129052375746 13.040466460620184 -1.6664867392396976 -0.3696135629363441 -0.1600120910219954
Ni 4.385108054133387 4.445000407069524 2.375751703298044 0.770198634553538 -0.4551119990204807 -0.3737219286777628
Ni 5.016837970947108 6.660943053713467 8.078387345236102 0.28767404784805944 -1.747368245377113 -0.5328881267596951
Ni 8.717737050141961 0.6163740718902438 8.041195300941158 0.374555994543284 -0.287967153608446 0.24904887927669364
Ni 2.9603044164944206 1.0897450357651528 12.325339302553878 -0.6560776496367022 1.2081444062073774 -1.4934787501786666
Ni 6.115177591913844 7.171827893753422 2.2246525704348117 0.8106644558780685 0.8834742407509429 -0.030030227813503126
Ni 0.06867110782060952 5.378164006380738 3.101564423571686 0.05051857757484203 -0.09691567678214277 0.6638804335105728
Ni 0.8012999666610469 3.902788117939818 5.235918040395065 -0.973672139193278 0.2519637389306435 -0.2104411942068247
Ni 3.2039106788639504 0.9792897335262004 9.750801540622609 0.1754345962246527 -0.60793400005194 3.2702064225545038
Ni 1.5944350773805904 6.361239450055254 5.435712381534624 -0.7722141223216701 -0.46377404557085283 1.4141296215253774
Ni 0.6509505346281688 1.0908798186597342 12.613323017300843 -1.4199099756525801 -0.04099469724480682 0.5220229019104171
Ni 2.090697960778892 7.667365260219123 0.2519338945459115 -1.3102655384498596 1.0051283008200302 0.8814001318307336
Ni 7.609993613548818 3.626412674114471 5.268155176100309 -0.04159839226707674 1.2124988265213312 0.7663221823172673
Ni 4.6923272690934175 4.210649136340226 8.35979583024389 0.2880892810086071 -0.8654369236332579 -0.6514488926154394
P 2.0487295966776577 3.2400563045061035 12.88121363361441 -0.07813865328495576 -0.21704635822816812 0.0021093330335189477
Ni 3.770892860192589 0.6496353026503509 7.663537693324695 0.2735144685182257 0.31363473357787924 -1.3933090852356005
P 7.136184549064608 0.40203311625203353 3.0453536039935436 0.537214522049191 -0.2748704683254879 -0.7272897510051539
Ni 1.081187656560114 7.763877615253343 3.48039308992936 0.6259355788356832 -0.6193373567928753 -0.24689789437196188
P 3.2540736637039225 5.484322016018898 7.447379224755328 -1.5702788871578568 0.48290125331860706 1.128024717936651
P 4.74861064036482 1.5566523878905167 11.045162814679376 0.4888533571369839 -0.5975912233650352 -1.8433696378751028
P 6.987304753895205 5.593149555909067 0.9777921921653185 -0.050309803998145615 0.2558149943559336 -0.23012170335488755
Ni 4.169880665627525 0.17609226104142753 0.2392047929784162 -0.4319928965045141 -0.7511881548893063 2.499896202123766
Ni 0.31963857660629974 0.9489575448439921 4.066802382353264 -0.1483559948403058 -2.2680711429245264 0.15600579807607973
Ni 4.202463817100624 2.3379039033140194 3.543260992439074 -1.7837812367885086 0.8267888722437567 -0.09831409979156616
Ni 5.409231013494683 8.56077425222345 7.073275719958696 1.6115831452232825 0.33674303746056844 -0.619452799324817
Ni 6.503264040361491 0.5434438076153004 9.685319916855702 -0.32156170173443976 0.011949716162708452 -1.589485541993295
Ni 7.97011045409478 1.4756828379124047 0.7615695432519133 -0.23884031417480803 0.14850100505860234 -0.1284443435180433
Ni 5.49678602486102 3.4633015852671223 10.450299389690842 0.5015831459988265 -0.07368241728581504 -0.11308020235714719
Ni 8.160158684439729 7.8603248597936135 3.9561638405813344 -0.703380034267092 0.8336066664965387 0.25979300516707515
Ni 3.739863059075187 5.330930993768578 10.18088518781881 1.4839600120549539 1.5242846798159297 -0.8126388059956199
Ni 4.346646355206392 0.7608049600229413 5.334181867716579 -0.6483656257044254 -0.2951122492936595 0.8667862385723007
Ni 6.20266749278623 1.8686432719072696 4.420417475003223 2.4652495585841736 -1.154013942911561 -0.6069430968935805
Ni 1.4760269933804333 5.356733352371596 8.86323016947598 0.20289063555307638 -0.7142018074729442 -1.2472403437675745
Ni 6.913878719716316 5.824849899384629 3.882554566869469 0.13136383115768344 -0.8969182820709907 0.6117438607163335
Ni 6.728397525447099 5.869673823720588 6.310364900531384 -0.11914363494240772 0.1195814938107747 0.7469224376344168
Ni 4.897127677067923 4.5520234561273245 12.64148981698421 0.4672447777282727 -1.0249885300790669 0.1827594120208401
Ni 7.23531062535602 3.597726850779319 13.555594644565941 -0.28658004345293225 0.43509004737259904 -0.3021547579627377
Ni 1.7296974778150196 6.201644327881279 10.94144086766491 0.005472335968480898 0.8745918506596485 1.194727618580839
Ni 7.014000056415271 3.8345244157813614 2.3525946910492785 -0.19228637767466886 0.6432619859292728 -0.33356206862942556
Ni 6.84336405476697 5.058201737604508 11.721926869709527 2.306298818947157 0.8836675877086717 -1.1092510368735735
Ni 1.1091479629626648 8.68318198085205 6.0367157261027735 -1.1658659571541403 0.9235274000180869 0.34399380548571085
Ni 8.760040268212087 6.738192004037215 10.560012432298748 -0.014885401752264684 0.15063579201341798 -2.0127845102682365
Ni 2.4626091022291887 0.2676766818334422 2.8438580186620275 0.40979347758933937 -0.64675148713977 -0.994976557098009
Ni 3.0118161187091 3.6886676078311287 6.2458357502759965 -1.502746805744154 -0.7851933081901574 0.5579301573299875
Ni 6.774253916187145 5.589122006783216 9.147443056473245 0.3759803856946364 -0.5698654753149928 -0.9803037855771827
Ni 2.6781434402065365 4.855122106970146 4.226504471767302 0.7726486387559275 0.08734243127141086 -1.8223842938726873
P 7.326846678352529 7.860538794273739 8.461585855887828 0.15425436260261177 -0.19646082076733262 -0.45101083236791356
Ni 3.022075672256011 8.01713883372595 4.976577362087228 2.0057394304959972 0.9110279819994956 -0.9931294765869412
P 9.086374063896416 8.296062888314536 13.276718027622946 0.419082359090433 0.4496486619130643 -0.5507092141015161
Ni 5.460556685726644 2.033940213051558 12.845614005971536 3.1705946869974366 -1.5720776309294926 0.4241392047880502
P 5.0396545483275 6.306695459122268 11.509825715063243 -0.11441511911848683 2.130025271760977 0.13824873120297482
P 0.145380571194474 3.085223549889716 8.396199107412109 0.0006833992202697907 0.3052601363609388 -0.15894996830606817
P 1.7523931357066445 0.27174887815514437 8.384069022388966 -2.0492083003129093 -1.3595494722866521 -0.9624014513754651
Ni 5.746280136183582 1.8664667211094665 1.864761756317854 0.31286185996759663 0.8829836742677696 -0.8537738854730329
Ni 4.037762171901034 7.8389779192766955 9.618993716967257 -0.7100592460594805 0.980968158634059 1.7441877907666024
Ni 6.241240809702855 9.113822787846493 0.8538757603768746 1.6995853215658796 -0.5733153815368061 -0.05778245822610694
Ni 2.820149427514502 7.633145044898104 7.347754588110231 -0.13658162791319703 -0.1743696452952481 0.6606274737909139
Ni 1.3674319909686634 1.8977941701992171 6.3561608315270455 -1.3017215055345903 -0.7709967049748012 0.8219965930614359
Ni 4.839523492919222 9.342611762092515 3.1270356488054665 0.4140458251077902 -1.064652167217276 -0.5848976870577669
Ni 8.619978294223529 2.7430399996777934 3.4776296145360805 0.27234255969731164 0.49365720628353044 -1.1404721996713842
Ni 5.807130543530717 7.906897465967123 4.792316524504643 0.48042245276081136 -0.056343154676419094 0.4194417993123808
Ni 8.304666775015255 9.191462401133949 11.174996860218087 -0.3224883273137672 -2.1871896367871106 1.2766846171706205
Ni 0.29653923365217644 0.16409983820549648 1.750664917167192 0.1999955733934685 0.6272373283662424 -0.16150050264206378
Ni 8.013762389539613 8.077803211090366 6.263437907240796 -0.2013667427093822 -0.7200582662537212 1.3738031539921889
Ni 8.077300930137028 1.1061993877365808 5.91239560925183 1.3321777651419184 0.8068096009083525 -2.2170547997776593
Ni 0.9095647658534921 5.669459054820087 0.806928303788187 -2.989344512532271 -0.7543578108665395 -0.319692766846501
Ni 0.20089935923690427 1.41351161768797 10.076726070344957 1.266196058934471 1.3664960788078144 -0.25963462521233993
Ni 8.109725956124816 3.852885575075651 9.947900307312578 -0.3640993179863342 -0.2423151600972859 -1.068764389613437
Ni 0.16393241122105007 3.361747817701237 11.591126398410596 0.22789898467195588 0.10610659925279146 1.8917796537473743
Ni 1.3908624672920251 8.685163200167997 11.03619151876279 0.40366088232904035 -0.23818648264089304 -0.31479275844172233
Ni 4.110072026183612 2.9546305020215144 0.35342441191767215 -4.565681432958749 1.0649905243933013 3.5142264811580386
Ni 2.407311689866193 2.483221224314369 8.345800794643997 -1.1343221209095886 2.2881748556529367 0.18274732783598205
Ni 1.9433436114677773 2.8891665511029667 3.1866368648186483 -1.2486125415247527 0.5858564514266105 -1.0475185928607829
Ni 5.163569119816117 3.072061928612401 6.110351974162133 0.8654778041735224 -0.7073955831843881 0.7230703136071676
Ni 6.631094542986327 7.471457085418549 10.49297838832606 -0.6519217184867998 -0.2347257777858022 -0.6718331126987462
Ni 7.004410210806146 3.4874389755248134 7.550598890816454 0.6988284103406674 -0.3724091234036102 1.1718250029510526
Ni 4.841560521229987 6.659808270818886 0.3222783420610715 -0.39596891300142123 0.14225553836952273 -0.18558582572604165
Ni 8.859445389477576 5.403882651491533 7.358278304232602 -0.023888890802455633 -1.355264728868369 2.419362309133756
P 6.480112609012207 1.1934753541288412 7.1131633387032265 -2.0509895605830484 0.9721469607980031 1.0158513436644891
Ni 4.341800274156583 6.564979487128266 3.549019550554117 -0.7533267984988639 -0.5143291328105852 0.5635904409395583
P 2.274365362716606 1.370185234712893 4.574783294362987 2.2389778251029955 0.09696915572789752 1.7639719153720652
Ni 7.263587182729192 1.8456313630450238 11.535309962395816 1.2308811856832607 1.2043121769454808 -0.3124731091696103
P 3.5842024710357037 7.822114301343287 1.9899534236378311 0.24653793992938183 0.3612029702751457 -0.8307684257167951
P 5.653516285301134 4.0454638131855685 4.1686324044434855 -0.5252915453593598 0.10312694779917723 -0.24925122509548686
P 8.828694633334253 5.900089725895019 5.433139586873631 -1.2245904675785426 0.41557614570938756 -3.1559052033060615
Ni 2.580561412771686 5.8300122314050595 1.921666467731535 2.2199064102938415 0.77750056753159 1.8130131370704325
