# total energy = -340864.23983639246 ev
CRYSTAL
PRIMVEC
9.24029491107122 0.00000000000000 0.00000000000000
0.00000000000000 9.24029491107122 0.00000000000000
0.00000000000000 0.00000000000000 13.52410562567850
PRIMCOORD
 96 1
Ni 9.06759391507562 7.970345841541701 2.6701588142844632 -2.494815959387381 3.1048654631204267 1.6878960581534093
Ni 8.947664125892011 2.519052269672433 7.722494332003755 -2.3246086729999385 0.18002478669849642 -0.07242591917089462
Ni 0.0554833515026562 6.144177094631642 11.527001004364259 0.05068029996368691 0.26602073124434183 0.03247766091273116
Ni 4.103688944814995 5.304548446511006 6.597667673925773 1.1337163690047896 -2.0988527028129145 -0.19551491191429554
Ni 5.957643258877771 3.1609570847588713 6.490191030352978 -0.24775124351119268 0.20209307935244547 0.18281854739354966
Ni 2.708496798360493 0.7236324525309458 12.58481611886119 -1.1213419065998367 0.47576104272939995 -0.8238225905265812
Ni 3.8748807593026675 5.102731162778886 3.8771714284403993 0.9111639933567276 -0.3264961629215797 -0.2955012572019621
Ni 6.88181136622029 2.8143074167395277 13.421065591089658 0.1404827627398161 0.5345007226624536 -0.719586211713309
Ni 7.631550424297153 6.617511207500917 4.3528960056337205 0.2743318222131985 -0.9112280138254436 0.36826990442425606
Ni 2.246703813982652 3.444264530353249 4.5498880073016075 0.3276513595719454 0.46652615439469336 -2.320376637196462
Ni 8.913816925200159 3.9829090484887035 3.483525619902693 0.8941839138589632 -0.07451956847512972 0.35446899398542175
Ni 0.2445554963010408 3.489227805965194 1.2033516092653782 -1.2912506879102537 -0.6104536811500002 -0.9590587601554774
Ni 6.216371519694554 8.093565175755694 3.242755872475103 0.17620489873177395 0.8529390482765632 -0.46475183610308995
Ni 2.521075894283821 6.580910398890372 4.9654970730941494 1.2608072838187319 0.6824810793308956 1.8942659105043376
Ni 8.645404835192805 1.4470856433383257 3.3895333388659674 0.10936830072319874 0.010791434188549156 0.9153788027690235
Ni 6.984443323109291 7.422581152212454 0.12489552373228449 -1.3527640739337026 2.41111626707488 1.0032277413632078
Ni 6.5945398340583985 8.56200193225951 5.55731209688646 -0.5203460284286265 -1.102303659021463 -0.28849268709461284
Ni 4.955745789749866 6.515285823593201 11.613582568787587 -0.04587722214808873 -1.2734280579065358 -1.1718396582390722
Ni 8.048805186634391 5.345104101394036 13.561297232481857 0.22007846018627258 -0.19666059548296455 0.38171574551651677
Ni 5.20977998069183 3.4833047768514955 1.4711390553287602 -1.3351080514148361 0.46441990668496785 0.8122621393824914
Ni 1.9391590745267595 4.760526076668574 2.544276427043063 0.9890601916135742 -1.0550755792724344 -2.1023447751265727
Ni 4.293521565894281 3.9770322208501505 12.44187984311395 1.5006770676993186 -0.6483157463030963 0.6850197865923493
Ni 1.34529455329698 0.12557930556444313 3.9225181762960544 0.4485690556956404 1.5429796851222717 1.8448061132113132
Ni 3.5394026079735914 7.356522283048912 8.342858171318191 -1.5889191279668635 1.992658171832007 0.28352197335289886
P 1.8918764848624925 8.968168340561741 8.57844873338193 -0.4632451696505764 -1.1530034993691756 -1.2621640549569424
P 6.149850635779553 0.12816566414310807 0.7889206810890552 0.0682393918933728 -0.8894664537786359 -0.12217753667272505
P 0.7478993153365542 5.041754455881388 5.852691987936448 0.3954593203548544 0.17473654171636357 -0.36280708153747193
P 3.6441875536043886 8.108506732817863 11.013477152295106 -0.664088949976953 0.359863939748748 0.370155294372427
P 5.413565447265163 1.0703218538189148 4.707687297603266 0.4840587639618179 0.2537439707595179 -0.3050279657454747
P 1.9530010364804573 8.241640903598157 0.6200358088409001 -0.5247865806984834 -1.2176621158898255 -1.5469019029948134
P 8.591275186911922 8.683327005992522 4.860604016011512 1.1364857042198104 -0.0699481470543634 0.09461376812184351
P 3.6593416374522287 8.571417792894234 4.405612812804644 -1.2256582467214245 0.018596789165580874 -0.5515563925931598
Ni 3.4493928940944385 1.5260439643625903 5.529980228219675 -0.4396776667432815 -0.3131981602610929 -0.15518458772636498
Ni 5.60750999963243 8.560042989713324 10.149773839505468 -1.2937297455783654 0.34908356130379237 -1.8950711800144526
Ni 5.213263571917828 6.155976951383893 9.160999437377992 1.737044751963918 -0.8715921446013764 0.464262298061181
Ni 6.821287433779221 0.8026157223517894 7.1311394749038985 -0.19229357676352044 1.2514986048232963 1.4440544341092678
Ni 8.69458168533805 7.131816788529536 6.6298275967453 1.4041912793657427 -0.07286377803926161 -0.3936425788610898
Ni 9.02066245662246 3.864134296183742 12.129784258356192 0.6261955173652893 -1.7898366989539691 -0.821070738813057
Ni 2.8195281834310095 0.9910031612885123 10.118099956204478 0.17657076671162494 -0.8979901749789309 0.7177473587323574
Ni 2.5736531729998036 5.19396983589692 11.066478560552927 0.03119493754556563 0.8337969281304737 0.7334681119017239
Ni 3.256612618900848 0.1086677176020547 1.8229143150007847 2.5015977581959046 0.9565010267306302 0.7320396069853135
Ni 6.682664527751601 6.183171139654743 7.21186454033774 -0.6417612330140302 -0.24541848161295798 -1.1613091910213935
Ni 2.12860360321482 3.1562352939989653 12.394099201547611 -0.4968322615774024 0.7618561761261138 -1.8156544313480212
Ni 9.02935757424491 8.221469339549476 13.22061125087434 1.0927980335238727 0.743925559789622 -0.13175232484535374
Ni 2.1339537340367096 8.659644129832756 6.301002457837226 0.45436586488307557 -0.20533446910787864 0.13403829266605302
Ni 2.1273469230908524 3.5668370439151995 6.757968312091829 1.4899774218936275 1.5244839403109292 2.001907972565049
Ni 6.764875432626134 3.3612497198111777 3.958668058509177 -2.835150056633317 -0.7727684521632434 1.0581107665543326
Ni 7.93124091297825 4.54181753362313 10.096069244795927 0.53255774000347 1.7821974372411564 0.5717770905154088
Ni 0.7680422344706438 2.2368166983014395 5.7070242809785885 -1.0502521897418622 -2.536722112702863 -1.339426219174216
Ni 1.0848568378998003 6.6625391651780665 9.283040633975766 1.4194782874318004 0.7224347369056977 0.947483396613052
Ni 6.844443613122324 2.6919381896682184 10.63443747811001 0.6336627722766119 -0.5854049657114886 1.043065956406068
Ni 4.008273658343778 2.116443374956431 3.1059865696303346 -0.5156018288754217 0.15443922491990822 0.1824087135496407
Ni 1.0845611484588669 0.7571063453036201 1.5328217207664872 -1.4649806427389738 -1.0465294894746364 -0.15432326816733422
Ni 5.6639312410805465 5.653600591237934 0.4937690253262866 0.8309517453721947 -1.6676360223527924 -2.103732913723351
Ni 6.366590995983784 1.2346697412077468 2.6956112069423144 -1.0030655047537305 0.2671522737456238 -0.5390631452221556
Ni 0.4637953563106623 6.446066773529682 1.376888970060721 2.440391104779597 -1.9614688907133961 -1.6916298141642285
P 3.972883328382053 2.5683030421779134 7.473014682481669 -0.20780555635619052 0.9828473779346427 -0.26232065668493537
P 6.76826662090184 4.661118982744755 11.97893644200498 -1.096715109190092 0.18619466295463416 -0.06676203601689792
P 7.938513025166207 2.5616592700519396 5.39775437844075 1.1136301397778756 -2.062119351947623 1.7658305658473588
P 6.740610417879531 4.376979910597751 8.368134998370488 -1.5539433832226268 -0.5020071209101225 -0.24595867038714417
P 7.623465166146628 1.3724702609777713 9.044002517836644 0.2588437538799284 -0.8937946488403445 0.7744689797941178
P 8.416263999059426 7.141944151881507 9.615639509373752 -1.8931942747067136 0.10923254647628285 0.7266996828296387
P 1.2512930319652253 4.921963271123217 13.491647584669979 0.4479977565732026 0.39103316626270074 -1.2245225904550847
P 4.377257119448627 1.9673234937756723 11.21501353105834 0.531004279473421 1.0703276203354986 1.2902366448234426
Ni 7.897615479367097 4.640947418696075 5.958828788730013 -0.8074300081011706 -0.29107664577170517 -2.2131909459468786
Ni 2.0995243947580193 7.6109353260870725 2.8697879961536756 1.8789580765026737 -1.6627025896069174 -1.0643621467806832
Ni 4.174201636182598 8.377075907840712 13.21171284676125 1.502709010527683 0.33080018961357227 -0.19334258685332506
Ni 8.353956689677727 1.4928620649128381 12.030760636676083 1.791732373314785 0.8559474960855838 1.4557174722694928
Ni 1.714592184432821 1.935620041530587 8.30570756515341 1.107240434201448 -1.1516487851134942 0.39676081277509734
Ni 0.08226727067421075 0.1863083725551596 7.129786695711628 -0.4125090767482896 0.27915495463345474 0.31730498334061485
Ni 6.129438824060115 5.349668807138447 2.805481086927664 -0.8921319164259409 -0.019216682137766904 0.4293377182698542
Ni 1.1496959881194921 4.058790351268255 9.526515015758395 0.29150370600679476 -0.4843510983912561 0.2699213518503287
Ni 1.420492074244372 8.051854483994017 11.560230029318658 1.790989838721806 0.04651074196702957 -0.4079883060598005
Ni 6.172443157125876 0.8444908913649857 11.800674518361221 -0.843842999512566 -1.056323849857239 1.5008357047643701
Ni 4.758696498252798 7.342255267523873 1.7480984182380972 -0.689591979344064 0.46123585253003146 0.267758539871055
Ni 3.9514366036193476 0.4868055389923035 7.773912877723079 0.004170843548237978 -1.4877143368910637 -0.07525387553799298
Ni 4.980565222198218 3.9161017154277986 10.127282961404466 -0.9674307862692564 2.5152076356698556 0.2794128362805317
Ni 2.479568489012786 2.3346899032504167 0.7759648634286548 1.2332147189124438 0.9572376477863385 2.8010839681875437
Ni 8.840670749749243 4.7912315770505085 7.969092857535745 0.9858396277937473 2.0216216489438925 0.014078332469937045
Ni 8.742797544800265 9.150867453878506 10.626917726015272 -0.32767784193450666 -0.9713275502205013 -1.7586147648252102
Ni 6.989442322720072 7.281426405346841 11.392774630711514 2.8266235072195447 -0.19431909183398147 -0.9218261010562641
Ni 5.260407557156657 1.9425595030974943 9.133085430124371 0.34321476122784117 -1.5482275637847724 -1.224001684954608
Ni 3.517567790819661 6.206872496404566 13.227927716478437 -3.484431766394109 -0.7236395558470763 0.8782469309137326
Ni 8.186975318205581 0.9595769178943023 1.012995987487442 -1.582317820600262 0.3854824116478006 -0.7498923188960183
Ni 0.7891988139694331 5.995907320593567 3.910981667952135 -2.906020458391634 0.5424981390456334 0.3061831623958404
Ni 2.0080177530841405 5.866487748415 7.408829745150042 -1.2708584974071468 0.6066936998869359 -1.795398509312463
Ni 4.458738041015855 7.4441202799254516 6.117534551974034 -0.5472901611176382 0.909111481703073 -1.540172811801096
Ni 4.648487499439878 1.5515102174629851 0.35949922228690834 0.35367426599826834 -0.1274927782380514 -0.9198072708540223
P 7.66177542933757 6.3776608694287305 1.9089276012798213 -0.09193056486272555 1.1308120508738009 0.8249155664804437
P 5.636524526024027 7.893475827194029 7.746526491315622 0.6721843253905778 2.536361644039651 1.6784513678007418
P 1.3244022462360248 2.486498710284664 2.765544531811588 1.4698366852796945 0.35546786756358134 1.4072141253524668
P 7.285686181355288 3.212480969841528 1.9926012448574717 1.322297015693097 -0.35291527634505676 -1.5641948857473063
P 3.8860153148128185 5.36569147871903 1.608192035230925 -0.403052302210764 -1.2591172977108187 1.8253816859381145
P 5.813633260848143 5.060521495085633 4.954569500192653 -0.5397390882432576 1.1066552511219392 1.3812063884347954
P 3.2091544636310263 5.288590456995628 9.02331072517782 0.3676417839219539 -1.1324904670174885 0.770846295439866
P 0.9620810378472077 2.254391739446922 10.830455552681823 -0.5336846545190616 -0.6072611423546316 -0.30933327798904786
