# total energy = -381175.0740305103 ev
CRYSTAL
PRIMVEC
9.19535393100714 0.00000000000000 0.00000000000000

0.00000000000000 9.19535393100714 0.00000000000000

0.00000000000000 0.00000000000000 13.45832995864860

PRIMCOORD
 96 1
Ni 3.4571772905921283 2.4827640046132826 1.2755482600956245 -0.21233481168511176 0.4091666426386179 0.16685559630639005
Ni 6.925021191969922 3.8398603432361487 12.512411690465406 1.421015292901617 -0.19098179993063236 0.23215338907293567
Ni 5.928557446797949 5.470509271740722 6.259549735760468 -0.362201329632673 1.007201381298975 -0.6365287809704973
Ni 7.037250489072555 0.6499138365643954 1.7927703780217465 0.005316012896274716 -0.7406461177074019 0.0815034559921306
Ni 5.6827196542507235 2.09285340362656 0.33388238876418624 0.7659743120595454 -1.5822111198190687 0.765783536204978
Ni 1.2444808366469597 6.136372450035926 5.678311401482922 -0.4609846557511738 0.7598836257807752 0.3410187820177869
Ni 5.908419621262942 3.6515211000361383 2.0528526936448994 -2.184476608731322 0.13029733756638204 1.3460375538431464
Ni 0.8116619547040705 8.779485039890972 0.237639214808864 -1.919193784094269 -1.6366262042348394 1.3608517360378434
Ni -0.021562185889058918 4.811239162353556 13.306587759764282 -0.3039537588446894 0.4950216907312249 0.31806037344940064
Ni 3.3173159543421447 8.115286220692496 8.419114514032655 1.0161619329263725 -1.075609437559728 -1.313395342328093
Ni 7.818607315184971 2.885235459335539 1.053748042768062 1.6158840865914816 0.3010255294543009 0.31075741203008417
Ni 2.2511974016689473 6.916460317279012 10.179867588524564 1.103857119551512 -0.9343602289675328 0.5561941484754873
Ni 4.939247687135674 0.4498937350186679 7.484904235826233 -1.1049225847015487 2.7620844469958947 -0.36909702831124175
Ni 5.5547387155309815 4.2155181453282315 10.674124309522067 -1.2734486267318261 0.705121699548547 -0.9929554129029221
Ni 2.1711610393599496 2.744004015320845 7.897496097299096 2.675325913252412 0.6804218828090217 1.1421503587047557
Ni 0.17673470629353594 2.829851841437206 12.131756213406073 -0.4420626220356903 0.3821957704767288 0.0555715666177172
Ni 3.7651113095493565 1.9116681459362461 5.608960960203254 -1.1422377762122393 -0.5527151887879513 1.6686410665785392
Ni 2.8512218444250403 1.4128753567485999 11.989811209911235 -0.6615404725234865 0.670824983149206 0.015421476761392798
Ni 2.966402850201982 4.800379449131252 11.41915121101975 0.17092231017659595 -0.8492415448203181 -0.2805394936858072
Ni 7.170684272788762 5.3165606529703595 1.219207405832819 1.8632306384650879 0.3307927334144045 -0.9288051034772585
Ni 0.7639187565486767 0.6679836269565612 11.766968239425832 -0.7296559372444853 -0.9132018497223627 -0.6753966616802884
Ni 8.105060986904858 6.179075674595092 4.263531686894917 0.9015789207714537 0.03619007676731186 1.9385009690633133
Ni 6.142459774467056 2.0890097456020698 9.362247044347123 -0.1781720497604738 -0.36066149594937885 0.09982410867818936
Ni 7.521229562763902 5.650122123875563 10.79594987819015 -1.1592679922216487 -0.16216924657431425 0.44272185288624405
P 7.009471324259195 7.7050446917341295 6.104806638393654 1.1347376111804524 -0.4639139135828269 -1.2099050976522259
Ni 0.48520205579004766 5.13488804151139 11.048212464664914 1.5676051969804357 -0.34750361841118216 -0.3415900811402246
P 2.074499476791914 3.4746300727224675 13.113150612237055 0.19720926889758295 0.5212698257944764 -0.23277713869986363
Ni 2.193570117363974 5.545819222029174 3.5050197985720777 0.6886398998434399 -1.4490670568325108 -0.32152262096638823
P 7.853834716840045 4.173651697994492 3.1000996210461804 -0.09713602032306497 0.10897929281489618 0.024577175118731864
P 5.682967928812114 5.662646196194595 12.480878982097986 1.0130982063993843 1.3094561551746868 -1.268769218978286
P 2.886007869082087 7.392586558547118 6.262039837657673 0.22114289689504496 -1.2271638847326736 2.2553794063894705
Ni 7.368641856404123 3.916972582933214 5.415672777412861 -0.2210595931526193 0.12624502187387937 -0.9055769861872532
Ni 5.644411808963581 8.26892219742259 3.2144548840226466 -0.40856449027824476 -0.029851536143793746 -0.5820041675600558
Ni 5.757385929750385 8.799006776699565 9.43523148957722 -0.6642385881809398 1.3065004149804724 1.646195078870197
Ni 8.176683600188955 3.2159739565241914 10.037922585029728 -0.14173411864841398 0.3886834350836016 0.9942481635724166
Ni 3.999730770063382 5.523566465045285 7.8909554419095755 0.1293444867348095 1.187698993868832 0.37177328959182426
Ni 1.0274336978669065 0.7559758096550058 4.537853008381521 1.5627476117778183 -0.5533201693618018 -1.0036828266227553
Ni 5.319346845270409 6.66899494705156 0.9067336405437945 0.5082698139903826 0.6727509965273253 1.4097528326139206
Ni 7.530930661366382 7.379216513648534 9.237488157712981 -0.9667134484872578 -0.07677005507220326 -1.588258097344097
Ni 1.0668725717114942 1.8512546693312237 0.7785283351833889 -0.357610624938197 -0.19339349469591854 -0.2867713335281319
Ni 6.140510359392435 5.98037326729556 3.237185799421066 -0.41991693917658646 -1.0675462009356196 -0.746948662886662
Ni 1.9195209783594864 -0.05335696184905679 9.786238386329462 -1.0710544711991943 1.7989808273470824 0.4959696564667909
Ni 7.736161770095072 7.52833757150297 13.398548657303326 0.31776572502711725 -0.3160353725995719 0.23927123106463957
Ni 0.1769296478009981 1.709388745881865 7.851347373549077 -0.4730850385591336 -0.3030908966237619 0.843878737846508
Ni 7.912078089871431 1.0165923753528545 13.078064819035514 -0.4711412845692015 -0.5693952205467936 -1.3467116970920356
Ni 2.441320543569319 0.6740599169627407 2.5229927593772565 -1.7486242292714014 -0.4301190765205689 0.8465277454335808
Ni 3.7817916819331483 1.5304195685358146 9.388356332851279 -0.24743551204298678 -1.6108573228008514 0.40157263234144386
Ni 6.8249757390836745 2.1213222199993376 3.7212283210558783 0.23008750768284245 -0.02857421209326692 0.46852904375733506
Ni 9.32427299041474 7.494342347300723 10.517927426668 -0.5231079074444798 0.8951987282767226 1.7585674565270424
Ni 4.651460689067578 4.038985736825459 13.307583616616084 -1.1170808173306372 0.9737796113054197 0.05182829752520106
Ni 8.102808125144092 7.363924639737704 2.2850087187886836 -0.7271925633056573 1.0798515006655338 -0.3026368398054788
Ni 4.610440214313391 3.2627875043774894 7.365488769474464 1.4644517668186972 -0.0800672377662363 0.8942705600354987
Ni 4.831542504262823 2.2797857576453575 11.729406137358273 0.6975582853789922 -0.40110906244146405 -1.407388960367434
Ni 4.300575170989792 6.401630830496365 4.450871395101477 -0.7936170134774784 1.1025882801414173 1.3231081987404827
Ni 5.513856171088679 -0.07913245899845381 5.338502606984805 0.4188913261255495 0.6733233240910276 -0.1843216143016374
Ni 7.400632493406995 0.2999901525281449 7.56008269255069 -0.7179111380037313 -0.025460349054633572 -0.24904707950448077
P 9.240779174954525 0.2873529773533683 2.324320696746338 0.6474629113844979 -0.18686932042415558 -0.2713125757709005
Ni 1.1357089926955426 7.43625529528947 3.595836794057899 -2.0709603472780205 2.1226428632539767 0.23460982103322822
P 5.885302500991248 2.3314452571228332 5.746276102895867 0.370817096326142 -0.565097107392072 0.1538758962172705
Ni 2.9658327382461964 0.01866748841032816 0.38944255746173057 2.0088766905733983 -0.8097046630679603 -0.7398187367101001
P 0.1303358689113011 8.84376976058286 8.55856941563029 0.18259717541136294 -0.793906262583123 -0.824599835012238
P 6.3113232576291 0.7823177406185381 11.301847917510626 0.4151326304140657 -0.3704957084309813 0.23085729596933144
P 3.8255339815085043 4.338616351007293 2.6093950653473894 0.06357952452385823 0.25160224182616664 -1.0388614314064175
Ni 0.38758509592836465 6.728672795326537 8.115601621339003 0.7411945340117042 -0.590790398393118 -0.5229978642291766
Ni 0.8144692963186082 6.475340789166967 1.3398182682209128 0.46630503952282276 0.5157735785665957 -0.36817477360728845
Ni 2.8866331531626264 4.480270781311764 6.253089999487251 0.042688540007461966 0.042966476259196966 -1.6331636996075356
Ni 2.4175229670923333 3.092259662118716 3.8573591021371163 0.5911212993699756 -0.6324288998695108 -0.751951258307576
Ni 3.1630179121150097 7.446590873326616 2.468903847339804 1.0435621793161962 0.26825296300897034 -1.3032312573108975
Ni 5.554830669072238 7.515620396747302 7.622555928479841 0.041338967958103 -2.1617205459817286 -0.38499158805431116
Ni 1.3220528440503037 2.367288747504322 10.104258789227032 0.4874711320774766 0.2780452665090437 -0.3173270948278019
Ni 4.642817056189539 4.065505138123614 4.52722042040612 1.1231146822295432 -0.6691360254825572 0.682859802826553
Ni 0.39792343257174767 4.158249479834155 4.54230723791995 -0.05673756190136035 0.8694833257884895 0.2629690889022116
Ni 1.0857782197936747 4.076033818597397 1.8497264014755532 0.7322452952382164 1.5878546912580913 -1.167220414299506
Ni 7.561992567602571 3.2257118365431743 7.691812577147428 -0.7267603608642451 -0.46414814108082003 -0.5765236040614587
Ni 7.940105529246182 9.094968444585296 3.98063753675704 -0.31001744854026614 -0.46097051468378675 1.2290150790087995
Ni 0.021452761174964585 8.568175802085277 6.182111060991944 -0.2833060006873508 -1.0804094300515328 0.34604657424968144
Ni 6.2556178023363715 5.115770900284321 8.532151163227514 0.5615474423676007 0.2964780192929346 0.6986373773757838
Ni 0.2421532141491084 2.5188373788479095 2.970953630958729 -2.091519402376295 -3.424549745326496 0.8323414266308699
Ni 3.9844480915066773 8.525610507837994 11.136162348734379 -0.287459360734092 1.406566464466139 -0.08892443104655008
Ni 8.306448437609058 0.8673766053509244 9.982770690055357 -0.7924610454961643 -0.28662298087572574 1.0172423104747448
Ni 0.702365056032083 4.067831562717385 6.959477103413861 -3.278109479451664 2.209881936178304 0.3060196402347827
Ni 2.8257507134971998 5.30527795345828 0.8205584598205635 0.3867617925808565 -0.1361702514073913 0.5172997854031349
Ni 6.397777977117749 7.712143505119073 11.496630345346427 -0.2905768233171512 -0.5465746231078522 -0.41585305351985796
Ni 3.7581964032469246 6.8961569753697445 12.810177486830574 -1.4322247884641914 0.3984585121924944 -1.2744189610648955
Ni 4.319692312216861 1.5023185663280598 3.552299550879543 1.6270776413144559 0.3902052710447667 -0.5831907316689892
Ni 2.183206953264452 0.6998243796871869 7.083819440506113 0.44030630146621585 -2.3620506198964804 -0.8224341948194868
Ni 4.590090895633495 6.582760916061925 10.021004972509497 1.1750273119384345 -0.7226553375569361 -0.0539114053064749
Ni 8.607908927261882 1.783264220926728 5.601262609729324 -1.812323310092259 1.0195686446150762 0.7136341078949323
P 4.685557062165207 0.45071579967749426 1.8153137081960042 -0.06882971717920404 -0.7553908801167443 -1.5930961421626886
Ni 5.402132618462953 8.9553186014802 13.289347390314244 0.1772711352127592 0.02789209842457777 0.0240405858889715
P 1.5119185160351594 7.260274608034232 12.29110250504815 0.199014954647754 -0.5637670757267387 0.14492640033346654
Ni 1.9132865282623472 4.949307404549052 8.867814692085824 -0.21828408729001114 -0.6069652083807676 0.8600095819700995
P 3.658546350588077 3.568156019533683 9.430951971767175 0.04494468303149034 2.1118593994852275 0.6742154968879938
P 1.501454203040256 2.5582302759218694 5.774969285909309 0.33313166596022625 -1.2155052174478227 -0.3179930105465749
P 8.526447285063421 4.859937757802596 8.800967226199138 0.4467425440098628 1.352508763389787 -0.467803221334904
Ni 3.020719807021749 8.577876900687757 4.670565876334283 0.9810972280127556 1.61201766165754 -1.1036681434691573
