# total energy = -340891.7833074425 ev
CRYSTAL
PRIMVEC
9.07485039926032 0.00000000000000 0.00000000000000
0.00000000000000 9.07485039926032 0.00000000000000
0.00000000000000 0.00000000000000 13.28196085925804
PRIMCOORD
 96 1
Ni 6.316604084545698 2.004697981922053 11.44531841636553 -0.4017592944309532 0.6276641314910159 0.6515121417532069
Ni 4.769641557852082 0.47551127223282774 5.81372669338371 0.2293197762788825 -1.0556959864652526 0.8535530277114785
Ni 2.9473752939406808 1.6090072790210708 4.793127270741281 -1.3640455603847927 -0.06333938348859414 0.026102867734638914
Ni 3.4723553907877287 4.227863912876013 4.786579766162626 -0.06353478732885187 0.6626514461994781 -0.3387852647015778
Ni 5.029118755935879 4.456395871024659 2.687153050637331 0.7508649672219327 0.6464781788737253 0.49031477217385877
Ni 7.2547621210547355 5.985753187901797 2.7005684020144964 0.1805652325829987 -0.4637578476209368 -1.3260775657814516
Ni 5.008028803557788 4.555084869351568 11.831251840093998 0.381220293937337 -1.048882563087845 -0.6071498135877479
Ni 5.5058478730951865 7.854872904536125 12.626947429786041 -0.5944483068606795 0.695786281080234 0.1476232304393393
Ni 1.8652084561029352 6.66540503532207 0.15570174609599344 -1.126804986596937 -0.8259684332249904 0.8529195078925376
Ni 2.6560635205804894 1.8262410483957403 0.44719955388981275 -0.2053933473702721 -0.542825183367749 0.8300647147815511
Ni 0.5819647125798282 8.92330041883668 4.531619121133295 0.6159715256444359 0.4381306339711358 1.3148711555426709
Ni 8.622977319008571 2.372492594629296 1.4574962988494329 0.5035785791623004 0.6810358622439368 -0.2556131627577727
Ni 7.118285445575345 0.6884263202922074 4.750226822861683 -1.2619426829747558 -0.1025196532324815 0.544282741749882
Ni 0.5795326526670364 7.2198239469344045 2.362714443300814 -1.3350550866897137 0.7448606700093817 0.26153595600011087
Ni 7.52995696006747 3.859470360040993 3.881905205251456 1.5257800334145335 -0.6682078572413331 -0.22619562882760402
Ni 7.495409004515237 4.319093384156971 12.588628873883938 -0.0014405891012684868 -2.2388312722228023 0.456796071591123
Ni 8.210534442230673 8.95926405105457 6.926091003481925 0.09511024814228781 0.25664006136039025 0.16819256995025875
Ni 6.875006855492792 0.7904348989030683 0.2894142221371886 -0.29993795281707697 -0.44412104722661583 1.160666415231072
Ni 1.9333515079132115 6.3688026241665145 9.503946555650357 0.21615881341689225 0.7136981283636482 -0.9708822351529667
Ni 9.135107427659673 5.073159005028337 0.9836702263397598 0.05104308261974435 -0.9894839094145539 1.6032255172872067
Ni 6.71102430838776 1.944159654764462 7.262868684935694 -0.45083959689737196 0.03970066102373163 -0.8262301715268093
Ni 3.5817073383591533 4.495535700889851 0.7664074174437436 -0.8191619518261182 -0.3029507715014718 -0.6325775096322331
Ni 6.043587209633971 5.549879047337224 4.7487131378114835 0.09724323532489058 0.7721621860378121 0.45039453894015336
Ni 5.226342480132541 2.609790858284498 9.366863680162853 0.4364982405740353 0.2990198118781818 -0.4168120749990176
P 0.11375506499562857 5.7012021781051505 12.218221611740528 1.6722272412679007 -0.6511167060870012 -1.233575187575656
P 3.8276448596150194 6.164010474718851 12.6444401114573 0.3395018311526282 0.796653486310957 1.5108514371291593
P 2.1128611240883446 8.543118635304957 1.3833429736054175 0.11360753561552692 0.27700885482472937 0.19438311230269747
P 6.217506717949851 7.82900958083666 5.603712875003881 1.2102221146720125 -0.4157435245251872 0.6039937844572696
P 4.696906631728848 0.934455497537324 12.831676055280758 0.03584272073022214 0.07665512676089378 -0.9376772091559077
P 4.2279183619785385 6.211952909492282 8.164023111368612 -1.0462752073719852 0.057596567467545975 0.36362469234276085
P 4.779551294511666 1.2327095314694774 3.7890649480207954 0.5891988855362821 -0.19141400237204453 0.20673392055856654
P 0.06107011339225397 5.417839973713637 3.7945098582733148 0.02749512009647523 2.070237867289699 -0.23781341557219043
Ni 1.5270976791223423 1.050731555979869 2.7903005229760103 -0.5276986121389557 1.8142819764805271 -1.5868910417932414
Ni 1.871932920264796 6.288971165014164 5.008720307159859 0.006650672547298224 0.22065695839756191 -1.0613570414057723
Ni 6.2189223946155066 5.662525165611423 8.967700939490848 -0.37738677912385976 0.8649134470296201 1.1939030657970149
Ni 8.481536700348967 2.165322834371366 10.343646095033176 0.46247281026092607 1.0339935617911549 -0.2045788218887767
Ni 2.4890590482853083 5.119703912836955 7.060730021751092 -0.2704348011516375 0.22167691502164402 0.7538297062772115
Ni 0.7640089344775091 -0.0850558505396426 9.194836278159723 -0.379962510270836 0.24808960068721791 -0.4677034625322461
Ni 1.525101212029752 1.1621616442976719 11.570394357261188 -0.6750737311232309 0.07908790457210249 -0.6760831462243517
Ni 3.912177091285378 7.005194659630524 1.52212556857675 0.0389414142602039 0.4914661121694826 0.24760829017542518
Ni 5.792104954770957 7.853738548233517 7.873692329338916 -0.4316753652640952 0.8741429360476881 -0.01937789030597953
Ni 5.5321921638669584 3.107373981710954 4.855287273669081 -0.34165847248431486 -1.3505128160056805 0.725054691027048
Ni 1.0603781219772486 7.4238175095450325 7.144884739643942 -0.6259589758744509 -0.294411366571893 0.27569707799184134
Ni 5.161802143939347 4.52919432110084 7.110138952352534 0.40053339244365216 -0.517380003821767 -0.6607033213341719
Ni 8.429256487074364 7.026810953333024 9.353967410229762 -0.7759159966532895 0.030899260682017753 -0.28233283814080407
Ni 4.629017675730356 0.40062106913463824 10.233817717814658 0.2576530760059369 -1.4625833461513909 1.7637045206432915
Ni 8.063939308532017 7.379523164640789 4.480961491113941 -0.5643147207000926 -0.958658182282949 0.4906089063755099
Ni 7.564278044359183 6.520643021408429 6.899062468988422 0.02806873321175811 -0.593693688082842 -0.006828078665426951
Ni 2.059854922780071 5.478559797879646 2.578479901877387 1.1366528259252942 -0.3930103445937296 0.09422270333101192
Ni 2.250481230720764 5.143262224529521 11.527905000105656 0.05141357858528565 -1.0792974279342769 -0.22840266378125176
Ni 1.1714089168765336 3.5931688744407064 3.7976579238843127 -0.2727346529294077 -1.6738994867640011 0.20799530376949338
Ni 3.578612814365638 2.632414460383715 2.6139562146276756 -0.7503934269021528 0.445343092559175 -0.21662032643434306
Ni 1.333667242401602 3.1314949341296137 8.333102094470002 -0.2978239917978677 1.1130377576095154 0.34508755277052183
Ni 3.632426677361369 2.6935154282674 6.96960309627989 1.0790475167069997 -0.46652461173279647 0.9727352292013053
Ni 4.315753839202093 6.614794594524906 5.919942372649683 -0.7628141691640088 1.3667241356582205 0.41358508342128775
Ni 0.6135551743799018 7.698005040161051 11.375176175007537 0.053749682917630014 -0.8601101121037057 0.2186388995262686
P 0.3673680947374621 5.45416659994836 8.178021975627837 0.7085847183964828 0.8854948707253977 0.15833701731241764
P 8.776523788129609 1.664971881566546 8.261273745903813 -0.6540367079472736 -1.1348317135561552 -1.2601243988190942
P 2.061642668312982 3.0591865259761604 10.458920289989258 -1.3754172925568442 1.0752695377218062 -0.6990222715190284
P 3.986236945570058 6.259133056830359 3.73735826529279 -0.6731261204785568 -1.3526098077440254 -0.5912328852471753
P 6.675314771981655 4.03712870673027 10.41628482774195 0.5318386024492583 -0.3371783252257741 -0.0529050755291476
P 6.012142852925674 7.867223775958923 10.38322605514378 1.9000004989952692 -0.803539671907829 -0.786348247730207
P 2.4084380771463425 8.309767931582831 5.638856140743723 0.12703769297850379 1.2803093584074015 1.6282701189606603
P 6.91631557460857 4.007771565618771 1.49791296016884 0.1947536082682388 -0.16431251816956216 0.38475298968094385
Ni 5.265291738138894 2.8077768699165127 0.45669093994499554 0.13307284342899017 0.5845696142943867 0.17777584276331965
Ni 1.5306640953377422 1.1965734770935925 6.87240509587713 0.06199238254239646 -1.3332234327976136 0.2083082070242219
Ni 6.920163311187018 0.5793075963765988 9.277861177175176 -0.07194383732815351 -0.5109779569501651 -0.46322460082528605
Ni 2.9083171377292776 1.3447204102142158 9.234654906836395 -1.8297366204727006 1.1924987292503206 -0.5996427065774254
Ni 6.369220067285874 2.0253341917791 2.606066539671775 0.9303094559369267 0.6362233339149366 -0.05530725721273701
Ni 4.16080076826582 6.521160287882419 10.601488912556174 0.6632278875282384 1.5006886376635447 -1.2367227320657024
Ni 8.012022089274247 6.983287970714555 0.017528073587900997 -1.1668838568956936 1.3293238406328913 1.4149050662388214
Ni 7.801721505621119 3.988433059371908 8.339862858033547 0.2777462472113862 -0.732632503374306 0.031138630386333466
Ni 2.880348448732171 8.595407923429983 12.619709329090359 1.818232733598159 0.2302759695445647 -0.00745877027089038
Ni 0.08145767234776957 4.639725999226977 10.323363804342543 -0.12709117192425853 -0.19659503235235173 -0.13050868224623974
Ni 8.760370554380469 2.4151625413082036 5.789978717317347 0.0626302732367115 -0.14845112565727336 0.4998273396499843
Ni 3.6253119946314105 2.589898786161962 11.699441452701016 1.5093005477022716 -0.12484839863666887 -0.045338576035799334
Ni 0.8578256456134548 3.319244514486892 12.571283204789497 0.08856190550080878 0.3901494781061668 -0.019879512532746408
Ni 3.2562469028652465 8.31216369209394 7.999061387903167 -0.10862036681358067 -0.5843934937278387 -0.34480910229815454
Ni 5.393864218901711 7.930176013328464 3.3603889788100525 0.6386941640529323 0.07708398676819628 1.5366414016090697
Ni 2.7866143187350554 8.326311383900068 3.4840174810635824 1.2381514940924288 -1.1773209930686175 0.23553593239192336
Ni 3.7324406038497235 4.364458561410875 9.271486094754518 -0.9440882548885741 0.22220501961097214 0.4216318649851642
Ni 6.949447853495149 6.16326633698434 11.425541594843338 -0.48241325793859496 0.9656294713944596 -2.0563238283117684
Ni 0.2558554252808294 -0.2602195208482234 0.23471193128525572 0.6046293611587393 1.6916272430610673 0.4971662478780534
Ni 4.700355074888777 0.4880300283884112 1.7711358341851209 -0.568554212702737 -0.5779713922515788 -1.336915279826904
Ni 5.8136849490717735 5.740441831324971 0.5699605004431079 0.36861674624071356 -0.13421852699765915 0.14047633498191292
Ni 7.704148713895977 9.031790255618125 11.463674116311815 0.13068994501911038 -1.4850295909700488 -0.4491974333082587
Ni 0.07284563929836857 4.869483062182441 6.0632678377417015 0.10073556474886522 -0.4359714215362879 -0.28033226277100753
Ni 8.013737236003792 9.126214074247226 2.489411152481638 0.14597309643042602 -0.5486268776511907 -0.5905641413149249
P 8.689822667208663 1.716988924178945 3.731660166713529 0.22095932012932912 0.8739305629265658 -0.9454069736999977
P 1.7108271007431775 3.5693201675346726 1.490634022646264 -0.17076238755996398 -0.8126385488853037 -0.024578974890944766
P 4.736808749029392 0.9386390035813429 8.006392959558184 0.5586642072825346 0.19569540335621782 0.10805755233157519
P 8.531493751915828 1.6831851063612224 12.451864525646208 -0.07154403078657355 -0.27193889650098974 1.2308081663534804
P 6.564764944154676 7.73879649280284 1.5193767963842701 -0.7347665189981732 0.3084765864157074 -0.5033605496142234
P 1.8690743423822238 3.286248358356626 5.992063838884468 -0.8584669200733281 -0.3583868409825892 -0.44914395436250387
P 7.100135744733614 3.9046721899873225 6.251433953733297 -0.6732518474231438 0.6277016695971707 -1.2103614684633541
P 2.419037502437913 8.413212151530272 10.489694015251454 0.9341517125011525 0.15319044011447167 -1.508967589842885
