# total energy = -340874.36826490227 ev
CRYSTAL
PRIMVEC
9.18921283511821 0.00000000000000 0.00000000000000
0.00000000000000 9.18921283511821 0.00000000000000
0.00000000000000 0.00000000000000 13.44934184406316
PRIMCOORD
 96 1
Ni 0.5398212380203679 7.182270521188038 11.29366777988069 2.7433765861737465 2.417373303728185 -0.3720522542848238
Ni 4.5373393364696115 1.8528026436174374 2.3467761410968064 -0.1845177894728435 -0.6686174339749259 0.7399879152981127
Ni 0.8146090318430775 7.880209628792298 2.136885326413995 -0.9108672880519153 -0.6908837015722941 -0.5347786589141886
Ni 4.463347793199789 6.550300773883587 0.42347017947348486 0.23189833563933612 0.00431276844274096 0.6888355607940136
Ni 0.20503707236349691 3.3766314609731243 7.415025935717344 1.204222702555468 -1.766310333697255 0.2873922549415825
Ni 1.1043504320198583 2.519921130738962 4.674749314503758 1.4925714078730488 -1.1948304627072908 2.410341079471752
Ni 0.7914053500359952 9.133792880323073 4.181992468828776 0.4409390499542083 0.17933958770601374 0.7732201949886812
Ni 5.444976285283176 2.25937937386747 0.31915423322422815 1.0485490910078263 -0.09572371335657062 -0.768063076267774
Ni 6.979832158267749 2.132117962697107 2.2809005107698446 1.1706278973191582 -0.6465547977479317 0.5033906315212104
Ni 8.105170752834587 8.095577214437455 0.1644722103900368 0.7776818303044607 0.5113530809013966 0.5386700235487949
Ni 1.1117385592912117 2.6379749504592054 12.872338739485336 0.38929484341535536 0.1435786280563205 1.0523108720431038
Ni 8.471526297678258 6.164693827754484 1.7785951538415499 -0.8287102576361858 -0.9545405605701497 1.4287825955518618
Ni 4.016338525643844 4.108984171352531 1.353152050331797 -0.058346815370009186 0.6925109527630718 -0.25480943590955474
Ni 5.889991493612899 2.2886010712840164 9.347145271552053 -0.14154797077953685 1.7335300539424403 -0.44069530937451845
Ni 2.1766672674378045 8.699823106048285 10.02825984903054 0.796273734374035 0.7057271943430298 0.28886061195699286
Ni 6.171539791457417 7.264670194374885 2.2774444477514915 0.27636993568914986 -0.5466764387930392 -0.15003132566019967
Ni 4.734870659635048 5.611117256758385 3.2620171636877906 -1.2307665144822675 -0.30105226892717835 -0.7938180737446909
Ni 7.289297285279396 5.214602714769711 3.9099256009824943 -1.0023900759532607 0.3416520447264116 0.10845401643904548
Ni 7.592412666091411 8.481579296726592 5.310029016339481 0.4642671831571875 0.13704134115843497 -1.1079577719834466
Ni 7.808680794612927 1.206203669178664 13.020496421072437 -0.6456284292789204 0.8957620569793605 -0.13963198470374663
Ni 0.16806151699723904 5.886150402568837 13.159146023943531 0.21793467437039243 0.4042296103483168 -0.8150391879069965
Ni 4.596141110610644 5.4926958685171785 7.672472765642329 -0.23793759985488055 0.21874020099082328 0.7110378079226658
Ni 3.2572911514295106 3.6421813389427347 11.087772435020744 1.9643942918903072 -0.5434363345891866 -0.05916622594751101
Ni 3.437629457026909 3.3798936315966692 8.722597651607142 0.9440391468181935 -0.11224150850593571 0.4671851281349309
P 3.4364808053989 7.9286092137900805 11.821097364138097 0.15553965707293857 -0.23573005068060046 0.2563297292088231
P 3.55105191338302 1.4704394896858328 9.930267919184448 0.4046037058582838 -0.060744369067908296 0.88447594254258
P 8.772059509630509 7.028985258733505 3.9732447922461596 -0.19171713543476016 0.07313040143708696 -0.5083898845080148
P 7.966477960662279 8.32111725890026 9.781571749714137 1.1106312050505518 0.17525513322399494 0.5128448349555749
P 1.5149979836395544 8.595709322485558 7.163724851462859 0.8619821323154382 0.4809443867025523 0.70260047578859
P 8.583450912311447 2.864590132845826 0.8041066802778665 -0.06851218593878523 1.5367506734934242 0.8170749873901025
P 4.724569551835064 5.207177830646261 9.900706220886011 -1.5518939568927659 -0.22059422348042654 0.25246330427488134
P 5.394527505781025 7.847128461905641 7.646933185884527 0.6675589108034244 0.7545632420091263 -0.3935191659093481
Ni 0.4836779032071997 1.6240555638092318 2.2431751156208226 0.6384460525978681 -0.8741691612999332 -0.518223582768985
Ni 3.498765291276055 7.423450606217813 6.036697279542197 0.5108835974641459 0.7958497594627391 -0.8904645560258471
Ni 1.7097082184066 4.721445219406879 9.215516227431348 -0.879391328930821 -0.5906212198051054 -0.9990620400212923
Ni 4.7096187022448985 9.307202519300322 13.173710926586683 0.18489754140976544 -1.7238886741979345 0.1320361746343597
Ni 1.9624759010597277 5.696365585982694 7.015028681992547 -0.22331445062506702 -0.5167613964011617 -0.4501387141756054
Ni 7.559147714944272 9.089206818730279 7.5450670838274885 -0.6891731466390905 -0.6207694612537115 1.1346136840080783
Ni 5.171597197817057 4.259880238420804 12.570723957160153 0.09918724642513885 0.613248470286318 -0.3758132639891527
Ni 2.9118318770025766 0.944761369430813 0.9460156970085988 -2.247482005919265 0.9100792449329811 -0.7446714368167111
Ni 4.132820989936971 0.9746079333329964 7.7825025645499535 0.3009088013707785 -1.068282564881012 1.4178608064330356
Ni 6.943865578491534 4.142451285186198 7.8430512080868615 0.010697074702529964 0.6032571634015611 0.25235866037621696
Ni 7.955634689293875 8.870264629218758 2.819493151008894 0.2146395485588884 0.589558839978862 0.01656150390310696
Ni 5.906348292795745 -0.02155973159707596 9.48868580084052 -0.6273489142434422 -0.42347431751054165 -0.517479762624425
Ni 2.6180435474099943 3.6020060996014953 3.294469788403601 0.890580255668105 0.3010746375246815 -1.0093824481106939
Ni 6.8757459423440945 4.245646147446518 1.0728204042916651 -0.12171885186875164 1.101517672785058 0.13104938524105816
Ni 5.391972904560333 6.71579850044711 11.712736326315644 -1.6190344592950052 -1.3526262628042578 -0.2934855123235139
Ni 7.251685836371872 2.888822087590302 5.498534694472673 -0.4599942668134465 0.3133614253118345 0.3020935657074991
Ni 2.9099664667586898 8.511710726232522 2.4729302520977687 1.6167598043282156 -0.9609683184733644 0.8475181343713082
Ni 1.3952349702968336 2.4872351000123403 10.497587877179349 -0.5509735235064963 -0.24554292300596423 -1.0329386381640793
Ni 5.467140667097237 1.502206599110047 11.381209736675808 -0.2678811814918483 0.1144282317446094 1.0068123733906726
Ni 5.586012326776622 7.05718695350438 4.856396164035784 0.8464428990292584 1.7064352546081771 -0.3828616861955019
Ni 4.645670968810387 2.343396348546553 4.76983653411294 -0.5096682369998061 0.2987385331923371 -2.05434793553232
Ni 2.682037226909627 5.0940678075329675 12.750097395390023 0.8814047598164241 1.0127444226043911 1.9537576381120672
Ni 9.219721211311164 3.757992990685105 3.2495225907389607 -1.6321691969047505 1.8894070397501395 -1.240492740631096
Ni 6.6263047548056795 8.546344870120247 11.714564979707436 1.2866602403260938 0.9982207750669195 -0.34917689234854704
P 1.6161528406085306 4.718045210587973 4.855737297461959 -2.9861499168543735 0.38571998157990345 -0.22546517841948263
P 5.487807207188372 3.6502678464039175 2.9496427318327223 0.8012256790626717 0.34545290652974053 0.9212604583607812
P 7.883159366173025 2.19263811967364 10.805160945229341 -1.7758753516778707 0.46497140831306377 0.7891792894210989
P 3.3961769170753238 2.7370714237107894 -0.21043205932992914 0.06104698790999164 0.4769460641764367 -1.0668625446050337
P 1.238843753840165 4.6918835211084415 11.342691312442808 -2.2657622922856913 -0.5022362062017931 -0.06681088697696236
P 4.044714815462176 8.690211189225106 4.299055691385025 -1.4082212264607423 -1.0857506397587882 1.6427909382846548
P 2.65875176110663 2.9516303586098287 6.7749577349747785 -0.6477537031520393 -0.5348827885922207 -0.8515511667901012
P 5.772424702182931 5.282887756751584 5.866333864682427 1.5221061841073722 -1.9993872630257246 0.14138264884626617
Ni 1.9021854744087963 1.3735576167730497 8.409981543449542 -0.2811323900747997 -0.02984587971683892 -1.326966139033992
Ni 8.738574017370793 3.9453610442459173 9.796863519107493 -0.42586878588464727 -0.14410878952817763 1.1032549671911387
Ni 0.3126767569635603 7.220773323758897 6.068679416551174 -0.008138055726102114 0.2389346736608272 0.08842615125389287
Ni 4.84856879238188 3.0278640698575243 6.906627211632787 1.6196489529505527 1.1296470840314223 -0.1393118823601665
Ni 1.2666411232379806 4.5777259277104045 1.1560627283128193 -0.2537624827022791 -1.2598822009013013 1.3856263718793622
Ni 2.7422173830042693 0.8072861479841952 5.788126310477162 0.13384674548053724 0.09371645311855471 -0.42503934800481646
Ni 3.343954619459527 7.63159547042605 8.178370185941732 -0.6911369552336807 0.23693152718786936 2.287917745336808
Ni 1.064836816016352 7.069335093122203 8.931062300428618 -2.092206144030674 0.07497362529341282 -1.9446165950427479
Ni 7.307528683919153 6.485948715076015 7.3760498886757455 -0.25690771319948014 0.7924273640447514 -1.597818230228706
Ni 2.177126728089008 7.636162509299013 13.6123479021564 0.08142966533140168 -0.10632951389687494 -0.6133747114515371
Ni 8.79479362265206 4.960162595346201 5.873690748629499 0.16271226356197785 0.2085115812842796 -0.9338676056018304
Ni 6.368381923646048 6.802250616577572 9.52702963002606 -0.6220853518516577 -0.5596067737014621 -0.668757559097216
Ni 2.588022388460354 6.271876808467251 10.479296748654935 2.9258184669541674 1.0882916610130868 1.4500721010582573
Ni 8.25263924344488 3.966165422532415 12.271650911157428 0.025002435581608553 -0.7202585551899854 -0.020909239348841407
Ni 3.561849238686304 4.718054399800996 5.365292024544943 2.345872467474721 -0.09997966041944717 1.0739878427959053
Ni 7.83690086780985 6.380971145489025 11.331769932763699 -2.578629808680243 -1.2975545186410942 0.8019386459692964
Ni 6.523927732504502 4.449591541302755 10.597503109311377 -0.1300610531858599 -0.4975519133522463 -0.08049198400848073
Ni 2.292285945706669 0.7648724163502919 11.976747011103724 2.1729362121918903 -0.3388690826646357 0.6882220955797308
Ni 9.2732943232415 0.5660573601253936 11.164891067482657 -0.67396404299882 -1.6054659765819512 0.5573398320441563
Ni 5.6472400531560085 0.6229110211053225 6.06750962973321 0.5310734421484595 -0.5988922015646461 0.37047205428189744
Ni 5.821274558618894 0.23291255007201703 3.7268535045104345 1.162293923532166 0.7271416554630639 -0.8430436435397224
Ni 9.401391952797052 1.0617124835881677 6.437554643606046 -0.4672563476924985 -0.4062659240520552 -0.17204382537554885
Ni 8.86426407311404 1.3468170068730023 9.01041391165538 -1.2326596177399223 0.2361882212639416 -0.8079146610470731
Ni 2.248554480925114 6.744992630224584 4.279177585771354 -0.6294312506937676 -0.09621299428816332 -1.536941963568624
P 2.769977995549988 5.969643592105548 1.8035705159196733 0.25830356510574226 1.0182704946289431 0.3972390379630965
P 6.909736841320134 2.02983283252617 7.56085690856675 0.6622688660490788 -1.3298804844673096 -1.6204272258774741
P 0.747560857934244 0.23146708686333065 0.02728553023237475 0.13594348010856586 -0.07432159353171071 0.4327950806908353
P 6.913054147221823 6.375595455869944 13.487538173020857 -1.0253469418597503 -1.735704950106572 -0.02592160496176826
P 8.945662122081263 5.296349953831848 8.217763423254624 0.08775766443195855 1.5801357253472785 -1.4084433697738774
P 6.31875098410304 -0.03215673205643492 1.3516055057798457 -0.4082107064832518 1.584499401632613 -0.8775601892593532
P 2.6861631835574347 1.4071809472281263 3.3159753036438344 -1.3894503736111425 -0.3224384479124382 0.5907299774688278
P 8.394015285820219 1.6261598935917443 4.221667814981506 -0.4025558221903196 -1.5760091047734148 -0.8909252977123495
