# total energy = -340866.9387950522 ev
CRYSTAL
PRIMVEC
9.27250122721398 0.00000000000000 0.00000000000000

0.00000000000000 9.27250122721398 0.00000000000000

0.00000000000000 0.00000000000000 13.57124282481564

PRIMCOORD
 96 1
Ni 6.711019166257466 7.912874420085711 8.234581997607759 -0.3970798866774129 0.14617004293258054 0.6276739016830287
Ni 3.4224431336418615 6.127927195561671 5.227981801765611 0.42253843595983365 -0.7090539447234175 -0.27791671135097945
Ni 7.874903527330808 3.930863651503656 13.39105705122734 -1.7076794114279235 0.6155578351457851 0.31476087676252246
Ni 2.607019370792995 7.814622996488411 9.501607172205057 -0.2627965678800893 -0.2994029062492134 0.9651509890961442
Ni 7.093750929224828 1.1825499061565217 0.6886121080490328 -1.4654604105888696 0.15578236921136399 1.1863905594700535
Ni 1.4126192079964817 7.364934501754711 3.5452564858883586 -0.9758961434277903 -0.5628430212505725 0.5297040726047586
Ni 8.289875777260026 3.561122662834125 2.223417847205264 -0.22109353171434826 -1.1761313436358904 0.2964541080335346
Ni 3.5061923652321614 7.779239131591534 0.2892723680332445 0.765793563507307 -0.5223836276839455 -0.6088076609061451
Ni 3.457465370988691 3.558989987538978 7.6225060424007856 -1.6413866017379604 -0.15696199134176195 -0.5217943308393789
Ni 4.285898453137955 2.149245254940303 11.153308553288817 0.7327700573934348 1.5948864012938921 -0.9793110826466102
Ni 8.859402078578427 5.981124955245282 9.955267079238373 -0.9353534461187375 3.1149020214208227 -1.2383551254628027
Ni 4.082728677520699 8.096581215509428 4.138563971247907 -0.9845170523275817 0.8489152718291509 0.39926403881292527
Ni 9.206610889129665 1.6788605373423937 9.258437680552124 -0.8114460712390993 -1.6178098428592849 0.16935188036568252
Ni 1.3939443904120192 7.106435710980312 1.085779301014156 -0.7848762911703708 -0.22696773110693813 -0.3090805385482935
Ni 7.056252934035371 0.5097631760476089 11.961924445695523 -0.31382808053560796 0.6961336371173236 -0.5656570936606
Ni 5.725667544891788 3.673579558397362 0.7405492422367639 1.5940883308726288 -0.41757697818950024 -0.6328418190372134
Ni 6.6276779247236295 5.510100435058829 8.619150643079331 0.7074578038808913 0.30747642728596725 -0.013749488375608576
Ni 7.061074634702661 5.500401398716551 2.264904872446774 0.42922227573791244 0.7279466678628624 -0.9041695643167653
Ni 3.6860047101169147 2.5280825673687013 0.4825706387843545 0.4599482440668595 0.18265116857774996 -0.10032804489780141
Ni 6.682608222325592 6.4006685483071415 13.356138665894886 -0.276702122217588 -0.6899151670114376 0.0601563577749222
Ni 6.46991558789044 2.0354531191922782 5.730335322037775 -0.28103134572056115 -0.18536188264069367 -3.220542479670473
Ni 9.044759379230563 8.376416031736582 9.47012146684766 0.9094269560609628 0.10873092424951598 -0.3474557958923823
Ni 6.891925666293642 7.5544922454881585 10.817013476747963 1.4659365788943397 -0.000273051155728562 -0.4398571297439392
Ni 5.084464808653876 6.390478069396851 11.328079439225867 -1.9481009540469223 0.6879577861747507 -1.1003105398508342
P 0.6119442856887499 3.9229078454026287 -0.11384777075572419 2.3879400860687325 0.9917251400402467 1.3200264744913655
P 6.237120170673205 8.420089512780683 0.2562112647078223 -0.7099358331077386 1.9171415295509302 0.22111384342932242
P 7.19868782624735 0.22210978673841952 9.72828737482599 0.327534631488423 0.503937505163616 0.4489580636039429
P 4.687917018774474 6.98788678207398 8.911800983330064 0.7622742375001388 -1.029567150588685 0.4759793293877931
P 2.770206120876884 9.030600269771043 6.208463505457326 0.6502222192971898 0.921911975901851 0.019138520601663815
P 2.9780214196370474 4.8222199273610435 10.87148849453692 -0.17708164490977246 -0.7884470392407646 0.7830078705030644
P 1.242199906911659 2.498772190812353 3.9036590599887337 0.9733438093195818 0.7529858702196773 -0.24334128736895508
P 8.103313051441067 0.34343768427934024 6.676848144528439 0.8677234056745894 2.1216049089077655 -0.6085970875572357
Ni 5.010099348362224 6.864293612469562 6.708631497177029 1.5775353116099542 -0.4462964576113797 -0.21501235851727485
Ni 2.4500915590752985 5.480539700967833 13.068754179122909 2.042411074885418 -1.3537495777754236 1.0782900697156848
Ni 2.018725526877298 1.9184805155040996 1.9051179139048104 -0.48509594697708064 0.6815541966412519 3.0393360139590495
Ni -0.06568547184040353 0.031084206051833704 1.9542723704574385 1.3293744913651686 0.3452533889244247 1.2579921829674399
Ni 3.2844404970432755 6.255628083234569 2.354326093072037 -1.6679072737363079 1.278691106077688 1.3358032777096478
Ni 4.174915885278755 8.889686067769516 7.939503189270944 0.4496890282326965 0.815858084263866 -0.5403409834933146
Ni 4.160200425742239 0.731840509031537 12.924627055426738 1.284135159911395 -2.1399957527101274 -1.638530620346404
Ni 1.7345975425560003 0.3637203535863179 8.179768533521964 0.05359953049301092 0.42597317267299545 -0.5943200088129313
Ni 6.606712799322204 2.94719962537153 9.393308993467357 0.3587681355814079 -0.4032772737373764 2.8597241464282557
Ni 7.625352700294743 3.994547190317006 4.666892549364836 0.19727663180040864 0.3128662308429708 0.5638141269145903
Ni -0.5840247843248889 1.9646482993933936 4.93172167676531 0.9888971836731486 -0.9582699457055949 0.19706682978244772
Ni 2.6609667832589343 4.288133125947218 1.5860437267472054 -0.4158139727518065 -1.6618037319417316 -1.1163315978694388
Ni 1.968552022433641 0.5235504582056709 13.845788859409 -0.9948330895416093 -1.2189512670148943 -2.1568534476974146
Ni 4.80882116300675 4.6112612506658595 2.538554930318002 0.23858654629278908 -0.5266619433443253 0.9970671210784505
Ni 1.5455126963879982 7.266701623159977 12.174748749648897 -0.9311676901721639 2.8354745298522714 -0.8794391514496208
Ni 2.2692499665481045 0.5681419168768127 11.154557559211671 -0.7527994652404842 0.47716512216577817 -0.7592763312140794
Ni 8.730922300797737 2.807481576035543 11.215560417904035 0.3956269562809703 -1.2032636810763084 1.3234995206416302
Ni 1.5059283884098107 4.928900054624817 9.222053312766786 1.7422908308542058 0.08400668202995855 -0.35716196743655265
Ni 5.757360954277932 3.4549525231409306 7.444898698321189 -0.7792538027772709 1.2563731593067782 -1.3216604105503624
Ni 8.598612979987065 8.40843397866764 13.585900120692243 -0.6427631919159833 -0.03235064841656364 -3.3070888974031494
Ni 7.941164821500902 7.69119673190709 6.189844322880563 -1.0976299076948774 -3.666599567577537 0.5811384771256508
Ni 4.816211346529499 -0.08300743148763992 10.474814598640066 1.533832728515681 -0.07412541836050461 -1.7158979426829737
Ni 3.062475361324874 3.9113821263075508 4.152664663949343 -0.730524970113 -0.3072455422220838 0.268896253019924
Ni 4.744785269144637 4.3464849765227 12.248535605860475 -0.9185176055083213 -0.25585587489619804 0.024538094350680318
P 4.479749364965547 5.66247544864645 0.5271370617020315 0.21226436345849253 -0.33440873290043693 -0.005693193730035357
P 9.621332781524233 0.6836299931095435 12.035548105884516 -0.8662861590074307 0.5038457167807581 0.809819848489586
P 7.789309067985142 5.215494524287459 6.658947580801128 0.16506842249898024 -0.3797583646798298 -0.21360005155078052
P 4.720129688232479 1.7788459186796617 8.981190819433126 -1.7126650375679728 0.7214078383030802 -0.4077823606965816
P 3.5228457775368756 8.220990365226772 11.68211188347145 -0.9559991473935472 -2.238324764900029 1.6610470562813648
P 4.879180902744039 4.1714850598039535 5.547870114535884 -1.5287226609826252 -1.3624622750580728 1.3020194963909832
P 8.613244987012031 7.0621038823451014 1.5930871187219608 -0.12747349496434174 -1.5192694859895255 2.247858158311761
P 0.9290582660750762 6.782037253585865 8.211280201882955 -0.22282825501726786 0.9641474875322942 -0.0266638824444315
Ni 8.223744298107897 6.382067910732944 4.202552575353477 1.0060850083063446 -0.45762910901537956 -0.3010602393469783
Ni 0.8473026222606748 5.004943837648737 2.562725559413045 -0.9095979344211883 1.156433350986331 1.2695467205742585
Ni 8.674350770468639 4.009188469843256 9.019869204035938 -0.7661113518580418 -0.3964404533212011 -0.4909498346546964
Ni 4.620403936931142 0.2790104908630735 1.578552472960469 -0.22506948564296078 1.1681997474936399 0.9201093754754734
Ni 5.897885711225562 5.468235091764962 4.376915471234065 0.09902243871250042 2.276309985894551 0.17183479468853632
Ni 8.39864221731253 8.84051399346445 4.151823648082953 -0.706253499160145 0.43879012193200556 0.002482400102221531
Ni 4.512258754464616 4.652848418921228 9.296220341530978 -0.009360872389609686 0.7471296685492165 1.4006619260562458
Ni 3.7176703019992083 1.4673455105702138 4.097741784348406 0.35413783589824815 0.5506307954550969 -1.1897018832314736
Ni -0.12645651800068541 2.066451090982178 0.48186871043721263 1.9159331110651263 -1.5863271988699712 -0.4409912433483824
Ni 0.723693689404075 5.074914132332131 11.641005030782551 -0.09736921937979359 -1.4454076057030527 -0.44027647666954495
Ni 1.6380244416909677 0.34440666066343967 4.395427092795942 0.45178550575040904 1.4562620319190533 -2.053017903866987
Ni 2.038559407122167 2.189886628064781 6.144868982656294 -0.8875373550767232 -0.32582896165122593 -1.221737828621096
Ni 5.940835937169568 8.82540908887404 5.7419389301436325 -0.5238429858382914 0.06342885787860689 1.554015374111143
Ni 1.0228310715525675 4.675371324538238 6.662448877285682 -0.9515537100276837 0.23917224359293 1.6233176600513912
Ni 7.950270417761052 2.7405248442692054 7.211799143061863 2.4902003149922405 0.6261816334082183 -0.032433695048673175
Ni 2.183618417197305 3.066295631853573 12.216914521984341 0.08553648841092365 -0.5198220376043564 1.4961712094091653
Ni 5.18269768724861 7.381207741506812 2.164695096578452 2.0136913383532224 -0.4686547707019219 -1.4946524587717938
Ni 2.0793398677658934 2.783734700249143 10.025497931207825 0.07957898527590812 -0.6162913708776998 -1.975016290380528
Ni 4.3304806393078135 1.6065628448369058 6.327890540235181 -0.6638439238456825 -0.7592691321252278 1.0762373009517143
Ni 7.353557142680166 4.689725156524707 11.224883917944341 -1.7270326191435548 0.9510618579929299 -0.7463673364618952
Ni 3.009881734046289 6.178592142573341 7.689357994902622 -0.4969718724790602 -0.302443235737434 -0.10227128466710128
Ni 0.788238643586639 8.173014443587245 5.756093403352511 0.7786958733912718 -1.6048838788262358 2.3587536943127634
Ni 5.980132797607975 0.42331657383401217 3.7243696841763554 0.15029306396201858 2.1338659856633058 -2.141142721830377
Ni 6.406519496616871 1.083946127510458 7.817714448416245 -0.30027630999310223 -1.2903651999815067 1.1395494307467988
P 6.416580160509195 7.596765578838488 3.8493333294704377 0.4760739459841285 -0.14287568845202492 1.1563893851222729
P 1.006761826828698 2.905056107039166 7.87564996368411 0.9182864633341218 -0.8241686610120903 1.1771772684019017
P 4.920693890989143 2.3982860944057895 2.380070265634848 -0.4739846675552676 -0.8744393842421843 0.2853063189468312
P 8.491422865152714 6.562380970686994 12.05860603482557 0.049830036148249664 0.5788291122661838 -0.11018462597690702
P 1.445471680043031 5.600442415061518 4.904525430501542 -0.955059152077781 0.4541825452276758 -2.733098858396822
P 6.314341561360098 2.8465280789393015 12.08648102818327 0.8178674013844108 -0.7556526184185631 0.18023278894424444
P 7.835588121889835 1.4658804553674607 2.9681934955269327 -0.2961080375480255 -0.044944168810858075 -0.4415427449764782
P 2.4039515926898543 8.717041366376714 2.195175662796746 1.0019259918326486 0.9412965510760498 0.1053866903676314
