# total energy = -381175.616456658 ev
CRYSTAL
PRIMVEC
9.14094773149174 0.00000000000000 0.00000000000000
0.00000000000000 9.14094773149174 0.00000000000000
0.00000000000000 0.00000000000000 13.37870098620199
PRIMCOORD
 96 1
Ni 1.0388504388988014 3.5889006548251583 9.92765162094411 -0.2007782171957639 -0.8935863894842804 1.8325226678582698
Ni 8.470998621898048 2.2418265960718173 13.500849041493396 0.2247678952421419 -1.3459293104000563 -0.7956972930452749
Ni 9.029556239004474 1.2629956206198831 2.1565927421327427 0.09730956978645176 -0.6244566802973116 0.5571901938401694
Ni 7.8946618612637245 8.691761652922306 0.10311629017744006 0.1551341941044038 0.7605240875782515 0.4682210255986129
Ni 4.7449746086862845 6.038071370507893 8.862171772829132 0.6227342982895663 -0.5549854728793668 -0.9079220893806621
Ni 1.4195709159871361 3.631927096257446 0.8167857369036573 0.21852217144274624 -0.6460076669952101 0.03700305958691046
Ni 7.433254237686585 8.42905995325744 4.489758431198792 -1.08400717470512 -0.18499190089578463 -0.41433841664754445
Ni 8.602518579265322 0.8482251128675856 11.364738421161658 -0.8801554607903552 -1.1815406875769199 0.013032664814242069
Ni 2.778043736683554 7.69792124113474 8.208676271568095 -0.6214639162175749 -0.7992595564752364 1.0517346878246596
Ni 1.4980550940490915 5.458169640220163 4.227977224980332 -0.8399632048421857 0.9008312439721518 -1.7689408293415663
Ni 3.07421044635131 7.836360896008757 0.3482070397544693 -1.7095462894333333 0.19635334865519088 -0.20445000962039628
Ni 6.723596752962626 5.792874585936044 4.424282735992645 -0.03794665444710239 1.1809159095087274 -0.2578284252415366
Ni 3.583964542997362 9.34186586253869 4.749278166924296 -0.5067873159075852 -0.6600340631812891 -1.2086180034096865
Ni 2.353062790205982 1.6630492023670855 2.852486701710197 0.562821681094334 -0.5539225788324912 -0.27526873220517106
Ni 0.41064336980739036 6.635121518923299 7.822486765393519 -0.36656372036642676 1.92096296017955 0.9112105303239468
Ni 5.3805995569411325 1.7850077283049621 10.959591503283995 0.3664400503043689 -0.9763152332430798 -0.6208627922984663
Ni 6.1284296398000455 5.5560600505236195 6.716804114630709 -0.593309565270546 -0.8744100736661458 0.3275968521849261
Ni 5.403707873053481 8.274367693143013 8.29336349682698 0.15823982961292102 0.05720730244892728 -0.87563443299155
Ni 6.251018891138141 7.154702134485797 10.359529412558851 -1.6438525467799499 -1.057463876998953 0.6257517449596514
Ni 7.804888612632644 4.583444919595576 10.269691263198181 -0.4057614736118109 0.9422123780220999 -0.062436412058350536
Ni 6.689857514524858 6.412676553498458 2.0272209075053427 -0.8143347056408039 0.29999837374136723 -0.27556569462029956
Ni 4.461468111762041 2.3469474961082124 1.618515418637754 -0.9623420588924394 0.19086301496458097 -0.25068050134284575
Ni 0.6130998246140066 5.922612058476614 10.399117029417773 0.9107598159397733 0.835465059861516 -0.3660047625391632
Ni 6.70328556688603 3.355477411057386 12.018822599462897 0.6946737647423455 0.05903072881091123 0.23682302663446314
P 5.513755743969843 3.8614105915108112 0.40544582687167785 0.4755363283131036 0.4234740604002255 0.240853745060411
Ni 5.659563002794237 3.6076853026142706 9.511828076001882 0.10457499309961345 0.6934067251044639 -0.07952422077857271
P 7.881873675250603 2.460788860373714 10.121160916015453 -0.07606737257822384 0.5223090656922682 0.25958526003164323
Ni 5.105246785480582 7.527817342980195 5.721789091047086 -0.0721199578947016 0.7312852453177922 -0.09733116705300658
P 7.023419841762084 5.918498631953451 8.619228231897194 0.6302876851567919 0.5207946859302708 0.12230146384509902
P 7.140643356724408 0.7561419467200524 6.7206698214677 1.8877995860537036 0.012569352024578352 1.5440909159085794
P 1.2537724042601681 6.439770322864361 12.502716954699997 0.9866919484917136 0.1814977716995971 -0.34663227154982235
Ni 4.538681698075731 3.826583580281362 7.390246992244738 -0.6281009619181184 0.6767089527338087 -0.06044277866708945
Ni 1.0224332965974652 9.078094671977802 0.2057124604233957 -1.2997314716877553 -0.1418287352447493 1.251148420572729
Ni 4.190740659903092 6.534763052705944 1.7844245358334558 1.2107242511194116 0.2946749046459248 1.242546280726015
Ni 8.99139278181735 6.838452762437175 5.108068596075473 -0.2817060031900826 -0.07860530850872914 0.2950019489680403
Ni 7.900621759248398 4.131882096830541 1.2602432812284954 -0.8519340040508167 0.0109788676090069 0.36790609332693414
Ni 1.7349427570441502 6.062852480072995 1.3686147023129724 0.6686351745867388 0.05732351631181741 0.33922672311437063
Ni 4.1094867746488735 8.516849616209575 10.219040357181516 0.35410878243252564 -0.2730275015794782 -0.1837883675059867
Ni 6.903545451929277 5.626207684165298 12.937578351686206 -2.7381078815756394 -0.5237239437619239 -0.36763021395772816
Ni 4.7400019330671705 1.7377033232885843 8.472972152534384 -2.8936431677732037 -0.9419406124179519 -0.9090104373488344
Ni 0.7661348308869904 3.3021216985780435 3.3043648871753417 -0.9481112600050381 0.6695795407778791 0.12636149284708562
Ni -0.04115985988555472 4.353476954107261 12.508109199824471 0.19040433016060757 -0.005827919535686737 -1.5512830627816445
Ni 8.958494510579872 5.734235405611394 2.7381654376836604 0.02808853070610001 -1.7373792524852014 1.1972015340426283
Ni 2.5767052197964553 5.079112815636752 8.493949713707734 -0.9898623757998952 -0.26634931822835417 -0.09026886088958647
Ni 3.0583966066067045 6.177187455521275 10.396227575808949 -0.8825890099325121 1.0097966528299769 1.0743367414948914
Ni 1.3793416045905993 1.9349466955481784 5.266538809927729 0.35845446099573103 -0.8979950600749372 -1.1154425103962662
Ni 3.9238432651846002 2.8427250835233386 12.546652920441295 1.29713774281865 -1.6095640579107249 1.0098035948085127
Ni 8.767265881991925 6.231219598139982 0.5121444545034016 0.1041211933916465 1.4123573601163033 -0.2780074712925728
Ni 7.305728874520694 7.5668583311589295 6.841599990774786 -0.35083705365978934 -0.21399651565825079 0.4714295052335817
Ni 2.0471609711000727 7.628331205310647 5.685747247851128 -0.13751725235358897 0.8908427653008723 -0.03260364496763417
Ni 2.4716391654470358 4.176672741193874 11.772240047200134 -1.7525371911725622 1.7115620343117812 -1.349667694396566
Ni 6.71890744672622 2.345475803507703 2.6318443311972843 0.22690756729296402 0.7939476573440198 0.05957631690173611
Ni 2.147693115326183 8.717904763713966 11.655631718026719 -0.9737551858253876 -1.5302630088865516 -1.5763034960853821
Ni 1.3590212775661727 1.9262079494234137 12.079334759997762 1.1369541592157968 0.67183285558843 0.5543344695589293
Ni 3.5879408553030867 5.018618022902764 0.2795548651776571 0.6546620002360983 -0.6520014226847998 -0.987934562649563
Ni 5.703796049339986 1.0329271047054462 5.332710131263682 -0.34526393044738607 -0.3787993432006702 -0.9252958047724192
P 4.709443744473982 4.722826092096007 4.9757259534035665 0.20904842762435608 0.35751497990059716 0.08299392449472803
Ni 6.729245858721104 0.20783407441456503 2.1773838279703757 -0.42134775808584213 -1.5996234017582451 1.081671841703724
P 6.494670855526846 8.726122475812463 11.791412271177206 -0.4376495805696592 1.0206557070316682 0.2939161721030293
Ni 6.916260510359765 3.1811412540578967 7.437835680738607 -0.2654082944713235 -0.48339387668430944 1.1650987399708128
P 3.396693944819482 3.1905381484263677 9.743092227892385 0.12306148193957515 0.39573494261374426 -0.018492916597864926
P 0.8557270887510525 8.351581279456703 9.653990838926754 1.1755325337096272 -0.19997114791343623 -0.026702191881534658
P 1.3506938740937244 5.535876837716631 6.32641342883381 -1.3507529570409447 -1.0536522165623465 0.4482281274164538
Ni 0.3659130556997299 1.3308762991999066 9.08136895949024 -1.720310984149005 -0.3659908785820923 -0.49039756169565213
Ni 9.144787027340023 8.867103314183012 6.608301977992275 -0.48329437499196765 0.7309779984900185 -0.7520163072175564
Ni 1.8888671775409203 0.6690277998125004 7.240352815645886 0.8972224435749709 0.15887772030723604 0.5280179431515873
Ni 2.7097334335555554 3.9736340080105346 5.1871496780306785 -0.1384366788440648 -2.408305537098962 -0.04990099859550116
Ni 2.1138259036188054 7.964919186279355 2.846572508464671 -0.5144479177766366 0.29627644480508974 0.17834457078259608
Ni 6.368891413396343 3.373311400272256 5.2024955012464265 0.9019296192426532 -0.09255817114439543 0.11556671622442678
Ni 8.263115186365203 4.528434695559139 5.939929584139132 1.3683657850267013 0.3892110254522974 -0.8923486604224374
Ni 4.151206060541579 9.099411362315616 1.9464140145999747 0.8237865950823232 0.3228441679912892 1.7514940946200286
Ni 5.0882903272573206 5.189471478779308 11.160098193918634 0.30026319736697965 -1.9727380358693123 0.38060091518578326
Ni 8.176449859996069 7.132617604530325 11.708717772545098 1.141511696679492 0.48436318257611427 -0.2388117749297177
Ni 3.4079373106494617 5.76163996720349 6.421749858313773 2.0568537326733094 1.4908210008408453 1.12554360338601
Ni 3.7350369877714056 2.1147308574539014 6.105276533043335 -0.32870165521333067 -0.8459734155920076 1.0105121908397627
Ni 5.678530469539934 8.148990452716996 0.45316157454037187 -0.5239897958288008 -1.2039632782464942 -0.5323947320630444
Ni 7.90316294274493 8.174384005786658 9.278610503560268 1.324030710554752 -0.22556725121498572 -0.7781073478776535
Ni 4.645109753651709 2.7162052246186654 3.9723771276840125 -2.9494222224160365 -1.8644310865310925 -0.40306592905751876
Ni 5.451204237974274 4.378870507176923 2.746366696076065 0.792740524409796 1.6396138261082538 -1.4929141359244482
Ni 1.9613274709833988 2.8891885213394253 7.920230920531709 1.3426483256559392 -0.4349738335097089 -0.9346170821733452
Ni 6.152771983869344 1.4448822005263344 0.21262393107709293 0.14894940544993057 0.32914414206738796 -0.8530822587226469
Ni 9.001950576560134 2.359333480416849 6.913350032570932 -0.4122185420910642 -1.408624118326116 -0.38698573566620453
Ni 6.683303454931285 1.027543086434017 9.060498347406492 2.1758497862942594 0.09003463339159333 -0.45846471754279755
Ni 3.0794939141966178 4.267807991051514 2.4748723186942416 -0.7040006985702263 0.03790397413462505 1.2337893604689911
Ni 9.191040223356035 4.380067971342554 8.072146160695608 -0.6554829534754969 0.39310804651385844 -0.08704084087059204
Ni 7.975001651735019 1.6011741265108803 4.566244398065273 1.301618661408139 0.3948044603796749 0.24673642909343313
Ni 4.230348386847241 0.41849818627706636 12.313127298057834 0.06292723565184001 -0.5144900838684817 1.151918493835113
Ni 2.452781390075289 1.1621344022719196 9.8767191737343 1.3133470055886607 0.3271595075371914 0.18275221293198848
P 7.748123326612991 4.112850643450038 3.4903694640788707 0.44537086047331687 -0.981937978746496 0.5308204455973891
Ni 8.530497051318648 7.768251693733003 2.2876510816346394 1.3844891729511255 3.2334489033194957 0.3478165216659107
P 2.808044327459158 0.9707046728317296 0.5590411732465947 0.15746284223758042 1.611338633312644 0.04374963428212465
Ni 3.5356089289806207 6.436049957097855 4.059271891843663 1.1150128790580152 -0.3396591826660989 -0.17053484493019017
P 3.8773706864206843 -0.08388465003947734 7.003817079142253 0.633254995315232 0.8520702725183648 -1.2817458337436118
P 5.206345668472107 7.746477956003726 3.5012864980713463 1.091286996195985 0.8139564963657788 -0.3810017501686277
P 0.5692077354222885 -0.10042976561042298 3.9314649874846306 -0.5442899408387335 0.5388191475321495 0.47686018933084967
Ni 4.332900680543616 6.950667037989069 12.173908834428765 0.7253930482030733 1.0620723223052417 -0.1291825072356485
