# total energy = -340867.23806830094 ev
CRYSTAL
PRIMVEC
9.23112485725863 0.00000000000000 0.00000000000000

0.00000000000000 9.23112485725863 0.00000000000000

0.00000000000000 0.00000000000000 13.51068432499680

PRIMCOORD
 96 1
Ni 5.978676519580763 4.487591373934724 9.300187578396248 -1.1420511141227299 1.868691918689975 0.563183692419443
Ni 3.550770661699767 4.077987899103079 4.586106862164932 1.1403192190332878 -0.7729995943374429 -0.2727500795483754
Ni 7.324657612651333 2.0196962829118665 12.39793063054077 -2.664707000085985 0.05401913452893277 -1.4289391757343841
Ni 1.9727006259577538 1.556829217307243 7.389412107721401 -0.8155464665607179 0.10034758528182718 1.1242737355346508
Ni 8.195401932728062 8.698839792344339 9.176510812978881 -0.9237078914600092 -1.4422726596184967 -0.2317697804812718
Ni 4.352059997898525 8.0678277863706 7.457478730411805 -0.9169322632990724 -0.011783880008805512 0.6671786446458703
Ni 6.552234004069058 0.8869301745067705 9.861961531927575 -0.7942345924568193 1.7202227953105726 1.2164837793110082
Ni 0.462447972533377 7.110098576197896 1.019530668381718 0.3926974413390011 0.5056454889936582 -1.251218354578716
Ni 1.6338167991177526 2.541227147366105 4.36449155382469 0.24644100934020136 -0.6456551687517977 -1.1917788203651605
Ni 9.270172575727559 1.8766784645677155 5.969912489584251 -0.018420411488716665 -1.3552637004271046 -1.3162060723040105
Ni 8.636363538903868 3.687437466100797 6.940748974027069 -1.428572793533901 1.8947235668670466 -0.2589036605835864
Ni 9.147509387826114 2.0408817145971327 13.588505735628138 -0.21317273420537478 0.3401145250359626 0.5456148302977442
Ni 8.464747695565837 4.555375524202658 9.09448765252597 -0.6889666870552392 0.8270644945026465 -0.06565646165754499
Ni 3.036929324301662 9.118634429084715 11.560903917337072 -0.20929422508657503 -1.9403709323925162 -2.9549104992241175
Ni 4.122408072205258 6.3348502433909175 3.4230672795934614 0.33020780744521194 0.21262174679791124 -0.1293352307634289
Ni 5.672563186197274 1.6927944562145563 2.663644787344749 -2.5417311358816805 -1.7707328882449827 0.6872952128900873
Ni 0.9981615373105971 6.154390982382087 5.616567182448766 -1.5541470145930008 0.12170676768389363 0.2229483255348999
Ni 8.244142272291551 7.3695393419993795 2.8960014326387933 -0.012045361200308288 0.5199379943569303 0.2527021597585648
Ni 7.467998520367591 4.375110116817091 12.257568606835335 -0.48808434018144325 -0.26721989375876565 -0.24551129843708042
Ni 0.9383069233466471 0.244319260074409 9.936500096297516 1.2254677279771735 -0.8087631250902974 -0.6409140545223865
Ni 2.587890483823194 3.7154077746002985 0.008919112895121602 1.833846785986332 -2.739526873410353 -0.18673433750818808
Ni 6.183709035119518 5.897064144186672 2.030426542515768 2.1941935789087696 -0.6412418701754504 0.4300244599242336
Ni 5.9438013296431 4.907330623925596 4.34180698745285 0.5328467319987985 0.809979771106218 0.3156746468260434
Ni 7.142139810785939 -0.0700374678602537 4.170396998200475 0.12018518883304462 1.2584817210093489 -0.21840955712428192
P 2.3760453980954512 3.4401910163151035 11.22067788493409 0.7244057445891394 0.8695056943859928 -0.11779843376842292
P 8.083566854354643 4.971754644723622 0.9923911611247758 -0.8111051429599128 0.1664241651959263 -1.257474619901073
P 6.436780324728045 0.26128791389743994 7.886105707473079 -0.8695663724205991 0.38914520521136853 -1.3012131984396043
P 7.591067877765399 2.234384555114147 3.439955622629712 1.9614802035673058 0.328762333247937 0.14469602949021532
P 4.038423297707414 1.7587231503741076 4.555654304175162 -0.15627344991516956 -0.06878780819767508 -0.40385088685265935
P 5.684988280335996 6.3762241452703785 11.537678407045076 0.5204015642569102 -0.5216853160653402 1.6391733961367252
P 3.8085959806407175 3.4329722766297537 7.5314366570244475 -1.0583809894965837 0.6480717486130902 -0.015361055837102578
P 1.8305505333558312 1.8200639754497474 0.9067300143419458 0.44811011378135085 0.8542274280706837 -0.6123840654034938
Ni 2.4138191612571545 4.977801031544471 2.269768380034754 1.830431589657196 0.3328599003560783 -1.7018396648176948
Ni 0.8711080263984716 5.202375838533209 10.705758352145642 0.20554864200121373 -1.5337273132860683 0.2134236738739163
Ni 7.908932433168645 0.7588584705162638 1.9650074064516532 0.9519704858501282 -1.623421275508791 -0.9110778614008246
Ni 8.458267445873874 4.162434229846789 4.155143487387083 -0.2915674693651946 -1.505590445840536 1.6148582164301284
Ni 0.651129396506071 7.538053527365188 7.994744970400119 0.9609022411221192 0.74812828501706 -0.7920815506695584
Ni 3.816802450692221 8.731517974551679 4.130473306045526 0.8881603333727026 0.34688346832868 1.0494662035054572
Ni 5.693010127889154 8.356060430789226 2.2842104749679124 -1.1500642142351936 1.2888130250030385 0.4727690499806116
Ni 8.279571329724252 6.5208481793501445 12.4709968304864 -0.045610855860579516 1.2307405463403385 0.3548425752747566
Ni 1.7613817143502981 7.217678105984429 3.221338583662617 -0.9575472086069573 0.6853851403515681 0.6732199657439438
Ni 3.7864043563394625 1.8234425671694894 12.395796394459884 0.649002745067792 1.2115292635192103 0.06721840682802617
Ni 2.1094782038577917 0.49573725521024264 5.4522236193206055 -0.12041581678661196 -0.2675551656109973 -1.5196451241613893
Ni 4.245745132225667 1.4339629446576172 7.839561452527422 1.5943117597373446 -1.0556854449422914 0.19162380439000548
Ni 4.565769770859569 0.48796187869237784 0.7536539622878746 0.2736450805588191 1.1330543099407582 0.15928626859956438
Ni 1.4984423522051482 1.5406470553271683 11.96872393883469 1.3184647864312002 -0.9617378496495372 2.0656312217556234
Ni 5.551755454404211 0.3433184592502852 5.914532201867731 -0.3627258346775753 0.18414935038983124 -0.10490486563520643
Ni 6.934762589518183 8.470581766513588 11.571658177865759 -2.736763708842919 -1.5880012441382845 -0.47390727735011284
Ni 3.31144451709314 2.8071943184841386 2.505083600864802 -2.5771869055861294 -3.499803877974805 -0.33702765858052275
Ni 4.411536135740865 7.383810661121567 10.044829193427336 1.122856286361834 0.8636242959045513 -0.5850321557531022
Ni 0.38477359502901853 3.018430149967338 2.2171029661564186 -0.3220077881329228 -0.4875289818986056 0.24774173042949588
Ni 7.226576910404732 6.493708672093203 9.898170619415792 -0.2829820416890288 0.46267078520434507 1.3192543722120311
Ni 8.50874323692182 1.835904585807881 8.691234268524953 1.2078672412865907 -0.27795682056029547 -0.14459087137091872
Ni 1.179673146560003 3.41191608069333 8.683762596016868 1.676054585433791 -0.23641447834213475 0.1440609670093777
Ni 3.604228106096009 5.311792362178289 8.7908621073077 0.19940936187269528 -0.651178155452556 -0.777678487870351
Ni 1.7283435182711837 3.9445796817978653 6.245922201499846 0.2850926602741284 -0.373536295029518 1.5434391412571933
P 2.506721202425136 5.711638537972319 0.13308143548314025 -1.4734400863602366 3.477670279300559 0.03043260545824436
P 7.318389678832469 3.108036679539834 10.182246488284145 -0.29514361675222717 -1.3905333222626763 1.5142527495012243
P 5.080885003496265 9.658710623497862 11.371564314157773 -0.11440714869868683 -0.1415338297121498 0.08059174281113862
P 1.116458403126146 5.450517707435884 8.074728052246302 0.5144456037837913 -0.18769670142145742 -0.3322078685943763
P 7.577359657263168 5.291262340362153 5.7656304645012755 0.17999393346056097 -0.10896155220308332 0.7902596669694713
P 8.957126667531156 0.1423125604004675 7.143774643008798 0.40841125252983207 0.29850661968718917 0.7564046660932393
P 7.938868971275538 8.88648086853885 13.469476841606644 0.33997157170019515 -0.4373289640054468 2.0286574727447513
P 1.4626625120255878 4.683512769180077 4.07498409105498 0.21236000849609232 -0.22723486872539575 1.9113187522215662
Ni 7.712614099551847 6.545412202755153 7.6086504013954315 1.2593438118993279 -0.8685204476545881 -0.4806440818533141
Ni 5.410648478917946 4.6245720365829435 6.707162742894036 0.2767057217620138 -0.8575904310056457 0.32560964655156827
Ni 5.071866194452036 3.815897800450323 11.887524194724403 1.7096666170612813 0.6348071702937004 0.5694880373709159
Ni 4.986321359843164 3.9982863665668753 2.5082314144616102 1.3365211297122788 1.198290139121117 -1.351259464363718
Ni 7.039138918958401 2.976363913719078 1.4717727092064978 1.0281291325905777 2.0306683325271933 -2.3448373413419876
Ni 4.066938242577038 7.734445709981325 13.116497087017883 0.4780290128279703 -1.9546205003329953 -0.5594694767926494
Ni 8.307153930977227 7.902027551730485 5.739311604249483 0.6529673861424948 -0.30191333137589293 -0.6253925618480196
Ni 6.293033247515425 7.464924555770121 0.363465389382352 0.7928559669417378 -0.2723638998535503 -2.2640239694383464
Ni 8.778596711630048 0.3611640699404623 11.71591204383634 1.5967571359540436 0.2722708259191118 -0.5281562685016645
Ni 0.271386764556996 2.841183320429737 10.824084757560925 -2.356850820863096 0.7244317127310684 -0.7680275950441482
Ni 2.321609454457972 9.066829356048673 0.1960183220569858 -1.4188442533922274 0.32523272282812377 1.7155647277132713
Ni 1.8341414409486716 0.6086209893742708 2.5930516057644724 0.03400489619053498 -0.6716749898543272 1.5034934541021914
Ni 1.6264595925586425 7.188240048623072 12.290642804301626 0.09559490108819022 -0.38588504640285803 0.00608451563118307
Ni 0.18825956156397222 5.388743019489129 2.5408329783321353 -0.5528100624946028 1.1765478623480188 -0.8082625313047951
Ni 3.6926622828040045 5.46765990640736 11.318184411210835 -1.7604929556845292 0.2520390722532692 0.3950893386099454
Ni 6.462941332743751 2.7279820355685533 7.988057020397517 -0.45891388926507415 -1.5006942940904993 -1.0162226109609789
Ni 4.729899171889648 2.6140514918388997 10.007850230121015 0.7926381945039769 -0.17596810013061953 -0.3780920327210005
Ni 2.129278966805459 6.86109821267791 9.888469630240172 0.31298244470586095 2.01554638928409 -1.1347982892150588
Ni 3.3225587914936026 5.729057670691316 6.17825990208082 0.9286678065684457 1.6254797006997168 0.5133875948329222
Ni 2.714043036943389 1.7213740189586015 9.792611782873662 -0.6408495198330382 1.0171083560000418 0.5064566720410438
Ni 5.885100606293816 6.845894549939072 6.027278392270491 -0.33777533537982474 0.864471217285879 -1.8500858735530135
Ni 4.554350869336835 5.482826644646528 0.45896599221456114 0.40318959911957664 -1.1312609654857613 -0.560876384442505
Ni 6.224021357633487 2.5122044906260284 4.890326891827878 -1.2195737310902417 0.6373366215837732 1.9034408921353867
Ni 0.5495934842029133 4.598226406068892 12.953652658576297 -0.7524050580155429 0.0735713456292475 0.7869776537840898
P 6.255397951227482 7.131431705881839 3.8183486641158737 0.0626986645808017 -0.5572778684579692 1.8271359496250597
P 5.680418873501918 6.386258378055514 8.117583549674993 -1.5799536912434595 0.1921359681397336 1.7255334088902088
P 0.05040563449857379 7.147530787737659 10.637150785535082 -0.5882524624626128 2.00554068422163 -0.5323250551673736
P 0.20258626743566413 9.047490149346872 3.8575837143519895 -0.46029714276584593 -0.5169352029748646 0.3629238096209943
P 2.821890269352523 9.151312611292052 8.731239194579175 -0.006009439418873521 -1.9668684644624128 -0.141316314384705
P 2.351592148189451 7.723349897830698 6.1023034369235765 0.8725161990775424 -0.007910255986012185 -0.04503390031118695
P 5.067961428612008 2.9296267282626496 0.2878624763094417 0.4496468621408515 -0.26084047259498305 1.9359920865985303
P 3.368889807453668 8.172970299178958 2.1599669184806216 0.5974120174746936 0.17286683549747647 -1.9452426586625209
