# total energy = -381175.96389514464 ev
CRYSTAL
PRIMVEC
9.17969801946125 0.00000000000000 0.00000000000000

0.00000000000000 9.17969801946125 0.00000000000000

0.00000000000000 0.00000000000000 13.43541594957858

PRIMCOORD
 96 1
Ni 8.861538739563809 0.9278471437970122 11.54154603034749 -0.5385322124193499 -0.02196056343149121 -0.2296920720166367
Ni 8.986355091756296 4.880478179499778 8.664083437978134 0.21523141650661642 1.39214026173848 0.029012842292582292
Ni 7.846108098210826 3.195204983209243 10.549165610393002 1.6204331394147446 -2.2548911538991425 -0.15732348844623872
Ni 4.134021865983237 2.3473405471163677 5.394265870329636 -0.5885784783434637 -1.2237741423248343 1.5092720084571811
Ni 5.972761251576856 8.35482859580613 1.8181070966190032 1.1943003012354336 0.5385208995654404 1.249328593755171
Ni 4.233281939253619 7.815897712459154 11.005727982554571 0.645667767157288 1.8629046225842367 1.7772262092788105
Ni 0.9917929192896117 5.422704574388791 6.5771195136556635 -1.6396994438435244 -0.4413306289656722 -0.03429594506839255
Ni 4.0163656781439245 0.7147689143745789 9.485457101903833 -1.0347767198140825 -0.9816908957326963 -0.09926669351282259
Ni 7.256844931340176 1.9788858332602153 7.906405861762461 0.27170415478236437 0.5579306715506197 0.33868910544334574
Ni 7.364522787574485 0.13217479802006074 -0.054935902014852385 0.11721736445397234 -0.15759885359481243 0.14941143268801363
Ni 0.9127401149815986 6.674549155167041 1.4735425465181606 0.08687937559206327 0.4780300412692348 -0.18633658784913715
Ni 0.7853204004678782 3.6575588267687835 5.008427562581675 0.03881157355055897 -0.022938611074044366 -0.24211924203639593
Ni 0.9729194604304694 4.234759870613697 0.9903544606304543 2.257890602847098 0.14607208390213552 1.4516577003778224
Ni 2.5174587083895306 0.540347310731199 7.217679750298089 0.29591546192124524 -0.04945234109385677 0.5552438687470761
Ni 7.749087871225284 3.8550049486565703 6.55986902538324 1.0466076510107396 0.854660144732728 -0.10186530747793424
Ni 2.4846412884374716 4.408513192250781 3.191287088150351 -1.0198182987320372 0.4221250025714988 0.36414096985754707
Ni 3.9089723925441655 0.22078366783019787 2.5696847635876425 -0.17770925119144235 -0.08343358313530794 0.9399809175884198
Ni 3.1707227289401123 4.3235000101036425 5.910790029100112 -0.39962784991024725 1.2692721267566334 0.4971135402632471
Ni 8.114522464476059 7.136691865675141 10.149690861431397 -1.0316451161636362 0.26057873429316414 -3.4758090577221044
Ni 5.441119048353499 3.647865065798329 7.201302251294881 -1.063938171869387 -1.4764012258710897 -0.38734080501277807
Ni 6.9221347869228405 8.72432979522159 6.743893510987976 1.1484004533795253 -0.48166969490435113 -0.039501400528731974
Ni 5.401407675287035 1.4347041627209114 1.0649863224352754 -0.7385326709088248 -0.679606585996578 -0.7760620353128506
Ni 6.116992664803918 6.121554974654596 1.0417258859551293 -1.0733268121731387 1.28434136238493 1.6171369851619761
Ni 1.6134420603115522 8.874785043617186 11.388221208391892 1.1814923508374877 0.8998434261375858 -1.2344511624227064
P 6.623528394301713 0.5913699075361037 10.86546219881542 0.17577655294510372 -1.0365970608522728 -0.1611994264618772
Ni 4.504872480988337 3.194929592272582 13.204232579982909 0.4344673261869357 0.31019254066554963 -1.1423727591282067
P 7.180405587021073 8.751868888887655 4.341023135403359 0.5966591984690691 -0.5102819593244051 0.25031926134868504
Ni 5.188576379737808 3.8587961638845982 1.928908804044832 0.8966457451358945 0.22394488512021435 0.5766534447711036
P 1.0914568992670957 1.3540880558624546 5.628928323397741 1.2261806948837979 1.5921430342207998 -1.0457154782137732
P 4.374245380032309 4.230803420823673 9.308338503020757 0.4780035589066735 1.1653118844228834 -0.17605294653494197
P 4.333092794397322 2.3100158955009626 3.322981787970833 0.8387169911399104 0.6910806480744486 -0.9990080468549053
Ni 2.2435916015784176 4.9748087550039335 8.56777830945812 0.950228306348041 0.7002060074144845 0.9953169711565631
Ni 6.4162049174856985 1.8193885824442642 3.1450562936433415 -0.4446681779793374 -1.9464456778316865 0.7156344261544126
Ni 1.887960925672762 6.626493436719759 4.714057600536178 -1.807344111710113 -1.0483557440500977 -1.3533019487150435
Ni 3.898599333929949 1.083268608750386 11.96775756737969 2.1608335153910847 -1.1771896096970758 -1.5946020372842538
Ni 3.007994224467343 0.5135306592889751 0.38910169034738923 -0.08838655626520907 -0.30562111924478336 0.8932801710977712
Ni 4.886711194366196 8.35636160535354 13.281083174767424 -0.4528874805653362 -0.36799891015105657 -0.11459612478104136
Ni 3.6012780990132383 3.0109225480938346 10.886985836455025 -1.415402317590214 0.9268621208182748 -1.0005977599395284
Ni 5.91095434569232 5.390382858122721 5.951754430928381 0.5953834170804391 1.6715235303326568 -0.65200605067049
Ni 7.910182389473867 1.564808020897284 5.539623632487641 0.05111404506699584 -0.5109365621892685 -0.9306478131129521
Ni 1.8055639574239002 1.6381262679342339 9.765827106699293 -0.7236133305948312 -0.30819093685448856 -0.2618275190986007
Ni 5.901168787742979 8.22581712167851 8.947422157070795 0.524895852582838 -0.03978653586931857 0.44144607149761395
Ni 7.562216761305266 2.318470397256444 1.2588551160558403 0.930619530978178 0.9297877791055019 -0.9921563140403946
Ni 8.064300337327047 0.2448262145704602 9.235074416201352 0.35638138051678625 -0.6051973178470673 0.916041376053687
Ni 3.1071441413630603 2.613496707700983 1.447424470085266 -1.2299075089160818 0.3649588377731521 0.767459124135188
Ni 0.8825508425350709 6.266098497609875 10.557173060861304 1.7490001245535811 -0.0995366593447576 0.008393109159701673
Ni 4.4236596937671155 5.834579259258438 7.706971417311983 -0.007342299297684129 -0.4447124009537115 0.9170780448483173
Ni 5.990266935450583 6.88351579790513 3.6754592376517246 1.624370526795938 0.09403886945497998 1.0437637538040412
Ni 8.589681986590318 2.549706987072491 3.4130796047785155 1.285857284808824 0.5283084778088127 -0.3645598025625205
Ni 4.657246286242666 4.880000835209565 4.044274713634903 0.03954382373089319 -0.6548648602755238 -0.5846729726414704
Ni 6.207183196560276 3.187521576076411 4.915655699779018 0.11853145527970556 -0.12354433511326465 0.7052206870202564
Ni 3.776610328687176 6.988026658367842 3.3166395346995388 -0.9730098230189308 0.9543266447871308 -1.520726530151026
Ni 5.267576859767855 1.2067906235405697 7.276231535311296 -1.0414261068097999 -0.7557027549302082 -0.0524438196220129
Ni 1.486147189689118 3.178929378852599 7.327286261058811 -1.479519202674781 -1.0792228659425995 -0.8024425821889083
Ni 1.418713128998817 8.525791289285051 2.9857123437821307 1.5882709528599035 0.06128687183493961 -0.7805568378594105
Ni 9.609491343836206 8.616293930769626 5.050332883443535 -1.3353381651477712 -0.5289301705532117 0.9889185238293873
P 6.3838740215217396 4.363174664378551 13.389238375291947 0.3981214405680498 -1.1695169236431664 -0.6512820280202719
Ni 5.214958831469896 -0.019568361989315868 5.122278765646126 1.360611337892263 1.0811370522461767 -1.589171610297302
P 0.548378628414012 5.2787669114941655 12.710131669245131 -0.178374395579267 1.0597686138727298 -2.0530135329916126
Ni 2.0307235872376355 2.251017977170366 12.451030106487972 -1.247064994531975 -0.5492326295559896 0.8592688471493329
P 7.949581652812115 7.575527323243863 1.0750390095931774 0.502374017331238 0.03008627786241915 0.004562679670017948
P 2.9569183854146837 7.719061079431386 1.2265242200918818 -0.11758297532350717 -0.5425338773795753 0.462952321000506
P 9.261856184791597 2.8037092276524835 8.94038224675996 -0.14957341218717465 -0.7805002735898622 0.21614647212171806
Ni 1.2747938254999691 3.898470818159507 10.886448824128538 -0.9449616586324628 -0.2535107717027892 -0.7255226318024021
Ni 7.965168779827107 6.335992717334344 5.527316411528277 1.1629205013725714 0.6546265190124727 -0.12829907618943068
Ni 2.3136326964691056 2.003202852967349 3.779127401848254 -2.177985087469707 -0.7822946464861237 -0.027075001839921113
Ni 2.3635335341920127 7.144246757037531 6.9150609117298165 0.18121495035185564 0.9143537039386188 0.9444659499429668
Ni 3.035377263269299 8.852460018351897 4.965904448051906 -1.612429552383978 0.019302042762721596 -0.09170996421148722
Ni 4.527739108429058 8.079483557634937 6.976218812973622 0.45134996087488716 0.12545929274779039 -0.5567309948155638
Ni 4.9396046136008165 6.028280064407639 12.531602150796562 -0.20560032117475557 -0.6970430363054705 -0.13398764193377571
Ni 5.565999658431208 2.2044401900831643 9.71171003373611 1.345261080688438 -0.14075632811617694 -0.4381728000629808
Ni 8.392208325608864 0.2026822215634943 2.645124438806668 -0.5790918790092672 -0.4202792076120117 -0.5487256080125841
Ni 0.1177782778212316 0.9854405683506398 7.437899784677922 0.6247906665979628 -0.2351150428044209 0.7122174300530637
Ni 8.928146627444129 7.6651854325226765 12.206156157488492 -0.2992067310780073 -0.6399743163169365 1.9891429595898968
Ni -0.039974830395868945 7.66173386611653 7.497808329039076 -0.07224748461150139 -0.5225178392689647 0.7941751999737936
Ni 0.8095942755949354 9.372471544350285 0.5998390968082071 -1.5404571758107342 0.09833569705812098 -0.36763484194341844
Ni 7.772385944466774 5.214775237512123 11.49242638491491 0.4922628970391651 0.8431146059869737 1.4802607088264959
Ni 7.301136973653095 4.704999074659621 3.6465597127585574 0.11670597203519255 0.6808913662462726 -0.1246915613438304
Ni 6.553983003097014 2.1027291374765027 12.366843097150815 -0.12794837771823125 0.10516249017196727 0.4878475415802888
Ni 5.738825830581534 6.009011878539283 10.115524943859489 -0.06557830012144189 0.3217851305991555 -1.1392203295421541
Ni 8.885369235282843 2.8662413296702254 12.759265084224543 0.15365632400729665 1.030706920620083 0.5991495689910908
Ni 2.184924152371814 7.073214254774864 12.571182254183219 0.5382159667305119 -0.7566252667444776 1.6745576891732903
Ni 8.163450254222765 5.197269553638394 1.3532150665932403 -0.697085973728264 -0.2080688373199062 -0.5485631142927907
Ni 6.794261595333419 4.150839072515313 8.863814386670414 -0.6883768759900404 1.8657960851994189 -0.1114948601478983
Ni 5.708147280237539 3.92293471303286 11.216650818912738 -0.08180736038579459 1.8306323928140924 0.6610792166163518
Ni 3.553809881230833 7.722218895505095 8.99587076658771 -2.695687250517583 -1.023197499616915 -0.7774519736818417
Ni 3.351819808888146 5.809261652481436 10.856931505567463 -0.6216562347340391 -1.6764531064237902 -2.0884016826829193
Ni 3.470412325912104 5.534669349537117 1.30580009105859 0.2087545505330211 0.5348984723215047 -0.26605698379891596
P 0.8669104732723246 2.266706080862134 1.4937626670575734 -0.7719472418135286 -2.6362950246021954 0.4874603334441992
Ni 6.541259941823292 7.663239336570275 11.603254713464619 -0.6574727302120161 1.1328378230545781 1.1651182803548386
P 0.12849924698543014 5.448371009685562 3.2476485972473164 1.216622875992034 -0.5979493780354025 0.9927055016756452
Ni 2.7327042644834836 4.559776254060579 12.709311922223671 -0.5543738074372969 0.38245005257938003 -0.0914446263652425
P 3.9624441327457727 6.505495838848964 5.425046315320195 0.3491691790390632 0.15857201614135918 0.7126792001808306
P 1.2903901322128497 8.562418283860916 9.182824493788727 0.02961139510852965 -0.01763365392136318 -0.4879226177925985
P 7.078455862269305 6.493167504584457 7.894945926918223 0.268134435153235 0.03273477122885975 -0.0837984226738944
Ni 3.541417289081105 2.6479848326687834 8.036192102391885 0.2497309929453828 -0.015680129739418156 0.5823934325786745
