# total energy = -340858.5511613548 ev
CRYSTAL
PRIMVEC
9.36041326437227 0.00000000000000 0.00000000000000

0.00000000000000 9.36041326437227 0.00000000000000

0.00000000000000 0.00000000000000 13.69991097748347

PRIMCOORD
 96 1
Ni 2.936838927772268 4.334077131275984 4.352858799887637 0.751533454043867 -0.7241046684089529 -1.940087853934459
Ni 4.295549671517414 3.720857757198397 6.396912771678234 0.3401818879387883 -0.9924908145616778 -1.238943136755789
Ni 5.150323862536115 2.793025542998058 8.441707152134258 -0.1751576884141822 -1.1078431007824534 1.4259988621591377
Ni 2.786145639469743 5.519788722626119 6.205114165886937 1.0606546160221089 1.6344194263915077 1.5977243849633191
Ni 8.76450099318728 3.210556123656637 6.365813735647653 0.030661433639598806 -0.6603197127425079 -1.3493715033123856
Ni 4.434954301785725 2.6712559307533503 1.4744662906606811 0.843878737846508 -0.6180142671060777 -0.5159173032333114
Ni 9.008901375669357 8.740510254761329 7.874393115313224 -0.20501848052935662 -0.19464716459736156 -0.6865614200478563
Ni 7.143651884393854 0.5789041001526806 10.842862750572412 -0.8281387014034318 -1.249840500394583 2.4384126408969875
Ni 5.150848045662081 4.439971483134265 12.004902793578658 -1.806893654436256 0.4033736901059246 0.44115013752375
Ni 5.142124140779917 6.750748550242757 0.053586492134561105 0.2104699905622311 1.1560749392056477 -0.09113455132399143
Ni 2.2644617437641292 5.943169561387008 8.57332204673418 0.9093261688170404 0.2758821974194539 0.9221045515286312
Ni 2.3992329696154098 0.8426327993634907 9.02936417444929 0.6380704144260043 1.0209521552261644 -0.9586093313228844
Ni 2.8497309247321225 8.795343553902654 6.614343932329312 3.1022501369847664 -2.2977956665721524 1.4283658197294176
Ni 9.008629923693409 6.384587915928937 4.38587578453448 0.030475799991353966 0.13189630662238577 1.1556818175322872
Ni 2.5644161771857354 7.1817113235042385 0.5145915108030213 -0.7368822797895954 -0.5413316295413579 -1.0142348911069887
Ni 1.1295959156327844 2.9737657569140445 12.93766139312179 1.354812214711983 -3.0940398332598327 -0.7911402698022116
Ni 4.3764985228274496 7.733320459454785 11.707299695893532 -4.6328952118010855 2.908693891458739 -2.358840597599615
Ni 5.023602591833612 0.8183837135397425 5.218912288527589 -1.4449676899521569 1.926161987881986 0.4810649714408166
Ni 0.3038521093796887 1.7907499644974532 8.251141312730281 -0.4259757437761567 1.0503198097550042 0.4366339948209512
Ni 5.645761160291527 1.6763001951903542 12.8286238145903 -0.01881404738270953 0.12912362897325502 0.15554557061020954
Ni 8.048064345359029 -0.06888608712372057 3.499491478937381 -0.8902750657228603 -0.5273803095675885 -1.0951850456988106
Ni 1.5754136642676497 7.815355118668608 11.090104954430265 1.782530137990227 -0.02775351596418446 -1.0550850923541313
Ni 6.618186381850909 2.412243943634946 6.7080107767331185 -1.7932022729920924 -0.16700394895879625 3.574203633042619
Ni 3.9585373631725402 0.3330856151066045 2.0573700952727485 1.3630721407279298 0.06196101508382877 0.364048924364373
P 3.6702179230648073 1.6128927577742844 7.252623003993302 0.09403681257245095 -0.49389837576005907 -1.0264633148523805
P 7.993670985626998 0.7036568760089184 6.508950362564589 0.00012238451047720859 1.5541197608994912 -1.0670972863236592
P 1.1999581398808798 4.225215528508211 5.801747762125022 -0.3984168603212816 -0.07784426197298852 0.3562872781410832
P 6.262228597667516 4.721074044846989 0.04359986754359492 -0.26639302698209605 -0.21771278816757345 2.9320297379712024
P 6.355888889782248 4.114987305447738 5.295371885780236 -0.2744534353927274 1.3875205035782814 0.11514402686471137
P 3.908468514229736 7.4476593766287404 5.045745584740528 0.17751153335833944 -1.60851504782092 0.9602694926341269
P 6.094742728508121 8.261135425651618 2.1339663545546648 1.0992371042809972 1.7797070667191348 0.327838535882087
P 8.011886349254349 7.720243962544502 5.920772901288775 -0.7790108335285294 -0.18160807202521628 -0.09277337247899506
Ni 0.5058048911540008 8.543623328482969 5.05578743576798 -0.059240530828872165 0.31903070778246995 -0.9419305851156229
Ni 7.635607108526772 3.5889882593658617 8.603777086352858 -0.39148259509529354 0.3764053890471969 -0.7310731293069861
Ni 1.4564896175639046 0.9217619863933828 6.448588803526905 -1.9621988269008852 2.7188906852172403 -0.10606340471968184
Ni 0.13618745633268758 0.13959464665147256 10.206268553241884 0.3151408858097605 -0.5139079861127666 -0.7185621413241688
Ni 3.3460106596542674 5.7205789411103405 11.388434420161373 -1.0547613904661255 -0.2258888962204626 -1.5689948782391108
Ni 9.136624210558974 6.680648417557646 9.326446833173634 0.5527879510074157 -0.32369880268210055 0.7824555975440202
Ni 7.618393309086538 6.329773337613539 13.686826724877601 1.0477235097827375 0.33916630219008037 -0.5156072281920605
Ni 1.75892456042089 8.628924771821122 2.1916162019567658 -1.147797529688204 0.4744824331272925 -0.22151030753679274
Ni 4.204753665769574 7.336289183186698 2.2155910276806776 -0.9670533483251799 -0.18657775732566578 1.5762466747055177
Ni 6.484753695053437 6.200899171929386 2.1015390759245363 -0.056539329847625205 0.31626651477377143 -1.3166881541467519
Ni 5.1054032407233425 5.618793810543122 3.8830755859418242 -0.46707559914026014 -0.36594768404898265 1.3534140488128756
Ni 9.280362712029474 1.8791029024617703 1.00103157961773 -0.6242270807850089 -0.09601296246221529 0.6785652892162571
Ni 5.496893152516922 0.16699819164398602 7.497111374357237 -0.158433690791282 1.597455961793281 1.1623949678864047
Ni 8.67218860053932 2.361426261655046 10.549081509500361 -0.22539884395792145 -0.13171658651141188 1.5558110325589851
Ni 3.7642432712851233 8.260171303116357 9.422168288222972 -3.708694182754742 1.8948066134991564 -0.5952741451960845
Ni 0.2342518227468382 4.718846266561631 7.832539900828656 1.099470817558358 0.6050582211660418 0.816772111437703
Ni 6.269305069868069 2.8100146925271647 10.83164242355283 -1.320813489169035 -1.789820243893737 -3.6651574358143715
Ni 2.2420716359549706 3.3214208547986406 7.922315621563453 0.7430588409139526 0.18289310938522696 -0.022728037725135052
Ni 8.435997300226404 8.510861883110037 0.8503907096278012 -0.2774518558994189 0.31217460409258496 0.17379011864269422
Ni 6.6367668015838435 5.276183975245957 10.187760208688772 0.36258159579022714 0.25852288020539993 -0.6747677698470379
Ni 7.587625631674872 4.989343480386488 3.5249733311484484 -0.12240713618502791 -2.368839617793856 0.7841476405344625
Ni 5.556940201679025 7.372916479113636 9.58010091991162 3.9761755577050093 -2.0075492300112265 -0.5343315440744411
Ni 7.773645118502383 6.102661637875407 7.327588679336944 -0.43720375128149214 0.5449658838598357 -0.12110667220604948
Ni 6.981417206907093 2.789262656986653 2.575007484454156 -0.4560285972974791 0.3897422153654191 -1.0178058962876988
P 1.4219309729019427 1.6575700088500005 2.6979780376821068 0.47385225574246137 -0.5141738381796436 0.0622824029789895
P 1.6331674122536477 8.277375742143628 8.578295234141791 0.4724358350109089 -2.1795591168250463 0.2728426392621817
P 8.675904684485907 4.387085149889389 10.271918745604056 -1.0216944327088278 2.780895409054811 -1.283195678816261
P 3.441964252945105 8.843605843143466 13.17423085411844 -0.7939039485902779 1.4711767442473564 1.787285393287025
P 3.663113369625363 2.804651175898967 12.776002381032296 -0.9899436226597917 0.37726130928958895 2.1047510705752206
P -0.127588044942941 7.519865602230684 2.6321088116565847 0.14840973089637666 0.9619183410914595 0.14873266145343417
P 4.8011523777514 1.113318157488919 10.54401284588052 2.0338279612020975 -1.156689175750879 -1.0894622842824206
P 2.8484485481560964 5.523888583504219 2.4122664086260586 -1.8412523344217837 0.5503556874168393 1.1744259309090097
Ni 6.133026817529633 8.735811327453554 12.616781756519844 1.216185531344299 0.2015552045711045 2.0084547725446313
Ni 0.16351611802149146 4.766181874919035 -0.06768046593399665 -2.0126515842347983 1.7748415110967177 0.7069363841597825
Ni 1.1217050875043897 4.505325886446784 11.243173915542975 1.0090075812697785 0.7204521592580303 -0.3884898310155567
Ni 5.163484603163069 7.459659426048198 6.88616377250594 -0.23753162266571354 -1.6128506990817966 -0.4683097286576774
Ni 4.361297212174409 5.059415531832709 1.249806083077741 1.8769523589265547 -1.8131506910895612 -0.6618767728169827
Ni 2.671415057773733 2.0383048061482945 4.61666425448475 -1.717012001682759 -0.5404628537831595 1.3579121937935452
Ni 5.661074795900132 5.099010078669138 7.7627533419778265 0.17283006872227008 0.32409783789273217 0.14199431428833612
Ni 2.8806951708160256 0.9528245168134045 11.386859062659584 -0.7860212034080915 -1.2778228445401218 2.1670841242864873
Ni 7.369191034754086 3.9879009786396518 12.128174752104039 4.004566707253193 0.34638467431539055 2.0577032251577982
Ni 5.770928602442056 8.283085594051482 4.410562937684928 1.3108872311942585 -1.6327456382335106 -0.9159866115563515
Ni 3.808330816344127 3.042330781873111 10.633569532951968 -1.6992613625675574 0.5435587190996639 -1.0376404145151226
Ni 7.077455043914604 2.1803677936982937 4.718618808526613 1.3121072196442887 -1.6212065272456595 -3.0901219862626648
Ni 7.428639017486512 1.228919257590552 8.815768911030734 -0.8068975326364684 -0.7063694559127189 -2.4951669149688964
Ni 0.18287626015430186 1.4697533227334605 4.480747314086713 -0.6320936280172792 -0.33366028477018667 0.5999237281529539
Ni 6.331065074602528 0.9023213447090845 1.3847869821794085 0.5205432320410971 -0.5008676079890406 -0.6466131617896929
Ni 8.256502021234589 7.8040758210473555 11.903523904934064 0.110380544037797 0.2495348177741767 -1.1513471947126752
Ni 2.39682734348374 1.3620149695213313 0.7219855006331296 -0.3455200123222501 -0.445721044723884 -1.4731158702515983
Ni 0.6652305087103577 3.578467155194669 3.751651643766361 -0.9032930752490831 1.255098920580045 -0.5539508609672654
Ni 1.9453184637669485 6.565328129844923 4.033869966704358 0.7838205962123468 1.0562050648911874 0.08717968044130148
Ni 2.2112103544136685 3.63759688388633 1.677485223471558 -1.0919639676583515 -0.6410408099082379 0.6928665363302776
Ni 2.824991353269077 9.005934124759865 4.234395285501707 -0.24251030682722755 0.8300433746253124 -0.569751832555264
Ni 0.5717555527723067 0.19741485356951288 12.561680749567758 -0.2789857760454421 0.7379037790755744 0.907753939233914
Ni 2.4103625006292435 4.9178392857568225 13.429583855809335 1.4659082967595656 0.2488606745252875 -0.8051666659882907
Ni 1.0513615840822217 7.019794900058242 6.697461591323034 -0.6909986298836035 -0.5529954390325315 0.9162424363208994
P 4.067427047179204 4.563800386230986 9.124332116255049 -1.1189348398202406 1.6344345959001594 -0.3127759851220097
P 7.982363606766853 1.5535477395844584 12.968129537318617 -0.5470284228158192 -0.6857733769289222 -0.4577255253839278
P 1.3570258694116817 2.1695190750733713 10.455360374701366 0.7821596635701562 0.3877454966503645 -0.40686807641242834
P 7.587588190023017 8.204373881439771 9.443923760033192 -0.6085952877850228 0.38609433420018663 0.7924921558444158
P 5.862201989251047 6.562173670676158 11.775922755412973 4.315898760839825 -1.9189796112009339 -0.887841002360071
P 4.3803082109036735 2.250552170100079 3.6141050554713448 2.421718468070758 -0.19863648826241273 -1.6538279128251065
P 0.6627322144903476 6.7205892996737315 12.54406258028749 -0.22571894630150158 -1.4145116874551447 1.8559022231244746
P 8.603586133928399 3.991757468780694 1.7792347844695153 0.38785965363072555 -0.04916412042947662 0.543412937550419
