# total energy = -381161.9380918265 ev
CRYSTAL
PRIMVEC
9.30772517800153 0.00000000000000 0.00000000000000

0.00000000000000 9.30772517800153 0.00000000000000

0.00000000000000 0.00000000000000 13.62279663728981

PRIMCOORD
 96 1
Ni 0.1265781014060789 3.808348123291104 11.162418177691757 -0.41772790194506765 -1.388675443118331 -0.21688617850122002
Ni 3.708955850332873 0.16191143628498264 6.7216703271575735 0.03555732827931941 0.9738024941235552 0.06670007243071092
Ni 5.62449558510647 6.594975150420551 4.262939457512297 1.5397328960501997 -0.6711815951576763 0.03876915034839775
Ni 9.285853288890744 1.1844651722003137 10.779015200903057 -0.4789690081437364 0.0350842452976428 -0.5685398145250338
Ni 7.842042843583249 8.764662013607415 8.794709163143535 -0.6010483286757003 -0.830570450773376 -0.010878594585716748
Ni 6.534967018791886 3.7071669392760485 6.502216834014932 1.5777417711938053 -0.4552804062775449 0.17924805643347197
Ni 1.1669788007705157 5.472157164482118 9.757513269760926 -1.1856343980303194 1.0235687669134048 0.4144698000190862
Ni 1.2952933634851562 2.0048635292706427 0.5507279763765323 -2.6907149941139723 -0.6777512779553941 -0.4977799702026524
Ni 8.45618256560965 6.563552131595178 9.737649800811642 -0.7238946092806758 0.3284962240707439 0.017584802961298746
Ni 7.424233768536723 1.6228326753606084 5.238601245275283 -1.0822423694952137 -1.2787921504319268 1.3183107773518392
Ni 8.930908983547917 0.9367525039757288 2.149282974509942 -0.33179880608141565 -0.655595053573329 0.1644608708219684
Ni 4.192795412031823 0.04096231679069199 0.40426392755762675 -0.46925280929723706 1.0702165486789312 0.7301483034998716
Ni 1.011165584323745 2.745641295272566 9.001208505067885 -1.6686634351760423 0.23513741140192407 -0.053112820664579494
Ni 2.504391185316091 5.184030092015659 1.5932959742674047 1.0389833016962622 -2.396775939192808 -2.1982626067718205
Ni 8.965254202633654 5.831868777300985 12.019875091717779 -0.3887947638504852 0.8995325797653864 0.13559689540242453
Ni 3.9334969690570185 2.8701813493175714 1.4884011607548049 -0.29673975759475346 0.39593317466747935 -0.6164343242134673
Ni 0.9902606132303816 7.752709683059727 12.011622685790197 1.213180683079704 1.1323493134539335 -0.653379791089565
Ni 1.2951435070615478 8.530370861322252 1.448427896359928 0.20868255964450513 0.600579873679714 -2.416031187877994
Ni 2.1883158898466766 2.759278229820925 6.854337282375389 -0.12345177539945835 -0.6147124564263543 -0.8413217757526091
Ni 3.200624129400435 3.023812281595546 8.977260511972624 1.4209998662826495 0.48056694875847555 1.064223821430606
Ni 5.589831921120567 8.232343898871168 2.7042434582507626 -1.2215413963395738 1.1245622133093471 -1.4512535229608683
Ni 2.956892022427947 7.601036250315137 8.213416095966787 -0.018803248749432133 1.3789654149194188 -1.3392431566291323
Ni 4.391308343180495 4.346435710336273 7.283593514980297 0.5989235690232136 0.49716059145109864 1.8490533185234412
Ni 3.697885207038807 9.130770622509065 3.8902156241109873 0.47748753850220343 1.3839713527744422 -0.23103855874220208
P 9.53246076599122 8.675516173613405 4.229532714279408 -0.7058539497288812 0.6472729068608789 -1.082566842714168
Ni 6.5926992059869995 1.4968221551589462 3.0767200285531175 1.8405015722986884 0.7196368624455864 1.3190227158171994
P 8.904862063919493 5.608807490759972 6.198417589446983 0.9477603044235227 -1.4089115676595478 2.1071871908205386
Ni 2.192652360104843 1.1339167273119257 2.32809259576206 1.6078923266352567 -0.40537683657888246 1.183855965973658
P 9.175015731579427 3.8038336985299033 0.9990937127994457 1.100288428363647 0.42303414464932954 -0.2980934434091705
P 6.647209480074532 7.474257715942482 1.0905295462667215 0.13189013597479865 0.6067188966979165 -1.2107008540806439
P 8.933793719702377 1.1458677770946908 8.475652661446963 0.8609228378129883 0.9967855852822898 -0.035996472699267035
Ni 3.6438619663280005 7.102829204002737 1.6681417650385897 0.9465243751338925 1.0710272175056845 -0.0986581133945462
Ni 7.391827316931419 4.160707405326687 12.710215868546374 -0.6505479780677248 2.9237284171943583 -4.774995198429351
Ni 7.256385208068908 5.187158344858482 2.7417759361461185 -0.7535476562604183 -0.15737491050946445 2.622392041367858
Ni 0.5306106881097602 1.6185430352348196 4.486245197344321 -1.313583547079499 -2.1457647939834206 2.1032971117375134
Ni 3.2621401912916586 4.362320491238757 5.493216675012327 -1.0045264055699732 0.1108176315752156 -3.169834411792644
Ni 3.292504849125298 0.34992224194665267 9.268050345766074 0.5012028798412723 0.6464946339339576 0.1704577118353516
Ni 5.063283278693239 1.8901109728925571 11.898270350370202 0.33906782893900317 0.35224678952312244 0.23681916997972116
Ni 3.4788887759881706 -0.030111775118800678 11.67168837447704 0.15847302866964966 1.1866754377003241 0.716958801392791
Ni 1.4020379672266714 0.37684675825583347 7.633013737907862 0.03079744499683083 0.7516211286616669 -0.38717933973424934
Ni 5.8829698177514285 0.9230837249373532 9.727519506575717 -0.7054752262332237 -0.6349421532096678 0.4004156359188652
Ni 1.8259349594822856 9.061462026590208 5.4422495687404835 0.10273614011866176 -0.6792959967346945 -0.23166487947229134
Ni 3.0898989644068235 2.2510308031267665 13.069958389252609 1.4764233373582767 0.021292333719873005 -0.6879816974341506
Ni 7.987384842430386 3.1921010453077105 4.0120254814383784 0.03198658020892556 2.485111073394791 -1.0824544855060196
Ni 1.8480106838850894 5.451167899150474 7.604473582031654 -0.7779068018310732 -1.5259633530699332 -2.2991259553478014
Ni 8.738755584376126 6.623822511965156 4.500021685687165 -0.9794632919537583 0.06726314402303255 -0.03813537341914078
Ni 0.9164600710138647 8.4076852805194 9.39480921148313 0.15925027315530638 0.1625795946388555 2.8179588895660115
Ni 6.977221422939523 1.5473612340208585 7.7291082329440615 -0.2961512320811351 -0.9786821908133596 -1.4087938111347607
Ni 5.525702737842672 8.529968122183805 7.866792568544813 0.008831996469333176 -0.14823386744014472 -0.00012778382711590896
Ni 0.6197996118255585 3.0286170531774883 2.851413705465922 0.8871720013175044 1.4488608543589756 -2.7886089756489847
Ni 7.1716226684654405 8.708475220780764 4.124473995303486 1.8325656052810633 -0.02053745783171947 0.8766669880211225
Ni 7.0339795433811805 2.7197910622001276 10.831846146443528 0.8398094528731408 0.15529180272819063 0.11790127789487438
Ni 0.715660892802518 5.5942714176699635 2.738307696542233 -3.0775436353770225 -1.9774287564767625 0.07428714074934947
Ni 8.10461002979801 8.315991881324049 11.237044803443412 0.18658109975977544 0.10020103240163387 0.08519376035952425
Ni 0.7032565273383377 4.058336735949241 4.895885224098897 0.291838206528078 0.6230328033665915 1.1867456288166272
Ni 4.772374496363551 2.337722744184191 5.350748173087879 -0.7112314119907105 0.11417626363480336 0.07993893971848813
P 7.016034236654082 4.8892999708839575 10.11888641567655 2.8825871670693584 -1.5654051040053234 0.4435289221685716
Ni 4.750130183484188 4.8062607801519865 2.533755551522145 0.6494390612742621 0.6222632721904187 0.8371833281042034
P 0.13869680306275578 0.45193325590743944 12.835220477504565 0.5912665666985882 -1.0988321555330947 0.2647179532725183
Ni 3.3298846607891033 5.676270979463151 9.14241540322608 2.830948359847144 -1.623015041209308 1.0552311310136924
P 4.62042944885117 1.9377934136794355 7.815181079651453 0.21876514069148775 -0.9529346495356105 -0.35939831296623914
P 4.753314632485865 1.211148981629074 2.448422620906319 -2.3781706653867944 -1.7639762862474395 -0.9726169584558861
P 5.0392968848894295 4.239672374541807 13.210836539881514 0.6832449540801137 -1.766050909388281 -0.23251308640519958
Ni 3.4401134263795123 7.262070386139549 10.835807975642675 -1.2678053124031197 -1.1799327196598517 0.2848723167332062
Ni 4.987999157883 4.599805458552073 10.674436022482682 -1.2603802235836423 -0.5216961146986177 1.1620650953508116
Ni 1.8168124496951281 7.41556082802039 3.2278802030468494 0.7723146524552763 2.3281434256260742 1.5379398087055192
Ni 8.676902345531783 7.92175709491641 0.06866608650263617 -1.4001420489970338 1.3139131625047757 -0.22712559684104108
Ni 6.4990108431523606 6.311203280265209 11.543023522372216 1.3510689456194667 0.43513144213349575 0.7918344676557588
Ni 8.836415142436385 4.884176754401848 8.19249707583371 -0.5815840493035016 -0.9152615604648688 -0.423810874914354
Ni 5.0632551806138135 7.479483958715822 12.835261688021056 1.46483743229289 0.9857475823005734 0.6167713958379121
Ni 8.839468467067404 2.7829555447510423 6.647029652366203 0.9766404777929826 0.145479187513143 0.7932259486866468
Ni 3.7653955258743643 7.256432038201286 5.287936789735091 -0.5829189660648413 0.99138755419517 0.42429449941899183
Ni 8.09429803464846 2.0203081069287774 12.838058383526647 0.39332093385561295 -1.1089674441948836 0.4126664282617602
Ni 5.808697227800545 0.12889712956141794 5.7271182005961085 -0.33506462131688103 -0.7831526236110448 0.19828656112216173
Ni 8.645947628030184 9.17731040806593 6.09374194095391 0.02465456532388657 0.22410275085431727 1.1620897779411599
Ni 0.9682410849864312 6.278085010647767 0.16119212545166262 0.7637675342162136 -0.15477243988961087 0.8706030412152296
Ni 7.114536737097139 3.3599308737225755 0.7943626766736752 -1.9384937699744613 -2.029234942514776 5.133144212369522
Ni 3.5628271052617912 5.736494529700753 13.020362469256781 -1.2669203386950052 -1.5110825793033589 -0.408255186567942
Ni 0.48085367245855387 7.446159636515918 7.461031949956398 -0.5721362736270406 -1.1004799755491628 -1.374327144816459
Ni 5.942472183950415 5.945769025269799 8.690376311219467 -0.04727050295118956 -0.011586162175702627 -1.2504035719869047
Ni 7.3339733713921245 7.149715532539196 6.790937712559939 -0.26287832896061825 -0.28287868334194505 -0.10805009613240746
Ni 6.385644458692652 0.6998604061383138 0.9505149432788599 1.098215090774386 0.11786039735460992 0.45779108851454064
Ni 6.103221296349786 3.369568514965887 8.83335245177889 -0.9222806720951794 0.3022110651219698 -0.17990703017370951
Ni 1.7643627014322092 6.237867292961878 5.295038111008831 -1.7571019277251094 0.04128780300519341 0.9085761780248932
Ni 2.5751327832857025 4.359566879454953 11.007653019607595 0.6571228030717651 -0.713291636953849 1.1752700240768597
Ni 2.1396687483328196 1.9619577619862802 11.030148341996501 0.3317723237188544 -0.1260179934647378 -0.45843772095960406
Ni 1.5762554256978414 4.030688225793503 13.213660396863885 -0.8010906961467043 0.7733358946309391 -0.169098883814612
Ni 8.660689753702655 7.617351868435495 2.5389780478848953 -0.49550428679459824 0.45295484346816184 -2.460413827758427
P 4.786479732235686 6.583136492955492 6.978039077050836 0.01717265512454462 0.20025191237864867 0.3669072197487746
Ni 5.458904237019256 7.734886134676811 10.00528775376025 0.2731272603821361 1.5622945834007997 1.1052236608817354
P 2.9693582036668658 5.669649198744958 3.5575053290184004 0.8755621849927179 -0.6095728212069437 1.1809058822063985
Ni 7.823722895797129 5.72828052448172 0.7616537024132125 1.555530782314405 0.2987585877969951 -1.8697658684804443
P 5.6749129056242005 4.541642434139086 4.841875095825156 -0.5050767609743817 -0.585857479867875 -1.7115170400064588
P 3.03988438302754 7.7712731475342105 13.346081025585393 -2.71480365963206 0.8522641336967257 -0.428967479414629
P 2.4830553770048533 2.2199543272809876 4.181965475618178 1.4331334163213898 0.7779775071680085 1.3677777737337156
Ni 6.545213451756108 9.366307456315472 12.588734758748272 -0.47356763462250706 -0.14331508998228867 -1.30488344820234
