# total energy = -340864.2568633717 ev
CRYSTAL
PRIMVEC
9.26977092240202 0.00000000000000 0.00000000000000

0.00000000000000 9.26977092240202 0.00000000000000

0.00000000000000 0.00000000000000 13.56724674774223

PRIMCOORD
 96 1
Ni 8.031931894575894 3.420424891927401 6.395668117624547 2.999611441675918 -2.8457900528456666 -1.3570246489822693
Ni 5.386089044751477 5.5782792012727915 12.920861814666289 0.3097012028514279 -0.40106406813614154 0.6052790789275964
Ni 8.143215492175777 1.24663584669911 5.419355470966113 -1.1771656984376757 -2.5622493104396904 1.0096912376003644
Ni 2.4574625690726597 3.8292032415283743 0.1757474372024759 1.472923037514502 -0.31635367517093904 -2.2105478518970765
Ni 7.740379065611999 0.4410306628978732 2.6755561729186836 -0.33561252340055103 -0.025056685858311688 -1.1779288018559457
Ni 1.5223373677166658 3.425374949496608 5.369319102525909 0.30625283929151126 -0.4376668069608398 0.004650868508450055
Ni -0.10958630257943108 7.981013043962302 5.994145217573048 1.9413741768460497 -0.621388068674317 -1.7730124283077788
Ni 5.404851060706675 3.0530267988600284 0.7378246202318616 0.9250795749965551 1.189094845775094 -2.178538903090648
Ni 7.526312250170589 5.218380352725061 0.647562081713798 -0.9251240550812455 0.7304874320068452 -0.5028625269318824
Ni 2.9176974159894984 8.177773197452943 11.65897256023285 -2.4986065367780648 0.22691425216118338 -0.23924654847429117
Ni 6.038310113233597 3.7507809811622757 8.216555137251246 -1.1280995370386442 -0.18479366884204948 0.1021923518000498
Ni 3.1163671422502826 6.113858744673751 8.109984291089912 0.17025510890624226 -0.33323785252078736 0.4219218854217572
Ni 4.031163736397902 0.22738376807048044 7.797680153372405 -0.39951343581957 -0.4969579885219893 -0.4004025232927427
Ni 3.655320882196544 1.779656933378905 13.114059595265832 -0.0307683915311083 -0.2740605708296829 0.1940074741308336
Ni 1.331074188268235 0.851069701317971 6.196744399645793 2.002603713080493 -1.1492316910315692 -1.1920855529723018
Ni 6.393156936734101 4.695157413705665 6.117213474700523 -2.8947042620478665 3.0540599504327854 -0.3491743212453857
Ni 1.1093968910584366 5.5610003486342094 3.910392528457036 1.3520577918952972 -1.4927806956703775 0.6346508472214941
Ni 1.866106815196191 7.872807010244398 4.256303292974927 0.09425535634116024 -0.09510073506059105 0.9331284134429606
Ni 1.2030308451905842 1.4150305017594598 9.074099773423322 1.505154643854698 0.10957167498325646 1.5941135276836094
Ni 4.641318585312485 7.234166155880048 6.567917143353954 0.6880989397383054 -1.162570317122004 -1.4636850638560017
Ni 3.831233321317993 9.123252732713066 5.482252719315528 -1.8292234282817077 0.11297735823069574 -1.7424093587099412
Ni 2.968996327202973 8.604646139516639 0.4401824788761831 -2.654317943542177 0.5803288367401618 0.8469537772274058
Ni 7.406648779831822 4.959698130765681 3.9319512342411307 -0.6884918043013497 0.5304733466706154 -2.0377828320847877
Ni 0.6703638637526315 6.008359484008672 0.548436715401878 -0.44792165191962857 -0.1906853517361361 0.23371070625772652
P 2.412161199520754 1.0362862093199705 1.7067056916969752 0.09698278257465233 -0.03480168106021748 -0.1544543944285598
P -0.4636794937196805 4.523601766826777 2.1875963687289177 1.9260025794859863 0.15709774558867784 0.11961311837965852
P 1.818080133050002 6.864941917979092 2.240793728987661 0.5128954856878521 1.6626447397857882 -0.22526360393163783
P 2.703806726191937 9.057029490626139 9.4431831108092 -0.2513137640514704 -1.4446974670099055 0.02564084049655584
P 4.487394042359876 4.969681673840656 1.6682018450205371 0.2055129036672719 0.8991890803830385 -1.3222800464122322
P 1.4463067081986107 3.0935820457987617 12.125943749538347 3.2318681890959375 -3.5400082181078325 -2.7746810527139827
P 0.6588953034068942 2.433259197699624 7.307984121125125 -1.5414365090048678 -1.5042539864172997 -1.8516665877765721
P 2.3322186967551226 7.659435427607652 6.514069045190046 1.1013371813431354 1.2932160391667407 -0.4812678314802421
Ni 4.841230460850936 8.455699463445423 12.97319059740774 2.457906487955541 0.6833719665762811 -2.0318546395258106
Ni 3.092330626750366 6.249938978973318 0.05994668032642155 -0.12266244672894361 -0.19270032528363587 -0.12064310230606966
Ni 1.607758304983049 5.627761237423411 11.438247268476905 -1.3104118342197366 0.4575370635222056 -0.1261537477116537
Ni 7.179947266886985 7.92695174107163 11.136918539302364 -1.7103996385725637 0.967242067297218 -0.2666917891694375
Ni 3.6571377572593993 8.863189314915086 3.0051586297933026 -0.78728181528807 -1.4933738491696862 0.9645755762086484
Ni 6.322150492951085 0.9773397372551923 12.25378779254533 -0.277260051603587 0.23370530694108782 0.1065629700639197
Ni 0.6063829792050129 8.491397350522238 10.693798470082207 0.1306197539028073 -0.6662674456855106 -0.5962521928386376
Ni 3.7496500691333554 2.935421217623066 2.1030857229481077 -1.0570905528199344 -2.059619211233588 -0.12254443309384054
Ni 2.8723311580424906 1.2189841206149408 10.944344614272874 -0.6333064173784576 1.3663906635782015 -0.8626642459841272
Ni 0.9332434378980371 4.179211244708418 8.111870689433234 2.1653748549048646 2.0942478570510517 1.373859204041105
Ni 6.2081508525276465 1.1970889221533891 8.46696594278927 0.028687340632363497 -0.7486175659486527 -0.29811941155109944
Ni 4.0306260896956285 2.2987362848825046 8.83697162236267 -0.01248244873772689 0.38279869416805046 0.85372426318202
Ni 8.578051167295557 1.2476277121670973 11.326358354848427 -0.46704808833643435 0.3821026965422903 -0.0642724368258248
Ni 1.9894503845143134 1.100470101846551 3.98052112495203 0.18922085137546765 1.1621111180973986 -0.7836673584639342
Ni 5.213606420799703 1.3396301866509668 3.8398291797148594 -0.2952459466580464 2.8243879330208066 -0.035972047219234825
Ni 2.056776729317975 4.725766196652339 2.0521956086237756 1.0412170761227875 0.7512958841117642 1.4033803534286735
Ni 8.089339584699683 4.9133678166628725 7.9050509807476415 0.6267799291138496 1.515539586633448 0.9406216364962123
Ni 4.846986988473554 7.457382235030836 1.2978865551047942 1.8641171548350994 -1.792689852132048 2.0648483208430117
Ni 4.945997409628436 -0.1520047734346639 10.481443781294415 0.25409132679660756 2.982200702398638 -0.8254128178318365
Ni 1.3041825833838316 0.8295795918372704 12.442711281861797 -0.1251780140619457 -0.5288676927463924 1.4839530700764185
Ni 5.102749232653346 4.07968171639272 4.174926756677542 1.6971558861887803 -0.41004647414040996 -1.4876716565785861
Ni 9.448584606212902 3.3276066776193924 10.415737792414157 0.7772455140979905 1.698235235295888 0.8357283408252316
Ni 7.2584344156481855 3.0658283522365744 2.110276284102479 0.21382450885676077 -0.41561882602186484 1.1539671488340255
Ni 5.391845572374095 4.698244247358374 10.530950845826002 -3.7345862200301556 0.054796379014589496 0.6320396348508921
P 7.1889667538061595 7.656710115013369 1.7595767560260631 -0.653685752365758 0.22328899670377025 -0.7541765480936689
P 0.12607258982069672 -0.06512013937019459 3.921422628647299 0.22789744201005913 0.9171610914804268 1.534468048106835
P 7.391882035060758 4.518864913984332 11.983080823996481 -2.835384541241626 -0.6698708467660528 -0.4229318147435104
P 3.74355055999377 4.0869492166441415 7.6476804313463935 0.47598575714569635 -0.9451912581447657 1.749931121008283
P 5.606793016034746 6.424303366383049 4.593286341303859 0.7909975735767603 0.1882644009994693 0.9170649322221949
P 6.612813423925009 6.3277308949298545 7.8732769876203506 -1.9574546273476807 0.887468963732633 -0.40701180107914414
P 0.13563713925872758 5.873261845406362 9.603344355508181 1.8557276452198233 -1.475494397786104 1.3801656058751068
P 0.9409744266859007 7.6248499130183 12.74981971308578 0.7641691405300065 1.131863889177083 -0.17693869157400494
Ni 1.5316812966113498 5.699268248825786 6.374733267410505 -1.3243251018667193 -0.48386978787946344 -1.2902055344751908
Ni 6.755299069798214 3.0378985330305395 10.323412729908924 0.3988799160006292 -1.6798014540707327 2.269563411199337
Ni 3.823103732388789 6.256603944127363 3.479021893635701 -0.7802411063912047 -0.33788126483006975 -0.6926281950672265
Ni 8.98361290645362 2.5081033265643855 3.828772197189483 0.6783477738888124 0.6709090582225801 -0.6492338872419916
Ni 0.9198551080343542 7.20472536404521 8.08271447955977 0.8044963793941435 1.0306413574894704 0.5007650209729053
Ni 8.068973898408393 8.4046415662709 13.20878645536691 -0.3027828784650398 0.7003669584723808 1.0958743584563513
Ni 7.2781234086762705 5.602139591128861 10.008218277678163 0.37767371423665924 0.12885469158258456 0.3527255289317538
Ni 0.9210796447476357 2.707357048381088 1.9281364130053862 0.8519579153102167 0.16620562142721698 -0.013197472526880496
Ni 8.99792543245897 0.39535201367730266 7.692587835642322 -2.318107381546311 -1.8231021458753183 0.3140425105392592
Ni 7.045053563240711 7.989726628447425 6.400782250135657 -1.7079455206051164 0.32420351023266103 0.6140138876974329
Ni 0.6051945945975739 8.874841416721255 1.1970472081851093 0.425506517449222 -0.6833123169829393 0.520387166079207
Ni 8.9040597340586 7.202982647148185 3.128145312938364 -0.9624029940373621 0.4396583834695718 -0.41667940607589526
Ni 8.185263172201855 7.5103497049755035 9.073868956132173 -1.1754520581806787 -0.7742206112287375 -2.2710232835743147
Ni 4.720473157566164 0.6680983317864998 1.4910676501170246 2.393199020474827 1.5245908982024388 -1.3517621150317494
Ni 4.211989154005644 2.2268306733387893 5.932753379989998 -0.3258806408247678 0.785084293416119 0.7874633351712568
Ni 4.697104065558725 7.084181265487201 11.080587069560195 1.415618547366078 -3.49597087738196 0.03169887376517767
Ni 6.063718554801383 8.662804681069463 4.035007910319157 0.2086861591889309 -2.959364678340729 0.5640861496290545
Ni 3.7256877117992695 4.872061718295102 5.795791590494116 -0.49394182740348486 0.9527004220376173 -0.7856494218909695
Ni 8.212590456310517 2.363745187003953 8.828153289468313 0.31606185496213307 -0.19533493469300553 -1.9154181191019206
Ni 8.564656348592365 6.231251121183949 12.028435958218614 0.6819295777027997 0.9348682789522028 -0.13886888128547695
Ni 2.683394691047002 4.171294860505977 9.778376166410391 0.47169124353540054 -0.3533225390858044 0.23673766600950838
Ni 9.155224171956881 3.867441045784895 12.873417274121874 -2.392281393756564 1.4695163258257982 2.4090416439340383
Ni 9.023695395085182 1.7024768222904723 0.36661572441785734 -1.9835829490036159 -0.5893166420610689 -0.4281856069432819
Ni 5.019015393659614 7.555131967366594 8.755459747412644 0.9886483008871361 -0.7300377460639363 1.4132693304076112
P 3.583535777672304 5.095416844006823 11.699986660822663 1.2465862551233435 0.25201156144944337 0.06549525348933237
P 5.691388943706261 0.531766886700181 6.245762947259969 0.9285248532326782 0.15082862475051442 0.1001318697265953
P 3.106114775824171 3.7475087520949906 3.815991964285613 -3.3427143599162434 0.5975994508951515 3.0028880555446604
P 6.8329426694230895 1.436480751226026 0.7462258134434213 0.28375182997551773 -1.0246172627825774 -0.08924324783854953
P 7.922465172038865 0.12753628661878266 9.625119973927331 -0.811497493302325 3.2838682363123124 0.5052066016840266
P 6.947989793938888 2.9195606399059977 4.478751835109366 -0.6675131451671537 -1.5680294290020478 0.2286615738695933
P 4.6989394801630375 2.1340402683429676 11.112171959364616 2.213969733094432 0.7706262090092599 -0.028478052835034826
P 8.824589989600142 5.6167580195682625 5.18734145241657 0.2819314889373274 1.576688904449259 3.7553712750963064
