# total energy = -340896.570685119 ev
CRYSTAL
PRIMVEC
9.00956428102936 0.00000000000000 0.00000000000000
0.00000000000000 9.00956428102936 0.00000000000000
0.00000000000000 0.00000000000000 13.18640802600666
PRIMCOORD
 96 1
Ni 6.337012152468683 1.8775931878533527 11.344069370873823 0.1769533468620243 -0.3793197344805145 0.27574592895190575
Ni 4.638249805237696 0.3334466754338241 6.018514146023756 -0.7885470551537388 -0.040023848691105264 -1.3076687242569607
Ni 2.5911596853157968 1.5917647623032203 4.741529143003143 0.9667653847711157 -0.23867499224153732 0.07448203036897495
Ni 3.455348077761602 4.143624728399169 4.698910300316861 -0.06880554880948796 0.37561323216320475 -0.0676197560315029
Ni 5.155407802243312 4.442192677786272 2.7345180696079514 -0.7983123620706186 0.008056037535257092 0.2970197507290175
Ni 7.064156063242523 6.060859998913534 2.7567239425930867 1.44138717168975 -0.26573019658711655 -0.7336408900341623
Ni 4.966369125335735 4.4512202611558935 11.48272386167568 0.417768525375016 0.41580111723600005 0.0918428902449257
Ni 5.5959124266853175 7.839474114013734 12.20769917033668 -0.2774130322416835 0.18105271374237852 1.3149806845373417
Ni 1.7741814094935602 6.4598125130754065 0.2675507225741339 0.9372347223018503 -0.21624006027678888 0.44921543103038764
Ni 2.571257557907121 1.5082461017878623 0.32349651268591023 0.9601046849214885 0.30592682341066024 0.45018653669440534
Ni 0.5477238446501036 8.994175905415062 4.5931163931717105 0.011839158726773158 -0.18806256940130836 0.25311276493342216
Ni 8.563996241593403 2.241471468424472 1.3855619645598494 0.6848940596477624 0.9742524371767801 -0.39511145009713244
Ni 6.840241363157498 0.610877286154791 4.793865701679921 -0.2516467219108569 -0.29025003610535177 0.2435405478639548
Ni 0.9014519501471555 7.472460505086699 2.6127547098453827 0.04813747893717516 0.28705621175840235 -0.7216284389543184
Ni 7.463171644354084 3.9365128656238673 4.0180305019212685 0.8699733780510307 -0.25140478110337994 -0.5665112141307791
Ni 7.562952568324698 3.6359447929752315 12.523698824617536 0.46153127228326324 0.6570004185612878 0.48460358072169446
Ni 7.864241406112624 8.763377898249807 7.196666932188346 -0.29741441506427485 -0.2931602677736112 -1.0600542634339485
Ni 7.009504046555774 0.6963672393261101 0.30175373130276967 -1.0043988788531735 -0.5902607511418931 0.21262946010739509
Ni 1.9313442481159875 6.494292115426244 9.048354919979152 1.0997158436896286 0.3446144697888452 0.13692281330269968
Ni -0.05741344812665782 4.886021831433258 1.3667581030321683 0.08788107738370025 -0.38183607314446494 0.15883246889159744
Ni 6.380086879105568 1.582088490308237 7.17564761881377 0.4826102044407495 1.4955155781030374 -0.7846448918858551
Ni 3.4899628235760574 4.0753502505798185 0.48920222012178566 -0.9242979596355242 1.4023156596095847 -0.6173545220348917
Ni 5.8277195050455814 5.582172841217581 4.962928372752044 0.6601842156059082 -0.09622996356902781 -0.2768499606493619
Ni 5.348464744802437 2.6596143544199706 9.171660717139803 -0.6128571483851704 0.7530740590581095 0.16920815569896663
P 0.13987438580010597 5.502239987270197 12.323898223223921 0.15996478272382772 0.15523652401022295 0.10028407903374341
P 4.022824491053979 6.111836113389897 12.63074596214863 -0.48945936615209895 -0.039240947778493705 -0.23155946424267865
P 2.5488597812036495 8.383309430737363 1.4023350703075779 -0.9274982117403768 0.704314116045587 -0.09892756500584898
P 6.264539217712961 7.689996433688997 5.82199662983961 -0.04794181798660131 0.715179083784549 -1.0009314891298633
P 4.615176311216139 1.0473528334681594 12.517659713706703 0.20603843715343872 -0.6773941517262915 0.843028988251703
P 4.036077560052694 6.22126628066277 8.06120759859598 -1.4321754232834947 0.11593669796933583 0.42770712464496663
P 4.734354826997925 1.2165434403525073 3.662181545001852 0.011482803828618934 -0.4140142005389063 1.602566543546969
P 0.33350343568854324 5.621571665644081 3.4878050329403045 -1.3263133359413415 -1.0720821411327603 0.5628350508307726
Ni 1.431700843995146 1.1103927544634082 2.4889479809129242 0.02948309706078148 -0.29815335011282845 0.20542034395346556
Ni 1.7970206548448473 6.4466315205906195 4.8270695497342135 0.7553826525866281 0.5052459395623944 -0.020201671758855528
Ni 5.748966904013786 5.484346992687294 9.162680884460661 1.2081341217947321 0.9070713113445926 1.178755154411983
Ni 8.77898246351546 2.4729361833435717 10.287824097499662 -0.9418159139146296 0.4761078845458575 -0.8120567082399046
Ni 2.4899102023738777 5.154416750176787 6.867520521766818 -0.12842377469275304 0.4902309542108008 0.06873227236939129
Ni 0.49132667536984626 0.04293868221684402 9.125930871921055 0.7305630224397869 0.04456904485962647 0.4300725395533497
Ni 1.5019754450760296 1.1876407582669335 11.356490857093084 -0.20457650789593157 -0.48906418759620934 -0.36494058294070697
Ni 4.138894707172571 6.8518366723358435 1.7009805019471544 0.18449696353723707 0.027368878931256092 -1.0000719693430453
Ni 5.436938665650421 7.916289658733684 7.886922083133268 0.5142178040437015 0.09198712913227383 1.2887168657448063
Ni 5.172471916916029 2.6368381760183714 5.404818668174337 0.533575639745023 0.32655169874986345 -1.3970148162219618
Ni 0.7809120892085336 7.52650888096929 7.130220494953522 0.16120868243325787 -0.6855365783277677 -0.9651131938796734
Ni 5.029940610621211 4.55134354856767 7.116902557092271 0.8690866045707032 -0.6112630644251731 -0.8817557153979394
Ni 8.105229230434608 7.095221040745971 9.149244020351425 -0.23659728377690226 0.07717577515105419 0.3799884784127649
Ni 4.513377244855511 0.35119281411959546 10.461476240596221 0.653027549956469 0.29072363330766066 -1.1249702473810435
Ni 8.2255699800035 7.1298357865604265 4.855815465401991 -0.6170701580252534 -0.575002539431242 -0.28376160016753066
Ni 7.175108846872149 6.1916788716948705 6.9870558162925525 0.3631685786419488 -1.1358501275183406 0.6821270384255864
Ni 2.4326904598784043 5.290190883290751 2.521848206652291 -0.5967165340695658 -0.6347562624511068 0.11936269293174927
Ni 2.4716478156570894 5.263774840935731 11.229096519679803 -0.11498924645440196 0.003879794670380415 1.0891100431493244
Ni 1.1964791407874908 3.377081993198828 3.7350635139741217 -1.168819640465826 0.49346283088453724 -0.09152484478387464
Ni 3.609781018418964 2.6002142973781415 2.434949157633658 -0.024779006716892808 0.24864753007321694 0.39375390762797347
Ni 1.2087771959766456 3.5490835841264112 8.118528248210954 -1.2940601323345908 -0.5131911625514 0.2869605667208026
Ni 3.55714714412223 2.7748556906283786 7.159995302857638 -0.48013243232421826 -0.8684266023892012 0.170386492277784
Ni 4.015211409270216 6.943581065003361 5.852470579928838 -0.017964297787904544 0.5952759449682975 0.518185530442198
Ni 0.767538292048987 7.337668414475019 11.162043738771551 1.2431240076063559 -0.7281464425784944 0.0787343778874257
P 0.18369510435615752 5.656330564486395 7.9662251685401975 0.27477456617757196 -0.9303657630961589 -0.1566028082301303
P 8.57054619479671 1.6981406872983476 8.053071061129806 -0.522668505914216 0.38915111874863945 0.10012647040995658
P 1.8364104697071066 3.324168822410619 10.265856077010492 -0.06490775641697855 0.1576515612096188 0.5219910202312171
P 4.0426995897699305 6.155073012183123 3.8381680661932913 -0.6444642337674902 -0.33891947628659697 -0.718912325574736
P 6.810374657698122 3.8142801075643353 10.456570532866921 0.07044385574385932 1.1155494682877753 -0.7005451359214581
P 6.320704841192222 7.786723115381864 10.153982515915423 -0.5753216133335576 -0.38765807914288075 -0.38416600682922225
P 2.2429310178315363 8.47308072883607 5.756407903120543 1.3067901783067493 -0.5351764085732397 -1.3248516637941505
P 6.845196623490123 3.929485405515779 1.5563130279707627 1.280234282195092 -0.3403788344409428 0.3623460827406534
Ni 5.363492697956657 2.790523322843719 0.3514576953082849 0.3725767593297261 -0.28780517410928497 0.4556208203360992
Ni 1.3247302877601035 1.0523080938007856 6.837007830551352 -0.21558365763971263 1.4473863266959783 1.031622233345501
Ni 6.911101585914055 0.784395186744158 9.266629632849225 0.2650925630031176 -1.0946165747898502 0.8752171429484733
Ni 2.640694269513579 1.5756376423115817 9.193484584601116 -0.10277393533513267 -0.14339762239376594 -0.41794104639713825
Ni 6.551881250055605 1.9797886750405915 2.6577466717527827 -0.9465716834320601 0.21173780153106114 -0.2024635753179868
Ni 4.118830407607555 6.97387121998207 10.313248186831732 0.07660473313893258 -0.46474180880076094 -0.06664710770558845
Ni 8.226795280740296 7.187713227245503 0.24343031718775682 -0.7352671127836756 -0.5612959884784269 0.4485425733330792
Ni 7.494371765321148 4.028987032994917 8.3301701198867 0.7279106724186044 -0.7486543327238591 -0.4061239991575522
Ni 2.957686777773811 8.389246733572271 12.328447152209272 0.9902243871250044 -0.7448910090266849 -2.6225252245116125e-05
Ni 0.29547496598311995 5.027030521371323 10.130167534756819 -0.8067862038695849 -0.8139426124087078 0.01729812495881537
Ni 8.52987702181221 2.2860237635969036 5.815311533172685 0.237860466760042 0.42221653384404056 -0.3467371725588028
Ni 3.5625979304881197 2.5617885058896843 11.371786394305264 0.3346874404831204 0.5908011970263954 -0.013385420167970497
Ni 1.0741472775213063 3.448951287150393 12.550506783017045 0.02040427468796486 0.09182977761880314 -0.12557859193447404
Ni 2.94170381081003 8.529291400136536 7.77192400515937 0.5365046404663598 -1.2131256614720527 1.2074329819626495
Ni 5.653402456108025 7.823130764480307 3.3865068983514837 -0.5681407793144022 0.6157313846091719 1.2573077553059056
Ni 3.1865206999344986 8.521191801883752 3.5508891008003354 0.136963436732648 -0.6151865678492953 0.6317763538871765
Ni 3.554786638291052 4.296922463962148 9.263438445195014 -0.2524301370441007 0.16290946717444849 -0.4059381083989912
Ni 7.207254972084533 6.020713380655018 11.365721155658129 -0.2330303923612503 -0.5854862125713851 -0.26607086775598693
Ni 0.6958906333777538 -0.10291895519580233 0.15599519909677587 0.04024264957013069 0.5069449245313721 0.5302596879979126
Ni 4.671107686025129 0.4363917583659257 1.6098361462580966 0.01887498252763201 -0.47786137690185443 -1.164729529556852
Ni 6.000577004576073 5.59995772102959 0.47715643273138286 -0.27481544671783636 0.5400383646512312 -0.8505939450831546
Ni 8.024773821761238 8.681913418381429 11.27908608687176 -1.0675058346159874 1.0879551036092747 0.24783274748140546
Ni 0.1164008671262426 4.893103348926792 5.891660382464944 -0.3321163373218345 -0.6538996681487771 -0.3149585945956253
Ni 7.836005431780896 8.745232635868154 2.5317641330560887 0.38187283991967136 -0.47290300445531464 -0.26842985490646676
P 8.510146076124116 1.5008222208531639 3.585305636201486 -0.135413832857341 1.887286136752395 -0.02213796954961994
P 1.685067809584455 3.215270219427973 1.5331179048319505 0.09494724020186228 0.09903066624261656 -0.09661485771227231
P 4.491493013313784 0.9496801475299722 8.13999623788474 0.8032640496489392 1.0548148694118802 0.03548970826617759
P 8.582727125650731 1.577610736880391 12.320865603900353 -0.09288084459113681 0.11493139663327304 0.3016089127615967
P 6.332597465990524 7.755405870079667 1.2194075808247653 -0.15562476058757715 -0.48707286819779333 0.702814391571609
P 1.7621266125389163 3.217360438331917 5.972387879978397 -0.107945195123427 -0.08561850660176867 -0.7077095148803813
P 6.951185137222883 3.8248393168549506 6.111834311477049 -0.8243800056919479 0.5882727741775868 0.19618211318464923
P 2.4697828358591734 8.537688314009278 10.136312958525702 -1.168554045509265 -0.5971703337775328 -0.1974427250646277
