# total energy = -340860.44066910126 ev
CRYSTAL
PRIMVEC
9.35507325378699 0.00000000000000 0.00000000000000

0.00000000000000 9.35507325378699 0.00000000000000

0.00000000000000 0.00000000000000 13.69209533221537

PRIMCOORD
 96 1
Ni 1.1586912810799843 4.0235514274811575 0.5268580677614866 -1.9537761500548287 -0.7568834055018706 -2.1059432911111085
Ni 7.1752661784000855 1.8949448841244294 3.557411525755676 1.434577347856768 -0.6712193903741471 -0.6057593609981246
Ni 4.838453129543336 6.204443474038802 10.574582582882979 1.5364706803591603 0.6180695458240452 -0.4159340432694385
Ni 0.21168472165498656 7.951325617214777 9.23194998474501 0.24468648854293992 -0.08419462967104856 0.3979980276163081
Ni 0.12792220420820635 7.53356547569748 1.1212363751638073 0.13029913733859494 0.21759297476025752 0.30329118556002604
Ni 9.526645075974642 3.7648836580223333 6.426466486906409 -1.4970101603706927 -0.474247434298351 -0.5923428304819024
Ni 5.724275640295112 7.434027498589274 3.643288289708702 -1.518810544075236 0.9023353393215041 -0.1682447633444328
Ni 5.720355864692824 8.962328360267763 1.6701069297801443 -0.5781886504687075 -1.5735853258232706 -1.9154888244388557
Ni 6.8260974323863 5.88441578053367 12.556979625259778 1.7893289060796151 2.0139260800718475 -0.640999158037025
Ni 1.2064395738582063 5.87805433086886 7.482236996468195 1.0203127218699524 -0.12928843668589346 -1.019762248683121
Ni 3.116053212503845 6.535014334856054 8.909583522980755 -0.3519176883184778 -1.1098835282512498 0.1219880463697383
Ni 8.198112443917264 8.07437289286367 12.593701093449894 0.8113421986713834 -0.12309490628067188 0.0026302385339954703
Ni 7.593297617035439 2.5412775251421764 10.891034767473565 -0.5081672269742474 -0.4382021106390195 -0.43121025270221863
Ni 1.694325342856998 2.012706543507709 10.323004087771203 -0.1795247071336263 -0.27531809738586777 0.7636518345739558
Ni 5.2924174037118314 2.5499216126278887 1.8098754629744522 2.323564033785508 0.8678897560491247 0.15854399111690115
Ni 4.133099332738403 6.303223690231054 6.468227532941281 -0.5219640236480237 -0.11445574254843513 1.431024340398187
Ni 7.032460988498134 7.478501515804726 10.168119627564543 0.2074180911097847 -0.44892078260810425 0.3534325823011074
Ni 8.97348896240029 5.437645557530232 9.018024723097785 -0.7473176161903066 -0.12368266046334184 0.021571812633504783
Ni 6.33251442390829 0.734026160154458 5.6605170755222485 0.40773428106746545 1.1317466468729283 0.13551616276316017
Ni 6.956001976570938 5.823663936234733 7.1423859031987496 0.600467773581882 0.5799138606899302 -1.8454609731864928
Ni 3.7810959995945623 3.715610488339164 9.971268309716207 -0.8190567937068217 0.019320554705482853 -0.5328320767107791
Ni 8.879732420428633 0.9625153995048835 8.188352296218298 1.98846933056164 0.4394524381063528 2.176837089908193
Ni 5.151361612467704 4.207706040204375 7.014186788828663 2.8887501013469605 -0.546652013313007 -0.36111195322323614
Ni 0.3958458829293291 6.02743613711546 12.733524821575118 0.12865800219074616 0.012776582939377997 0.6242787599585506
P 8.00487405527562 5.138245800070551 4.820959142965108 0.6045239459291266 -1.0087440431957466 0.3103439786417494
P 2.9209625194009763 1.1406172799734944 3.845780716598038 0.22991164422661048 -1.6755303374992048 -0.07339548217301553
P 2.239473513912117 2.0976599617520337 0.3282760614014017 -0.5198469773050208 1.9122785450316746 1.9182255066437284
P 8.645425261156818 7.107451253958601 7.383544717962487 0.15204655631801559 -0.48426110978061115 0.23146639030824004
P 6.403192000698938 2.8008808019046487 13.504102187590428 0.8568126722993566 0.08613812655066455 -0.7410186705554722
P 7.27914490939722 8.998382811750378 3.1764841777976303 -0.07877962930306433 0.6849945897813686 1.3708713250573745
P 5.229700994075233 6.695397706993562 8.395554066874201 1.0288081609354731 0.6261296971243604 0.42163212209548034
P 3.947504038767567 0.9921990462496519 10.738928763958741 0.24160733539698392 1.640268428973117 -0.1894252540767899
Ni 8.192228102977314 4.02993158729204 13.690766766409334 -0.41318219155591424 1.0852634157097245 -0.3209811466406214
Ni 1.5091603822458404 3.1344078658014296 8.224020383184508 -1.3128654379665519 1.349757940117527 0.2625782812216962
Ni 3.8622886784782207 0.6363049382299377 1.2333391508673166 -2.2952451322361567 0.8695776852745088 -0.13536086813221848
Ni 1.012200192401658 5.11120028392207 4.652135623934084 -0.278385680567598 0.27520548306740344 0.7162422349417407
Ni 3.8694640194972045 8.67938417627926 5.486039350347971 -1.445754190409194 0.4793197066149358 -1.6681612987286432
Ni 9.1681025467783 8.887291319442113 6.352748511378904 -1.1007118890543108 -0.8081676575981436 -0.4427262237616182
Ni 3.277858555742898 8.24587944684156 3.005305051376019 0.14404528328009386 -0.15804391155203104 0.3946442806527268
Ni 0.7178998852541644 7.176463627748755 3.564284697915582 -0.13589771447229498 -0.289596718792069 -0.6899048825987925
Ni 0.006658940987370377 0.28583303054217063 11.143037982901198 0.783103001320032 0.13244755114016543 0.28048344363689115
Ni 5.801707579818102 5.533404085131698 5.002968637441058 0.9031627203188058 -0.46872856136265084 -1.3320970325026542
Ni 3.445669855871375 3.081486217634031 2.7637084191941734 -2.3126723265736686 -0.041379334277735186 0.3615559827391902
Ni 3.731598308158518 8.443879567658774 7.8299753518147 0.991313506424125 1.4977012729004464 -0.44227036717112217
Ni 4.589832708525697 6.252004665356295 1.8426958657083545 0.1627516014403455 1.3309338654324885 0.45746995772969595
Ni 3.268821555189653 4.39931664613767 0.4727483253184545 3.795821669801869 -2.129212031831062 -0.39797617323943724
Ni 7.985190981606854 3.9969830200575385 2.3826987465934066 -1.0021951863336351 -1.1019046238108314 1.2253137188978123
Ni 1.6100829101634462 8.122298932029585 13.217719078753714 0.7596128886178918 1.6500162523885002 -0.07183533677474725
Ni 1.8487214682511546 0.6218635119835151 6.257793584551272 1.4341325470098656 1.3554809586442333 1.8021299144990255
Ni 2.568622403627823 5.789695666039254 2.823940121432282 -0.02378887488948161 -0.8419984901046595 1.9220091420558774
Ni 5.115297805912052 0.7919172231188376 3.509666975006669 -1.0096837814011965 -0.37238238393073286 0.631229737355087
Ni 1.04927434684525 9.21508372356753 4.390479844147406 0.09177655578336452 1.287732647454666 -1.8445844841188104
Ni 7.00321703018608 8.855792788528268 8.231207885798439 1.6660856471465368 -0.6844705989570986 -2.344088378991105
Ni 1.6298782447086493 5.405632497599379 10.356194015890047 1.4515072908428874 0.055183587150679156 0.2439886911449669
Ni 1.7851069716030532 2.7641340750173335 4.732809096264216 -0.9141297608532708 -0.4928241688592738 0.489091441289719
Ni 5.8502697639504975 7.978997923256701 6.074990779881827 1.2374814646085979 -1.866988048624991 1.3060553570232538
P 9.477718043993823 1.9576800039071014 3.0220777618231334 -0.8294383940514619 -1.1708407846609126 0.6596357993016059
P 9.130813225654867 5.578897805308127 1.7655960312781591 1.1250872325748817 0.13272368761968753 -0.5121964027382986
P 8.417255029796937 6.139201194682353 11.09367781103879 -0.35744221768113277 0.06733976289723886 -0.7343317454535998
P 3.5635250659850195 5.025694916368594 11.647358744210488 -1.2913121372758085 -1.3687424516398299 1.2986423523886346
P 9.310870316388105 0.3777541071840698 0.08580566539794865 -0.18538553678977748 -0.5084438776744018 -0.30239772721147923
P 8.560191190721397 1.612449743641677 6.144451261670428 -0.3023375633975051 1.133703513488983 -1.2698516534091873
P 3.7864190361523233 7.994854772053544 0.30679494269502366 -1.5217313172664566 0.4040303498533171 1.097674644889884
P 1.6928004659520508 7.3529096602899084 11.296046750964043 -1.018746148713781 -1.2737551022286515 0.18630907704531138
Ni 2.133733123380722 6.112745048135172 0.7372882741222805 -0.980818520430072 3.39994891605868 -0.8724565494842006
Ni 7.11650696465792 1.296790869244583 1.1202307048123852 2.334683283627121 -0.14397637771537142 -0.5440184323449018
Ni 6.647845870749105 3.250944010616929 5.393179024373209 0.9905414041447907 0.46945027002002376 0.011693377177528249
Ni 2.7138224922271146 0.9723850015583757 12.424768120064345 -0.7408978287068917 -2.010189495847551 -1.0043849948961026
Ni 4.259215072343264 2.3548776948902024 5.1983680479541325 0.5902586942593641 -0.870674003662481 1.3637619677061028
Ni 4.653101067471449 6.207437097410478 13.209626940577152 -0.8870087362667627 0.22845717116827108 -1.1658014224647921
Ni 3.5864449949244093 4.518528341841606 4.685913986146923 -0.09778856630539932 0.7734161130495713 0.756258113213046
Ni 5.447281282757813 9.250838812712978 9.647942952965714 -2.43618966510374 0.585379768900508 1.0942627909948575
Ni 7.352039638497516 7.434448476875915 1.7615013158100896 -0.11235849369977424 -2.1523794710864608 -0.5033983448306942
Ni 2.6300945885505693 8.643872319032761 10.081366293267997 0.4561998327680208 1.4875122481825866 -0.4040879425641299
Ni 7.736514430150996 7.343732333641117 4.698374007924217 1.4764971280190056 0.11610330545418714 0.6426094399469384
Ni 6.9965468631110665 2.178132300011882 7.6522794815158734 0.8986815446190007 0.3486343895815157 -1.9668458387545933
Ni 3.1796209337867642 1.6291953243769859 8.419269177021691 0.37718983262170525 -1.0141742130723823 1.2620038752299942
Ni 5.621538228208427 0.6395576971247238 12.497733947719716 0.7908379080704444 1.7392114205979339 -0.40921806470184363
Ni 6.046426935379525 4.815355454216253 0.7421884613787916 -0.040118465287440584 -1.5422158103730537 1.3370862581871295
Ni 4.360867295957715 2.4256207571921062 13.356789723499498 -0.9065763739860452 0.7379318041000323 -1.057793749534546
Ni 9.26962379937024 4.183831893815263 11.218248092578024 -0.6452707888291854 -1.0443854465484401 -0.32976146393641276
Ni 4.281040457737384 8.21832875674911 11.782170959710063 -0.8269909609522338 -0.27963883624840874 0.17585677136373584
Ni 1.4113343835033116 9.369012095309861 1.9226031575567988 -0.584986133006515 1.518030471376102 -0.5018369138808454
Ni 9.217029578759119 2.3138744097712864 12.614472162112802 1.4898689213402212 -1.5949751043529563 0.556303677470158
Ni 1.0845803924849462 3.732758337215042 2.6707386388648846 0.012610746785475056 1.2483343481627018 1.05512237334997
Ni 5.6943674717974675 2.638532864429479 9.228759904839567 -1.831323762454162 -0.38776760813755157 2.1433466714602307
Ni 5.810052304966647 4.082132894835629 11.753348915191957 -0.9577683234788279 -1.1138296573831912 -0.6094879748026213
Ni 6.600134998263029 5.0264152569924025 9.171472244086042 -0.847423774885289 -1.0908974740670503 1.8588430509203537
P 7.3913496553968265 0.45064228773323933 10.341598230938523 0.5397609426201284 -0.4452273929169171 -0.3310578141503331
P 1.7328308234751724 -0.10522866803629982 8.296888918080299 -1.434973297743606 0.8330392240288428 -1.2768985329536395
P 4.831567795788482 1.3549513583124135 7.260370213320297 2.2054601529615243 -0.39206829239543445 -1.6248734345742855
P 3.3352425737487 3.917913942753163 7.53323991915581 -3.48922533112801 -0.10426003296235592 1.1909835781573748
P 8.681984886583402 3.2195203202873746 8.9776192271459 -0.24057658013962435 0.09262296294405983 0.2851775066784508
P 5.121387958458803 4.526975972793552 3.0178885601173953 0.3914941650595193 0.13626152556961693 -0.16801027873612356
P 2.776117923577072 6.615018919464078 4.951636416182559 -1.5599114278806039 0.7398591030297322 -2.0053558219043337
P 6.16311276136361 8.062725826933246 13.02173029863934 -0.0802821819905198 -1.511142743117333 1.1113128044986087
