# total energy = -340895.113976746 ev
CRYSTAL
PRIMVEC
9.02376846005365 0.00000000000000 0.00000000000000

0.00000000000000 9.02376846005365 0.00000000000000

0.00000000000000 0.00000000000000 13.20719727778633

PRIMCOORD
 96 1
Ni 6.253525654736023 2.086683279766874 11.427038879500623 1.4911357038677866 -0.3190661890060956 -0.7458379463209865
Ni 4.758675250285549 0.3143059753126884 5.8125665778238575 -0.5912321139162269 -0.9954290712543952 0.5512046656806959
Ni 2.738361787216631 1.367308461662044 4.794819954674898 0.049813838198333564 1.258252121497046 -0.06049188673747002
Ni 3.366930423753612 4.509754598536656 4.998950229515296 0.2750476173333005 -0.4860948205552402 -0.5232369768231763
Ni 5.208555224653542 4.48557992295082 2.752987511064904 -0.330911775490772 -0.7946212863722766 -0.38998081373878646
Ni 7.142890222257045 6.184602111576406 2.553268054226131 1.0048729902761147 -0.0694300697673643 0.008039325364708735
Ni 5.236456716595089 4.335451487817728 11.679467972409565 0.4181981567132669 1.657603834927771 -0.8626207943407015
Ni 5.618496000013354 7.5450705567793 12.427088088032582 0.4444879436477313 0.46345420033758894 0.45221770819182117
Ni 1.992583422727271 6.62431229893983 0.37536440192112447 -0.2818756959987274 -1.0949603312825142 0.5908122527699889
Ni 2.7305472037685776 1.6417573542591375 0.2247495856704232 0.07194717976226318 -0.9605083481178104 0.493884234692672
Ni 0.5404587569717632 9.118427746446935 4.747392832635318 -0.7021821573042487 0.4752797322176073 -0.14024005060139075
Ni 8.693949680169323 2.1309719351514516 1.1840700154578254 0.31074301385238096 0.8666126891089139 0.39013662259036036
Ni 6.93101213985487 0.7181800711665826 4.682400042997608 0.26321462925411443 0.7807792382828618 0.3291014617549107
Ni 0.7897575046172766 7.362988957685983 2.3575371030271266 -0.4400381354064937 -0.0863597556431674 0.9027672846526001
Ni 7.6972744586480175 3.917416392188974 3.764315527739729 0.06139640082961039 -0.09374807768743854 -0.19910340059650225
Ni 7.6560087656827225 3.942195660258666 12.56287053613829 0.003268386338626629 0.0036108572797099105 -0.5911398113127367
Ni 7.681239222173201 8.99760851112825 6.834605807608197 0.8662439929155854 -1.2612328013919247 0.05903278569344026
Ni 6.697612369781093 0.7206399504367204 0.30089936257738553 0.10688410084876432 -0.15091681358894654 -0.15074429256682426
Ni 1.9466073226489453 6.212287033075976 9.281000860602209 -0.29893342281196256 1.0969920170005623 -0.07574701312432762
Ni -0.042286281173118966 4.758900844495943 1.3168168678684693 0.7333459845015629 0.2072093175330883 0.5044005608429636
Ni 6.3066124843259725 1.7919850508448028 6.846016362769932 -0.5793075945644991 2.0112529041150586 0.9319991849345239
Ni 3.4224446470474015 4.262322868576365 0.8304249217366071 0.9064771294040194 0.5013656306713817 -1.5059905094924322
Ni 6.065244726741075 5.598336901372535 4.676060845685533 -0.5042149271947187 0.5033435803333589 0.8874327111780588
Ni 5.354875629515179 2.7490459290208973 9.288107078229624 -0.33712330361812265 -0.023414265158882255 -0.5878907082478197
P 0.2962909240474541 5.624478758473006 12.397147224429073 0.03828706850565664 -1.2248578623073163 0.5553371997918306
P 4.067210947890682 5.876025326830887 12.714291174908519 -0.17690398168132757 1.4196384671587485 -0.3271512800070753
P 2.4185865058671467 8.532406177990289 1.4067513534073552 0.6363315773580267 -0.23097068161874415 -0.5997908021195154
P 6.382917470049686 7.684496802571293 5.668410072628319 -1.3088558025865267 -0.14546787465923336 0.47425437627688644
P 4.657248093292345 0.9429025855317585 12.328522368004016 0.22310541993805447 -0.4790499978933168 1.6949167124456166
P 3.9700069145160555 6.062898546952976 8.161374087285573 -0.038849368767029865 1.0789374734916968 -0.9479101997378254
P 4.700823870972076 1.239414591905399 3.817751577167368 0.03319731268757509 -0.5782845526166235 -0.3486601006131286
P 0.25101145889082566 5.593725755712078 3.553079035271915 -0.23984124463549658 -0.5382301077978988 -0.3431206588521381
Ni 1.5355656475424084 0.9478927294656768 2.677362917479739 -0.34403468602597526 1.1100789320915077 -0.5407492746753269
Ni 1.8050334199739995 6.559647974472454 4.845733860830331 -0.11795449973031298 0.16683219926762233 -0.4132125305732174
Ni 5.814537368845861 5.7523545806928205 9.2411022685519 1.6460904349715326 -1.9292943628633807 0.0829512441822507
Ni 8.650942399899785 2.277472815381405 10.118416495730509 -0.2892989850459921 0.2137196078477803 -0.34705110425479585
Ni 2.3232142974809205 5.275944727182478 6.980281013028108 -0.6263091601250181 -0.3493663826515338 0.22069166829023928
Ni 0.5242304118528504 9.02737792313186 9.161224772912387 -0.014890801068903389 -0.8590503033806238 0.04474233721269714
Ni 1.2368879367489845 0.9325974420009542 11.473237866658817 0.9264959957281075 -0.1451655129274661 -0.43714590146036325
Ni 4.189609342682126 6.949321365970459 1.6268888910404808 0.3551865888777367 -0.23858706051342132 -0.6377464554276823
Ni 5.464198583872179 7.760043791748084 8.040977164328746 -0.18924836217929342 1.1704198950734102 -1.0989802510751847
Ni 5.308755149142202 3.1239203403170457 4.810100804110156 -0.0342442658948507 -0.9842465722750146 -0.35793381260557067
Ni 0.6019792005230864 7.650567433328015 6.835847478142207 0.24258255482605962 -0.0178802227145305 0.16401375598222076
Ni 5.077575226098704 4.342724645160836 6.961711902382145 -1.6673634854176962 1.0652085539413783 1.1112300149768155
Ni 7.987271304225475 7.136329942618784 8.794896772682808 0.451239660549268 0.7777556209651896 0.742879892133927
Ni 4.781532455682683 0.2757826055689437 10.194120498477732 -1.0870176793966697 -0.17107940457975052 0.5973456830131326
Ni 8.194736763872342 7.169799099672858 4.663950046094733 0.13557966901124394 0.6113103727233408 -0.24426688450701806
Ni 7.057985585233108 6.050184057255162 6.954883616821936 -0.04729184310742823 0.28957075065014 -0.3783360304110065
Ni 2.312728678581801 5.201507661520828 2.7229943096045823 -1.1035172197135898 0.2072759091049656 -0.6715909147809531
Ni 2.31931602952531 5.348477777708401 11.51741552969188 0.3581533848155445 -0.9191485542241009 -0.07716497651777678
Ni 1.2483842177106697 3.369430007604779 3.9245054646563995 -0.7111249683198334 -0.2956452389789941 0.45310113923803896
Ni 3.347899296164762 2.7626537717918715 2.6701520241387007 1.5095136921543422 -0.5413475703809579 1.2522272554592047
Ni 0.990151036956707 3.348720459090597 8.10710604641 -0.10893789805399949 0.6931529572224451 0.4970106961367956
Ni 3.507358307839756 2.704143657384048 7.5539616757993535 -0.08208015443120703 0.7503959980053141 -0.5442719431166045
Ni 4.040599854832589 6.871753052668537 5.998867691028386 0.5084706171472791 0.020974545369138068 -0.35844186259024075
Ni 0.8829739347289763 7.45991325423972 11.503786029876709 0.06864254086906242 0.522378742587939 -0.730745056543606
P 0.33758729782536356 5.8243823001874615 7.855508944948991 -0.3926174800306851 -2.1056177894508896 0.06641622264170498
P 8.560397907615993 1.5603178443068535 8.018789522548062 -0.311548797583128 0.9730288491823241 -0.10836505626966499
P 1.9615145880717901 3.309782898376569 10.276097825027596 -0.7216945163055636 -0.21714791680303894 0.07105037897960666
P 3.9937304016811033 6.078933783427791 3.6607578590235623 0.9108189513124829 0.7963701507425833 0.9551126310235358
P 6.884187805545462 4.032343106732164 10.257461938495357 0.5720270017426858 0.32724358261056546 0.5428848329610908
P 6.392148785139014 7.732981510269202 10.09887011096512 -0.8570939509852014 0.1216211499486228 1.2062150503951483
P 2.3426514946484795 8.524420142942336 5.797827154493547 0.8698769616824825 -0.6079499408915401 -0.1802901245447411
P 7.022404866369744 3.7285489192470007 1.566029889714033 -0.4067397783646801 0.5206861853768646 -0.15662132017289154
Ni 5.386846841012237 2.874034145347666 0.3697263514149542 -0.6533129424073716 -0.5169709413088064 0.7765554300095012
Ni 1.4704681821910757 1.2156730572035197 6.968817217632719 0.14818758758324155 -0.9967531893824576 0.29585529810727107
Ni 6.8146235748283255 0.6470384857303701 9.063571355870655 0.7185546851250012 0.3476938800451173 -0.016648921410590684
Ni 2.5873129277051308 1.4121295193831516 9.31141727680123 0.1390280325711606 -0.43681268649066063 0.3685306142848105
Ni 6.364021698987072 1.8938724200272115 2.6125948196755813 0.36298165944212324 0.8043531689480597 -0.46028480147067186
Ni 4.243616596650483 6.916312421105587 10.506563065612566 -1.1677436337928278 -0.3588509251032013 -0.039050686144558554
Ni 8.1702733276972 7.124328330625815 0.35471982453953604 -0.652753984580108 -0.6902789781087595 -0.0010304981470433867
Ni 7.454652397253329 3.9203400931556818 8.10044921244969 1.185241790577591 -0.6527161893636371 1.2382682221759513
Ni 3.2132556476331247 8.27153805685892 12.366096437310423 0.029505208547968544 0.6933447615182768 -0.08226321697629058
Ni 0.11334033605569852 4.62188394487096 10.356859649971856 -0.10566694061221157 0.611456925603534 -0.7525536677782652
Ni 8.577245283248226 2.418027032225369 5.9128089140240725 0.08305537386028278 0.434625963251987 -0.4186969507265563
Ni 3.7743896627990896 2.648295554658875 11.402182909399396 -1.4525866399499952 -0.06147764768950703 -0.7132993502633328
Ni 1.045457713576934 3.2453802631932502 12.359096700150314 0.23334175295408202 0.4385067863636319 0.4456673086678131
Ni 2.9659412266622383 8.225381481412281 7.9300633196000465 0.2286523178982127 0.09192079467071265 0.23400381201811313
Ni 5.721592554163475 7.971903826613427 3.5781867685119413 -0.3044049874494951 -0.10166090477661202 -0.4858346249153181
Ni 3.2808887919092875 8.170237232623538 3.605274316542386 -0.7143864126799245 0.6187519166030505 0.3154694727937728
Ni 3.615408910850132 4.477404388766137 9.46735521404039 0.4516566934820286 -1.0911358153301016 0.5503909115301489
Ni 7.517827799932104 6.2647963414873145 11.293421233437858 -0.6333503832425157 -0.6803570910093573 -0.3065490303756914
Ni 0.427375598315914 -0.06344160384703973 0.4402958299336071 0.8429917072558644 0.9328772166641031 -0.40826521387027104
Ni 4.474155832136462 0.43528583370917406 1.739942271260558 0.18159804472288724 0.1304230645109689 -0.6912945638574676
Ni 5.9234632773925675 5.387018292612136 0.6309563256597928 0.23889816399593697 0.7161229357550569 -0.8904133910729375
Ni 7.967076110510992 8.81397482386742 11.193033614566147 -0.3541013262333579 0.24848400791215916 0.44480393222625325
Ni -0.11464607534545979 5.054086356912466 5.685275495797385 0.4843402997579788 -0.8743347403435201 0.8468810150079414
Ni 8.022256454373398 9.064104660584025 2.6419942571741455 0.1235672179314001 -1.2339179156270557 -0.9939486300541269
P 8.562807253783003 1.9179297866236424 3.5078843935383945 0.1491887751542463 -0.9744154451172057 1.1843910125415213
P 1.7177013892462205 3.1755453194236405 1.4464387892767336 -1.6166433333550094 -0.011630642260392872 -0.051364470514905086
P 4.5712154852164355 0.9581347066175707 8.098283508029906 0.7392901179001397 -0.5477622156580502 -0.4204082769907082
P 8.359970987333424 1.721301872844111 12.231238023090489 -0.42314778740905834 -0.8459453905675496 0.7323360551798097
P 6.388611467920034 7.899794893203044 1.3610152855688893 -0.5556315911037979 -0.6240990398475769 0.5753740638380478
P 2.002148617247982 3.1373567314881208 6.096244078379755 -0.9398526195406718 0.521190892927425 -1.0557116701945366
P 6.853994276426311 3.9432785124685577 6.0842650258078255 1.7228319507986458 -0.15775697643923153 -2.2049297343793506
P 2.4186135771723944 8.291940797246967 10.137831133477029 -0.03872749847718491 0.5189373210065579 0.8331811489233456
