# total energy = -340863.0062431355 ev
CRYSTAL
PRIMVEC
9.31430747656453 0.00000000000000 0.00000000000000

0.00000000000000 9.31430747656453 0.00000000000000

0.00000000000000 0.00000000000000 13.63243049658261

PRIMCOORD
 96 1
Ni 0.42186174522994696 3.148589824958178 3.398960269147414 -0.26160126202040757 -0.4213567569469066 0.22327999784270577
Ni 7.323448661369334 5.75892445729102 -0.3282808993742892 -0.07967103076908215 0.7367447257704667 2.0196185024709346
Ni 0.7810083962710501 8.431879177877828 5.437348927771562 -0.8961862890009727 0.7654063553712173 0.8510860542282247
Ni 2.9493009050887986 4.398923813807762 11.909890904859575 -2.3419145112682376 1.4092429828570374 -0.3415000925295796
Ni 2.773484039718898 1.6604056838472143 8.2611712100845 -0.49655458243598355 -0.09481097173431413 0.7397714284119324
Ni -0.05088964958863057 7.2659514421529545 3.4725339828344683 1.0059988763504417 -0.5033536076356879 -0.4232236349523163
Ni 6.0137545918351565 1.3877013935155784 4.142799921973952 -2.3428889593663653 -3.2657177906555304 0.9375208860837014
Ni 5.304982374716984 3.539436789603854 5.352855120157845 -0.3618904832604735 -0.24329243640889067 -0.18123114830177176
Ni 4.855036129992265 2.0179633140559323 0.8560453876413858 -0.06211630971477044 -0.44363690850134563 -0.41371389568966815
Ni 0.532772791324386 2.9138320227340317 11.990935624464896 -0.621350273457846 2.738416413954994 -0.5014821016445878
Ni 5.052452874086091 2.5695472804863284 7.576046156443818 -0.5987718739366978 0.2484747519407785 0.8115946810018215
Ni 5.560827768761297 4.425581361417884 9.349570377225303 -1.712833187714721 -0.45483509121001026 0.27418321245047617
Ni 6.381380988279563 7.127103062619732 7.3599989348063986 -1.1993905712741473 0.7672140980039174 -1.7401300757574611
Ni 7.859114476553854 5.078654020636501 2.891002655441087 0.3499281686922748 -0.07348084279797022 0.20928471200487828
Ni 0.9189672594532012 4.512446591680636 7.804362183710885 -0.5340762335305254 0.8458577159497496 -0.8784191948255388
Ni 8.521510757420875 6.447139998107467 5.829036042939402 0.35741367843604255 0.5347082106875695 0.34188447245219183
Ni -0.29059055471867873 0.11259600429243735 2.203273321467844 -0.3020611698076669 -0.1328203610985519 -1.0088499726459916
Ni 0.9769031825453459 4.610544876596709 5.167290832155522 1.629898912813335 1.6395004404588411 -0.9935261978047276
Ni 8.848210087408651 5.310952845722606 9.803394168096107 -0.6330097120736453 -0.6872844142568099 0.309447434969409
Ni 3.371760628850042 2.3456592749292025 10.581096916691815 -1.3791397357137538 1.082927054267064 -0.16062298513311693
Ni 1.9457401749333314 6.525249779469619 4.857453192747272 1.0090399771696106 0.8990718380788838 -0.9716214273118363
Ni 6.521132855624869 0.47814531019978695 1.811723126617918 0.18862101300793968 -0.043990546648337146 0.7620443808775198
Ni 5.4908121204785285 3.1730026244991034 2.927891969665366 -2.732223397770404 0.8482408714699455 -0.4606678958417034
Ni 2.456704447049353 8.385223812406444 11.00765586711386 2.344421851071124 0.39516004394688076 0.7694429873344362
P 9.048914781993872 2.176856082987122 1.568329098627138 0.6914449733924027 -0.752431283267788 -0.4627162937302999
P 2.8701199783824243 6.914522626174655 2.8612155005643682 -1.3796400723889402 -1.0340794366367416 -0.09605898520880231
P 0.2755749598541514 5.775652953275569 1.696433424642445 0.4427539916757601 0.9311975149688348 -0.5715824580060995
P 3.3231120016076714 3.6973888134935966 8.98719352439832 0.858904521831379 0.6084322798445974 -0.864449620019324
P 2.70330073390399 2.5114353169854375 12.826017300573753 0.8422458302287752 -1.1447641421785186 0.9340038740693786
P 0.44264010204638976 0.9911540727771719 6.923161646233491 0.7178049514431701 -0.005097983348197672 0.7755789250288448
P 3.1659982653786245 3.308274310013358 3.768794156431652 0.9210514276737686 -1.375435290278973 0.7571428298108444
P 2.8629013901931004 8.357234318846551 5.610726376048838 0.9693115482317372 1.9671697977529152 0.7099440606378548
Ni 4.842312786164373 5.607688048994184 13.255589429420631 -0.010370801711362785 0.1970048661962607 -0.3014024531777454
Ni 0.4471771011522215 1.4234590193979184 9.195837734561062 -1.3671581378718454 -0.8111807333928546 -0.8818963547408618
Ni 6.193986438884721 2.3546662101280105 10.225795211721103 0.8620029582510444 -0.609003578967035 -0.11612156028663227
Ni 4.952780471229378 3.5277380195834795 11.855143269170277 2.344182481366808 -0.5274638704203304 1.137042605164545
Ni 4.034296624327178 7.277696783710034 1.1130401672115853 0.26726154562997845 0.11323909653251465 1.7189981788748525
Ni 1.3177975169209022 1.4329409842711205 5.041299922475902 -0.7761926473534437 0.04351103590875732 -1.2707643950314438
Ni 4.496025467838342 0.6624195666353729 9.556742926828157 -0.42581916359363436 1.3235422009541076 1.0502295640340429
Ni 3.784207472219643 4.104340215531971 1.0532460398048988 0.07218320703246923 -1.0552411583160213 0.9872838164394416
Ni 3.153833779991196 5.944847346125974 8.718484140485266 0.18120877970426857 -0.1818063040789514 -0.9522476507709149
Ni 8.264277531582744 7.05942530547957 11.64877547572169 0.6979475503976109 0.9915590467760277 -0.7594943607621566
Ni 1.1130224700276372 3.635141297533274 9.769545043787952 2.8885896645096962 -0.4124494271549477 1.7608230853304383
Ni 1.9905047360144792 9.008742174431868 2.844501907471565 0.6226152562131986 -0.38271898997005055 0.41933252742802624
Ni 0.9473395710448127 3.8491561373088734 0.8410335184997949 -0.9134535607218527 -0.5090817683687168 -0.43198518319503015
Ni 3.067853408925846 0.28404911667305033 0.3205695843266234 -0.6730379316401247 -0.02682174817853445 0.8856560788936101
Ni 0.9000601469815779 1.445813357016469 -0.07068907270352771 1.103691540507925 -1.3511244814477505 2.08181220239086
Ni 6.359389908647314 6.225142796940577 4.91881305521799 -0.15700338610265865 -2.1021974509154315 -0.5542498802649228
Ni 7.677187425568216 3.922385221624309 11.980029501999246 -0.5898840845287647 -0.6763099175231772 -0.7481141439496729
Ni 2.2773854021192124 5.585818055357368 13.871679631341557 -0.2890873832558183 1.6108807198396191 -0.4334314287232535
Ni 5.949048098736794 0.5321347612715233 6.451206624692575 1.7621112080142425 -0.2907241475282929 -0.7477058527676607
Ni 4.052757581477165 9.058769319160717 7.393943996480168 -0.8802415927462582 -0.6918558356775762 -0.8174843070133793
Ni 7.294481165538629 4.3955799774723205 7.375907771744934 0.14087177064811868 2.049073317396942 -0.7475474728129254
Ni 8.371121951092075 8.712984973431102 7.486603657339795 -0.6143887545383483 0.47133848818167207 0.2634804813209914
Ni 4.22020088454745 0.8411024443741189 12.000492103796827 -0.029118514632511146 0.5186591276445067 -0.21814987570499203
Ni 7.378281988686171 3.422383889248718 0.9323230447495512 -0.663714854466986 0.696540128527123 -1.967013731791025
P 7.388211040311744 8.07405143275622 0.5812882239717797 0.3635745558311158 -0.6520484738726512 0.014851720300851844
P 6.50676087939761 8.26258232764667 4.9011587170837405 0.638357863759436 1.0133789708645966 0.5274841821353045
P 0.14169576328738565 8.64372378404296 10.332619139754282 0.7908834165963993 0.21262200390822736 0.09075197117359209
P 4.16270366533107 8.030190359487154 9.298885642398176 -1.1684411740804845 -3.0860730130042726 0.06181574775521612
P 8.129257332366699 4.496863755499038 5.032630165202842 -1.441015390172628 1.0054975112339908 -1.0446096467441044
P 8.408658609676559 3.1355777376027136 10.000505402909146 -1.4099364093796363 -1.3665590708352657 -0.2475103311449802
P 0.6819321090841652 5.222811555354129 11.709385536451453 0.23432082903789964 0.05246515977825157 0.7105732095814213
P 5.9203134605896155 4.92658863898631 1.940058447455283 -0.7913097055005405 1.4273916287416064 -1.3797413738534947
Ni 1.7855340886670517 8.833055709364743 8.28358236497783 -0.32430584013848013 0.13302013581418382 0.9787845207191788
Ni 7.467159109334593 2.2525814016699623 7.955981410039439 1.5036155815023524 -1.0232926304338827 0.11011957706692647
Ni 7.052849404496779 7.45460342303884 2.748298152668664 -0.7538559315294564 0.32460434521550546 -0.356942652336895
Ni 2.2866997094602755 2.1395336534714833 2.070452230215023 0.6263634104017213 -0.14223008444822605 0.09989121447069893
Ni 2.4092666797613203 2.914567853013976 6.5358913756067825 0.7971527945448788 1.7347734394312382 -1.258020465102214
Ni 4.508152695996406 7.945383591146777 3.950582424237908 -0.034526830132276025 1.1866615537432532 -0.988666298609265
Ni 4.213094068046219 6.408709166018242 10.800265362719223 0.08501481157949875 0.205683110696549 0.6276620746084868
Ni 7.604098055862897 0.5177041049080147 10.939807658149356 0.572681347497233 -0.22660417711993233 -0.8254398144150301
Ni 8.21340278488586 0.22727841342927274 4.414276586598037 -0.3154103374210632 0.1767304322179408 0.3678749829786826
Ni 9.269524151366944 3.1619744846072853 6.165552652864659 -2.4913462556712256 -4.994816291189179 2.155781040568842
Ni 5.389295484768286 8.943625851810499 13.591028373986527 1.124702081321321 -0.6776036966339363 -0.1540643580789927
Ni 1.9374597557071265 4.83141504657533 2.8830957399392587 0.6196330336564231 1.4109067437127056 -0.3802615295684935
Ni 1.4728621055349154 7.804625778608638 0.4131361021128393 -0.5993313459845936 0.32890322970117547 0.4445187968856667
Ni 4.2595258901414175 6.73428146481775 5.867465943597893 -1.0028071088860215 0.3650071745125843 0.6726648645714222
Ni 3.5725118949719676 1.1336536607880914 4.987928941411613 0.9943211829021973 -0.11215357677781974 -0.10104229735600662
Ni 6.789124106441927 6.326370689123246 9.471321414203272 -2.5446560228379593 1.051411757267602 3.2770401576468857
Ni 0.9151828563805274 6.931400151076661 7.450423161904171 0.4605226285130907 -0.9428212152506924 -0.23715547027321737
Ni 4.979670876523027 5.1021074465212966 7.111616163803746 -0.40305795863771876 -1.3026792414621695 0.9474854534955811
Ni 4.285456921778936 5.306742778804447 3.735081021010675 0.1644863247432651 0.020156420343216897 -0.45704418304618705
Ni 8.141039931153143 0.5847196147962272 13.209361590656203 -0.7591562606964475 -0.4412226426328982 0.7163566490324178
Ni 1.456468924614645 6.680351625312997 10.151484736323368 -1.3299725299604839 -0.8575328382948328 -0.2633462697359723
Ni 1.451150455122898 1.044757911524988 11.24487357790678 0.03266560855382116 -0.8070186315953649 -0.25308525412959637
Ni 7.507601831809486 2.3823390172383077 2.947031939820516 2.432302928454824 -0.3764964060991064 1.1014464532274904
Ni 5.710629773727609 8.434952899300379 11.112925237251817 0.0956838612575707 -0.6827147926082565 -0.2412391534242878
P 6.0868719044625 5.452018030403003 11.478942121387687 0.9989820787129763 -0.12383178444669643 -0.6177586994518458
P 6.2800320101014595 9.947773383328451 8.61234201974945 1.5680523118201832 -0.4960339340458232 -0.10114154193803225
P 2.501673922892004 5.3312580357261234 6.649108644198869 1.5295636688266818 0.17412744737745495 -0.27932927542778985
P 4.315430362802476 0.02690717104686214 2.2751984027555308 0.19673181504053217 1.4211477047144234 -1.1650516887829614
P 6.243594439783222 1.65011337423534 12.752006745872402 -0.07324044465238999 0.5977051232350803 -0.7573217785908699
P 7.1547013552713 2.3319579288304992 5.564349508366954 0.2827113045261454 0.30680279825771034 1.2071612163585017
P 3.7828103261184833 7.583317836184986 12.715145374570145 -0.7431593710475589 0.6307170593847267 -1.3549327994502471
P 8.22865962031052 6.446664968433073 8.119011594291528 2.1264912904657893 0.4032736741929506 -2.3616407860525714
