# total energy = -340890.56298653805 ev
CRYSTAL
PRIMVEC
9.07350121241753 0.00000000000000 0.00000000000000

0.00000000000000 9.07350121241753 0.00000000000000

0.00000000000000 0.00000000000000 13.27998618793049

PRIMCOORD
 96 1
Ni 6.075824972835008 2.1654182386835474 11.609616234447858 2.8852634283499405 0.4773895794717585 1.2386104360067185
Ni 4.880173449559433 0.31523792385224947 5.9849447866288665 -0.6810757143429367 0.2086820454238729 -0.3065775696207817
Ni 2.9195985698804643 1.5799052179285211 4.752309673199913 -0.23594113825014204 -0.9413752268327853 1.525854852516527
Ni 3.3526767735165626 4.28365427206838 4.775788264436636 1.097283322988736 0.9447300022376312 -0.3571833075927913
Ni 5.281058871580176 4.161279963825344 3.2026945237230655 -0.35383290306331966 0.32054045955877697 -1.2163629374624279
Ni 7.202154948325547 5.870609600288651 2.5798894137800152 -0.4495190783137355 0.24194672101427367 -0.23755964769017154
Ni 5.368636303415408 4.680175340098992 11.49623104366433 -0.6075755882712569 -0.48780640392970825 -0.26950457602788425
Ni 5.526869087685468 7.968648020405225 12.334517285206616 -0.45712337302355466 -0.48205047528253747 0.14236326759198062
Ni 1.968232914538991 6.187138683335902 0.3243186836720484 -0.17668852323641182 0.9037977827996435 -0.4322844596030039
Ni 2.42246144905034 1.5112369622168516 0.2890590587122773 0.8936051585373579 1.1122759397428263 0.9929919225678124
Ni 0.5183654838141385 -0.0458928608039183 4.770927589940766 1.1209217883432825 -0.330497827881805 0.8329613196030557
Ni 8.809743417862988 2.221710239005323 1.366178901426357 0.30911293444812565 0.819945109849046 -0.1272726918074453
Ni 7.082194191353562 0.6084372210794892 4.9518940310138895 -0.69621822641133 0.7045789396711994 -1.2283620188058328
Ni 0.7292536091975643 7.2807586876530035 2.2446226437784613 -0.04595666923577247 0.1669476417995641 0.5243824032815292
Ni 7.6721895216119655 3.7262781779732217 3.955563734022739 0.0486648121955549 -0.29621679521174793 -0.6756234329791139
Ni 7.575211942721066 3.9099530591005114 12.722306015856558 0.21001259130983832 -0.1713087469817372 -0.8730784993389156
Ni 8.09163025321653 9.036218003296824 7.023147476122421 0.4852113895090225 -0.24708892733684545 0.1314458493485285
Ni 6.54279270277701 0.571140595140956 0.41903786815932254 1.0353436480611458 -0.5336499446263842 -1.1209223025639148
Ni 1.9765623884744181 6.451576797033166 9.172791433284466 0.18822763422426295 0.25939859794213393 -0.34863644646404474
Ni -0.16330850074007855 4.762344965326909 1.275493795492123 1.1371621614615448 0.16230397237996563 0.8955481411963415
Ni 6.61976321192105 2.038362003914717 7.031141230520147 -0.19520072310798642 -0.8837773738136586 1.2793477658250805
Ni 3.5433654709315263 4.262068413144217 0.6088845446797249 -0.07715957720113809 -0.6900771465105986 0.0676261837894061
Ni 6.148104481952233 5.739234379034784 4.9261443424721145 -0.2665326378837538 -0.7372748872423237 -0.3776410612265109
Ni 5.4819915516455735 2.737702094952896 9.550301701980104 -0.6770488525717308 0.3081788526696306 -2.242832937183028
P 0.15003669079961088 5.692868788827776 12.463970738944663 1.0529590471500638 -1.6701580174436979 -1.1074245251877959
P 3.961789970421966 5.91267435101266 12.640953005720348 -0.14321481695899851 1.7513172027225326 -1.0804027451833134
P 2.3499913964117165 8.597713846051374 1.2903117300062255 -0.8904005355571311 -0.9680380808359522 -0.028613035751002335
P 6.675710419204105 7.703620129141726 5.781083180434541 -0.28980574947908155 -0.10114642703403871 1.696663262823078
P 4.677997699854435 1.1341059658638077 12.795345884359174 -2.393663104595439 -1.3411635135802966 -1.2574692205844344
P 4.303334695778555 6.309875931619696 7.9035574461453395 -1.0264733421547096 -1.3448684732357097 1.3885564010419635
P 4.882387383808066 1.1969671809233278 3.627893299074278 0.06350830496629062 -0.10677148653029998 1.3151961429822576
P 0.13762686345594669 5.430535727366916 3.590204697891725 -0.050825053071667306 0.7266685724813872 -0.318267090143568
Ni 1.5716120379971699 1.0741754916334194 2.706647130365322 -1.1086985068042132 -0.34233621527762975 -0.3660132471795955
Ni 1.4968191690976862 6.584476366458222 4.901683091075037 0.8650435448495812 -0.029575399664271643 -1.45052487232496
Ni 6.007193011127414 5.857997433872263 9.325232601854108 -0.385952923526316 -0.23098610823771185 -0.18993767493683417
Ni 8.59274156749297 2.5754134557273507 10.433859269506508 0.5244387104407613 -1.2957511468837684 0.5325438560463991
Ni 2.4240220912256056 5.4751682788792975 6.990013772451399 0.32001261207976495 -1.3586804394181373 -0.25645545615341
Ni 0.312893331188944 0.11498031226266497 9.41730323139394 0.972726744560873 0.7045977087242768 -0.4380663563921036
Ni 1.3974008184326805 1.1637400201918089 11.495646710198708 -1.0153762038002836 0.4401103834053259 -0.4658805503908944
Ni 4.255118111363675 6.6874787500257264 1.5306116089426876 -1.1012592769173486 1.105767192090031 1.0053702416275072
Ni 5.701751746325361 8.02627382537679 7.855324529428626 0.4875012139844636 -0.1375959281103243 0.24627671584819522
Ni 5.439436831866539 2.745260321301709 5.167973106330275 -1.5360197088646708 -0.564763378201737 -1.0430764979290295
Ni 1.0663178397509794 7.457719178026244 7.0124434669703275 -0.6269956446690815 1.0939030936625933 0.15537870601504208
Ni 5.2038524514096425 4.193400157432547 7.408266782772579 0.5518142742402368 0.9427818773723247 -0.8690066432623873
Ni 8.058720665020676 7.368063914457666 8.817352455817508 0.10650974822848108 -0.44928279393321335 0.9940661294685976
Ni 4.851855052879184 0.6331706775071371 10.485146326666213 -0.8423862124613815 -1.7458394674374127 -0.2173006403308193
Ni 8.064010516114744 7.398550877881451 4.207285336041898 0.6603911894103917 -0.5089077046846977 -0.35208249603111624
Ni 7.169290727634787 5.897548824814013 7.1517634457164165 -0.27824426989372725 0.7824247443060848 -0.6492475140887464
Ni 2.3834272476666722 5.372057013299566 2.526344869566788 -0.7512200365685062 -0.4979864297865037 1.2564538919460426
Ni 2.2726488737258985 5.26825616164239 11.226063014073578 0.44152706124719443 0.2085432058531634 0.65798052308637
Ni 1.0747834162016914 3.3531304485675117 3.854503079673297 -0.20476831219176345 -0.010122690256298696 0.010401397838982087
Ni 3.2473062061831035 2.7098010793195204 2.8328069032334766 2.2496129362193384 0.6904394149460239 -0.9274442185739898
Ni 0.9661100944973221 3.6710568507716856 8.159209688805923 1.865390622230884 -0.7176910515731253 -0.41200925429373564
Ni 3.5486281015225374 2.4958116312878054 7.165335588540612 0.025502772256794787 -0.18690454453746522 0.2367638912617535
Ni 4.1174549539036525 6.933370627640189 5.827815340082715 0.06278248254385962 0.4114191861182205 0.05254434975561919
Ni 0.6172294435668845 7.347603169659857 11.010423096206509 0.10108009257247752 -0.19194030718915978 0.786264172656833
P 0.18864715968569276 5.772470613267322 7.897182404329402 -0.03877429255472032 -0.8447698822022097 0.6777895873924972
P 8.65034015196148 1.8337999234417266 8.217708364575515 0.5268982277248474 -0.9027783403961936 -0.8922784693061343
P 1.6935054506861986 3.355925086881359 10.375838767240614 0.86738067762319 -0.9727262303402407 -0.1891707148638226
P 4.067686800814526 6.139847596024958 3.805526135873026 0.3119072093638112 -0.7629368107848021 -1.0978139986812254
P 7.025385001473704 4.004762071247874 10.292533139685121 -0.5877629244207039 1.5604580444126932 1.1159598163523168
P 6.161270131930778 7.904543735706104 10.157051251870062 0.9052010909050732 -0.5671632458924813 0.9895936955195408
P 2.613376983990779 8.509356093128508 5.588231360376652 -0.7548936287653515 0.9495881016608808 0.758477489461868
P 6.854276919257707 3.8653568015922057 1.6487104835055775 0.8836313351540975 0.5587732220565731 0.1553187993113841
Ni 5.37379912549521 2.8038388438802686 0.6008436080767016 -0.8040988868454086 0.86816434986675 0.13395653158552412
Ni 1.498579428295369 0.719069511653857 7.037064411985339 -0.37526433346421817 1.80999286218687 0.1410895430858796
Ni 7.123351591975672 0.6085252340393733 9.261422298588002 -1.8077009808288997 0.7599147361290268 0.19667473655035161
Ni 2.8178664764556176 1.4726201418800564 9.49739411753841 -0.3830987419069725 0.9211193047972265 -1.1522460523778606
Ni 6.626305206155738 1.6990130658047218 2.38491257978348 -1.0693760550555067 2.476055390950426 2.5321717743280194
Ni 3.9766342180890235 7.188662652310318 10.578756729328965 0.13608103412769468 -0.6314102287970093 -0.44200271533203234
Ni 8.23217878400059 7.085850812264212 0.29037653106023376 -1.5869758881975635 0.5746394996648684 1.4997208744336363
Ni 7.702948690066321 3.825460617611734 8.24596778349914 -0.4137164667928294 0.2626183904310122 -0.05417365782892605
Ni 2.9912157134233035 8.561120416441812 12.463466252288008 0.44708887160568805 -0.7830353813068902 -0.4641604823759942
Ni -0.006809662514747363 4.9242525175096565 10.122004854184237 0.25107310879557404 1.0351294751678108 0.13828112710280702
Ni 8.757334875977337 2.2758336725835617 5.8782794306999975 0.9232798027836552 0.42227155545169215 0.27461310089904317
Ni 3.6589890944164374 2.8498596410485546 11.43305860751986 -0.4949245030317282 0.0641017155759154 0.538228565136002
Ni 1.186015465193414 3.577291291241507 12.719742751818696 -0.687814318618351 -0.0933608695513489 -0.5048134800106661
Ni 3.196331277458452 8.463099384933729 8.074204594509572 0.9034067180088118 -0.601797548136899 0.07683458976155154
Ni 5.570930008633653 7.844722143487943 3.931473588817337 -0.5828531458239122 0.9572690152449063 -2.028516319181197
Ni 3.055555909148918 8.289986058992536 3.3769012065370454 0.2960267906881289 -0.7756766269489738 0.6501348017897062
Ni 3.7376744952530654 4.317126417327411 9.134120171941557 -1.530315973611674 0.5857564355136363 1.067113484273575
Ni 7.417151554970368 6.354798835164685 11.405967855527479 -0.9889079823064261 -0.8441628447458301 -0.7736158877652032
Ni 0.2824834925238197 9.036263370801919 0.3163031528718781 1.817114817943632 0.8867541970537953 -0.525703693196114
Ni 4.431761029201252 0.4192973702884655 1.6548986112005244 -0.20660536540050223 -0.42000229980154125 -0.06425932419970223
Ni 5.96830398576005 5.773423330874316 0.29413023843178737 1.117607893478701 -0.8737804105019467 0.19801813795212347
Ni 7.818817298078745 -0.31883465965617463 11.683293062722006 -0.12413028952372171 0.6587983910019751 -0.902181330242143
Ni 9.107435912794829 4.77198102340907 5.844721087181286 0.4116886377295233 -0.025210952047988837 0.33696646632528415
Ni 8.003208985786534 9.109159877988434 2.1605738964895123 1.2467140389504592 -2.4795952857828847 1.7518013414478026
P 8.644814389840919 1.535100269896779 3.770771904920013 -0.038993350544061875 0.9241449789974278 -1.6329644391125362
P 1.7496341279896326 3.3177800885975506 1.551859026278842 -0.9246430016797688 0.17577398184194243 -0.4431085468017015
P 4.902294645043715 1.08783111066699 8.151480880637953 -0.14713009285300466 -0.48615087060415624 0.4499481954313541
P 8.235608567385766 1.6486732821513996 12.568032907431183 0.4806651648992368 0.3023491333617309 -0.6296158559007479
P 6.232134174889042 7.688512749945118 1.5421512875386314 0.6580489144304603 0.10556666758892141 -0.11072378630982867
P 2.016077485412093 3.3461075587788183 5.997786512621033 -2.514309035114986 -0.42574537293290554 0.8257894844449648
P 6.9352216218480605 4.007438754048473 6.017400699773771 0.6855424918650387 -0.04783768830856923 0.32606087515637394
P 2.2287331287940164 8.55230097345136 10.17811356978543 0.9964983930591741 -0.20815214106233182 0.3502783529428419
