# total energy = -340886.63299943035 ev
CRYSTAL
PRIMVEC
9.07495540136845 0.00000000000000 0.00000000000000
0.00000000000000 9.07495540136845 0.00000000000000
0.00000000000000 0.00000000000000 13.28211454045802
PRIMCOORD
 96 1
Ni 6.663349378782924 2.0773116945424883 11.535768146691703 1.1923753162985786 -0.45055986087342403 -0.4743713614707249
Ni 4.800460725657654 0.48987061906306867 5.500867582826659 -0.6615047341895446 -0.43468509862469656 1.6677584068632698
Ni 2.540197934324446 1.6692926338873513 4.774309427263715 0.35326494637499156 -0.10267726185626831 -0.3132169293141703
Ni 4.528021495659926 4.8152166028095245 5.396562770267953 -1.1897574190597573 2.8431402739276455 -0.4730053343611338
Ni 3.639701356197961 3.0452464159560897 2.9264879222536053 -0.6046105921056619 -0.08389406771149423 -0.004307369126102259
Ni 5.36741855164973 4.7200747725141925 2.7754833902462375 -0.3302402033450441 -0.03510018613724277 0.03147750178299095
Ni 5.46660781196335 3.1998745775740005 0.5766761955135624 1.8650250113613491 -0.13209531000706928 1.3977200698191026
Ni 5.749800863870651 8.601496635364812 12.155392475175093 0.21244716889325993 -0.044746708088071324 -0.05692036733612777
Ni 2.29544639263567 6.625996863188152 0.1640034978329153 -0.7404859379804538 0.6592573329162646 -0.49440925395820656
Ni 0.6467493695700716 0.35179063824862417 0.3879334623155091 -0.31377588714143384 0.3705707846432908 -1.0328638190620858
Ni 8.609164972507083 0.24701120553306596 6.244559253803337 -0.3898365748514383 -0.9616080089398922 -0.2612279378413888
Ni 8.812652692910769 2.72308550642878 1.3109326355709294 0.2233589307097573 0.7376163297421425 0.2037658390691781
Ni 6.957622950986926 0.5261876822697543 4.4626972456585055 0.24998347527582107 -0.4028214171468804 1.5788856549902615
Ni 1.2111253708083292 7.518800030517905 2.177987432517533 -0.044622780915697345 0.5025941037618441 1.3628949917201174
Ni 7.906155418187305 4.21271217730707 3.7674186456718632 -1.6488847098872181 -0.7714317356296908 -1.0811748474626475
Ni 7.933334909005173 4.151002481960994 12.4225219488865 0.17618972922312237 -0.18871974336933306 -0.282438767591049
Ni 8.146714330574627 7.345495611102608 8.304894429657015 -1.3950391805528295 -0.9827375918296558 -0.09145953876357797
Ni 7.3785919727095415 0.9907582337364516 0.44472997691741395 -1.0297463564790266 1.6585026925929565 -1.1742377261576036
Ni 1.6043885543115959 6.556528081147826 9.285101212984808 0.8813826483292369 0.6139928046515103 -0.6706473199207612
Ni 0.7129602426943321 5.275144407196949 1.2371214874683836 -1.850530160179284 -1.2718604563090998 0.40704059743455057
Ni 6.897401548293313 2.1556013330352237 6.714546646027692 -0.8238801832373939 -1.9606273686487072 0.15234763249820216
Ni 3.9405179710996867 4.705827092853407 0.38194580687590013 -1.5672079615420171 1.0132169913654356 -0.2114629506031197
Ni 6.496361128185402 6.116846501807033 4.588824602981727 -0.5717578072416991 0.22854201757259351 -0.6331670635871159
Ni 5.3559568832347155 2.7056162176727216 9.566801434762048 0.7294307086075568 1.1460134412045877 -0.7762600102562696
P 0.5866522937626715 5.69888129025494 12.211934891031456 -1.2151884575383525 0.7649659253996891 0.12152961867608103
P 4.33251066087524 6.604471069458609 12.36313816455766 0.6331914890671482 -0.46993209475244874 0.37152260703359885
P 2.5599904116111802 8.882756721814951 1.0885780833107002 1.527856456327588 -0.5633788391493846 0.12854538787228184
P 6.8425162192560975 7.855898316301045 6.006185590627682 -0.04234401218384966 1.119939369825355 -0.5898853700803454
P 4.939561638931869 1.6896568333515565 12.618964781570016 -1.5239481224121174 -2.157691627327994 -1.396907601220136
P 4.482628569759768 6.117563423267672 8.129663397253195 0.33446221184619174 1.043184227151487 -2.6375252974648706
P 4.867824118092055 1.2590955839847058 3.4983099242317834 -0.43890170780920534 -0.9957008368585433 -0.8877355871304583
P 0.24474065174253828 5.908131607209326 3.5164797995291237 2.3018127581513457 -0.7546100360866617 -1.114076740396991
Ni 0.9681071455623623 9.078403680927607 4.145268017771408 0.663003173111942 -0.5778492648514177 0.8904727835559632
Ni 2.0807964773385024 6.684503099349351 4.7729273115870665 0.2730187598287298 -0.21335039743381964 -0.5212664833603667
Ni 6.284406474582026 5.836820609263816 9.474171552065506 0.6281228162949892 0.5638218402240741 -0.5423718978804143
Ni 8.786843520327793 2.3019077607366123 10.028660389615595 -0.05987893574381945 0.9424170378337383 -0.5288993173152763
Ni 2.6161008596001194 5.165074275600985 7.127315538233438 0.6802079670260027 0.8298752244785643 -0.583868217351988
Ni 0.405830181461391 -0.11489256278815638 8.969239229860397 1.7768469715625206 1.4310587931805483 0.49389169089183976
Ni 1.56856063119008 1.2898687570609622 11.320757955673177 1.4030779916969063 0.061907279027757896 -0.5945089848952857
Ni 4.200597112117804 7.1657025987207765 1.3606334427035554 1.2570691569325383 -0.3786921281988446 -1.1272287043979166
Ni 5.798034250747768 8.087854171160707 7.897917173858604 -1.413786636363662 0.36135749357513897 0.4642005915853102
Ni 5.174212755485323 2.8416044213140386 4.999042525281327 0.8013308371819683 -2.4034564365367768 -1.4393809398929986
Ni 1.0575226791277872 7.507574310938039 6.92157541394962 0.34055392656622646 0.04875582924746442 -0.44951882120341935
Ni 5.302233148462838 3.958477307436434 7.485215436321323 0.19853415835659355 0.20619578866690938 0.857325093159401
Ni 0.9253096568488189 7.663073668254952 11.287552694603868 1.2925712064938901 -0.5133135470618772 0.6039727014113468
Ni 4.654054473449088 0.6053058641720627 10.013744793252242 -0.47046457021715105 -2.1607345279193755 0.9657114895853045
Ni 8.50241627451357 7.4439316501347985 4.597909540630397 -0.6715140387964306 1.8047652952393434 0.6798035324987324
Ni 6.460351705959926 5.968534509006897 6.95808758869306 0.2505527175157298 -0.7148129586943819 -0.02428329802739689
Ni 2.7288662528898757 5.567258140063839 2.4128018982645507 0.619442772022488 -0.5071156457812814 1.4232374973639166
Ni 2.6640347729557043 5.393554422619832 11.45529235149178 -0.39462833981312684 -0.052996863912005504 -0.510541897854011
Ni 0.9858486829743592 3.7348159616276995 3.435046596555818 2.3641172726175217 -0.5582921686550965 0.2608098764673637
Ni 1.6639474852757572 1.3431115192073488 2.3723049106936878 0.1757086758216458 1.2641438043911326 0.30766051827231533
Ni 1.1875032624280593 3.4793196729845484 7.8449747927292695 -0.3076803157666572 0.18796049660580533 1.8122235512896014
Ni 3.5905967736218405 2.6521465816463863 6.755097175834223 -1.092398741202925 -0.060209579610360824 -0.27334786103337444
Ni 4.359390678171575 7.196149073409907 5.907951015600887 -0.06537286897885515 -0.0952773698477714 0.1375095390441051
Ni 8.849143087761735 7.253938388110467 0.39022488850299214 -0.14448879857541566 -0.06056027808156022 -1.6938229651608052
P 0.3591731143021585 5.61365838599097 7.8097503541284174 -0.07260306817870722 -0.6737485845539042 -0.34438487027654235
P 8.723718131970836 1.6875695936560275 7.757671001238409 -0.12840603408094015 1.0166399010040554 1.9788240941623922
P 2.0949897072680996 3.7518678024446523 10.064509185134067 -1.2251386267725288 -0.5246395135976577 0.01536285560931548
P 4.420583101071368 6.467194222179183 3.635792772994203 -0.21187509843987384 0.4114762646084011 0.5436011423018251
P 7.008188601349917 3.8344952695220087 10.228144239785946 1.3828992027561862 0.9371326495063473 -0.23675746350385032
P 6.623664599702278 8.047252821605069 10.037599220485578 -0.45880513160135183 -0.668405832184752 0.4254319554575447
P 2.5892026923933886 8.666663888641308 5.780416132726463 -0.13779287461247883 0.243631050695232 -0.7614594549083273
P 7.114655975732294 4.22804885159161 1.7117852041062436 1.1312848767451613 -0.45165155127570605 -1.4515674546568613
Ni 2.897460770557435 1.8793687717647511 0.23597243003027668 0.29327468186428846 0.23403029438067438 -0.33636508529585946
Ni 1.632412015962873 1.2266889189728176 7.1522589600905295 0.6676327014641533 -1.2426640372508018 -0.6124622269395968
Ni 6.90734769919027 0.8342442964284064 9.01984390253074 1.0339393115144515 1.0389138819109074 -0.5191864609028864
Ni 2.990696860261198 2.0933652902876663 8.988816630708941 -0.34588819429494627 -0.3355906690236801 0.6855450629682001
Ni 6.760941446981704 2.0635994372383824 2.759930732027987 -0.43583309618621074 1.6923270973415694 -1.1725222861283937
Ni 3.8619560839510125 6.949827564471884 10.048822217578886 0.9431932538781306 2.71721509728703 0.6464748364396156
Ni 7.584266757315934 6.829357534219067 11.623377764172735 -0.28749561328866613 -1.1378751283681694 -0.22340623900792492
Ni 7.7397842645432435 4.093866564034686 7.886002665179212 0.9785621202957275 0.03917409909630028 0.5424261481571174
Ni 3.1799096761385055 8.489384638849309 12.205838336129471 0.47019640415742886 0.9053671841692923 -0.36671592967357486
Ni -0.1969737175625961 5.2170828438404495 10.028275611515204 -0.5454986164348541 -0.8539680037617099 0.321098388944776
Ni 0.3520665168866419 2.6654776908321782 5.808746327863432 -1.0542124599411908 0.6097885367621756 -1.9820166329577609
Ni 3.8849701703330197 3.1399163485811292 11.247015777230134 -1.2201355171309824 -1.2398527930542518 2.0880113892230363
Ni 1.3418138006140414 3.7119198496632655 12.582054216293384 0.15685606189151696 -1.2789425599668618 -0.44223411461654805
Ni 3.2817941981459167 8.78809586414511 7.891754371783674 0.9408221825427926 -0.6713785416598308 0.36622844851419506
Ni 5.85342777727607 8.184829142406027 2.8518028559654973 0.23887733806033054 -0.16488921660863862 0.5455641795654669
Ni 3.4589645484755414 8.467477697001451 3.14983981209009 -0.7912379717223406 1.115340694711079 1.5277651821653624
Ni 3.9995868544831583 4.740638620992753 9.56045259610556 -0.5943292647843119 -1.9357025803825696 -0.6553109466740068
Ni 5.531548191359896 4.823011989324566 11.547324194640774 0.03226914444635088 0.06682657070624619 0.37063480511200686
Ni 8.133374146433637 9.125865696612896 2.474776582302407 1.282311733549411 -0.37127372424758637 -0.38995741670001877
Ni 4.887144697708496 0.5054468721648342 1.1449008852512719 -0.29889279938201424 0.4649374697513347 0.33349727682976116
Ni 6.3972535424685635 5.695532631786896 0.26921762090245543 -0.2976743535938809 1.352637061437535 1.0899973308502842
Ni 8.29410975289977 -0.04845027830634798 10.999902024703331 -0.8594179711326876 2.062261533952442 0.8183651669564357
Ni 8.930636185439347 5.326354379378995 5.572498019195137 0.25199253528604987 -0.7441219920711443 2.0936248787550715
Ni 7.722242376145602 6.751086045636727 2.384245736743154 -1.0540731061498492 -1.7163131758435215 -0.15881627094168135
P 8.765680724806167 1.778173946352384 3.7758529090328405 0.4445051700389118 0.36277031476226557 -0.05210469111503929
P 2.0733277892105875 3.618946933660244 1.4094712215968557 0.6689449925176738 -1.0617617330433584 0.08571106631557497
P 5.007288029574187 1.3739028421940012 7.893826184055367 0.06532813178384878 -0.5740941686843597 -0.7104050594346734
P 8.897539823832416 1.923218955281257 12.289037525384298 -1.1018467739897024 0.4261539212252338 0.9171014418870851
P 6.925706333555728 8.094469813500014 0.7323398095195596 -1.287868401701582 -1.545853407125641 0.5669020218112947
P 2.5624860242906164 3.910661368498423 5.1281845827213095 -0.23101001949711183 -0.4703493847955254 0.10647375278422307
P 6.891992874995334 3.911977237002126 5.628242746489599 0.0955527349963451 2.69422172171565 0.9491132189069911
P 2.5401253346828625 8.79784236602771 9.990567357676673 -0.8408708042581196 -0.07002348037698908 0.02395162571959101
