# total energy = -340857.3133863884 ev
CRYSTAL
PRIMVEC
9.41495364763561 0.00000000000000 0.00000000000000

0.00000000000000 9.41495364763561 0.00000000000000

0.00000000000000 0.00000000000000 13.77973634140963

PRIMCOORD
 96 1
Ni 9.2179457654621 5.533488380888186 1.5762779054738483 -2.109315035796819 -0.176764885000302 -0.7815042893743444
Ni 2.366938182803874 4.637278940942996 12.078986365893744 -0.30037889700923753 -0.5949116196503431 -0.10602638083415933
Ni 3.486545643455225 6.697374368654384 5.012351865289425 -1.52666089335759 1.5353519933736848 -1.0928160312460018
Ni 1.3165023867735677 7.581796286603447 0.622786004403387 0.9954943772746919 0.7896066067665047 0.9421393586923194
Ni 6.371296863211988 4.777693559992713 6.569875183050584 1.8549779115379925 0.5665693210622242 0.9409792769459472
Ni 1.137100444572122 7.87250181110379 7.182177636541281 -2.4493308304713883 1.6166816427921122 -0.13242261143950096
Ni 8.58166436646666 1.781563438307685 13.44837537192358 -0.7313644352951598 2.43148300365669 0.8061724815449858
Ni 2.3973578981149664 6.887424623457763 8.534962430276892 2.044216760635589 0.5093183098595551 1.492547753723965
Ni 4.077032707794782 7.433887364431592 10.815122985094895 -1.3330928207570203 -1.9745216101322964 0.13041869363559475
Ni 0.5594685579749871 3.476226854231778 5.456114408628942 -0.4980612488884971 1.724942312273429 1.4628353142611967
Ni 7.7147730922530515 3.5162404073336484 9.205470010352618 -0.8660313626841473 -1.2089540465928663 -1.0660230794228736
Ni 5.62068026683558 3.193514625398138 1.2065263129422852 3.019567830193187 0.5400072543029797 1.5666361481989473
Ni 2.1378723599877536 5.300204658827446 6.801898242814774 1.6564987747890505 -0.8378893530322924 -1.178319609536461
Ni 6.208060396463699 6.8092899229418995 11.204290095086854 1.1758019853209298 -1.9642927333154363 1.617874377548633
Ni 9.042639328107551 9.192120547542467 12.776461197769398 0.534055664705235 -1.8521764375334553 -0.3434173641569505
Ni 1.3736417406030388 2.7545424104864407 1.8735070513728467 1.8837390428310847 0.6101736880157362 0.20763560643722948
Ni 6.645940476749556 0.5225948919224045 12.555144823319901 -0.3006645465704564 -1.1058016448723924 -0.5807800653449675
Ni 8.21050806284738 5.200406149914545 10.46801059016069 0.8954329557747159 0.8426232681728522 1.9687237725035964
Ni 4.713624800261366 6.430055589072875 7.120596307569818 -1.4517510314225772 1.1457236778783106 -0.5983666680784792
Ni 1.1033572506151565 0.2744110641818941 10.952617085515861 -0.7879078789078431 1.3519631752989618 -0.6879906962952151
Ni 4.424971735661307 4.234949725718941 13.305947835778998 0.0965508372435563 0.7482007901262081 -0.9553977663641224
Ni 3.573323271441094 0.1498879454335058 10.602735752707002 0.14931064544409123 2.8318253631354584 1.0523635796579103
Ni 0.519184795702758 3.077682450383476 11.660715751113905 0.9624443887982586 -0.6035744375316637 -1.3849473435344664
Ni 0.8617685979212014 5.080572619589696 8.59329183425038 -1.682362787040006 -0.3217733035246136 1.198090621515801
P 4.011033882560874 8.495583445052448 8.907690089663864 0.5052104583387685 -1.6815698588250654 -1.242434694848815
P 1.6042892756358917 2.655402948330512 9.78821515828849 -0.35952815367588403 -0.3449168315206125 -0.49404338597835556
P 1.8707324645259946 6.4347254060937065 12.842948659098836 -0.6443978993059288 0.534599195913531 -2.010158642609616
P 7.909653218289668 3.2860542050306756 11.566022030081434 -0.8553731116393527 -0.17491240517259554 -0.7467254911322623
P 8.375072038063283 4.075686369419825 7.034679206349483 -1.1191022186360404 1.4582155561009982 -0.8413767973602606
P 7.956003035212141 3.5017037188655804 1.4407816582218764 0.7079828231464259 -0.5239183191609171 -0.29480037448019547
P 5.048750076181619 8.26470053617782 5.55734022451837 -0.19730259994233762 -0.3289276551812077 0.9244326854411757
P 0.3434763398264569 5.004405644391076 3.601003235233917 1.4177831591175647 -0.03928594208381621 0.5567217388441831
Ni 1.2301296017955534 1.1640648718859474 6.912507943028117 0.09170302223295175 -1.218004843941225 -4.0256772639795635
Ni 8.18423092715154 8.517736831040377 6.0710210383050445 0.47310792137726904 -0.35459472093000866 0.6939440856651726
Ni 5.8511395027950135 8.649838045998576 3.4754698919566276 0.5836607293268722 0.8252251273010626 2.093202703615989
Ni 3.6196730883635664 6.475049652666721 0.20178787754504968 0.7780752090881373 -0.2591736264155214 0.46822205403987743
Ni 8.338024195367788 6.882189909216671 8.874549452741846 0.7091488184300689 0.7124146336655344 0.30244117885490496
Ni 3.962772830043182 2.267808135601616 4.095006795848143 -0.038222276705992236 0.5061836208853153 -0.23285452890501832
Ni 4.709717594487889 1.620624220255126 0.13363867689267797 -2.31054371026644 -3.003616449070253 0.3916219488866352
Ni 0.6144848397516414 3.8639440613583975 0.047237647053650626 -1.0226567966220967 0.9752106873249914 -0.11936397848332991
Ni 4.885664248692066 0.8670955787082694 7.908837883301757 0.21114799046586216 -0.395422553579648 1.3558157162758329
Ni 1.374376106989379 1.8227162008037499 4.072559663305676 0.2443951825547662 -1.1674271309936732 0.5461120816491369
Ni 0.7094506529452033 7.120717760472175 3.01920899761882 1.1200926075737676 0.02229480684245838 1.2216568388715152
Ni 3.1707304375142495 5.096568625876773 9.7691715314981 0.2781429684291726 -1.1693659998875992 -0.17486561109506016
Ni 1.9935128753498756 5.207439120306804 1.7303357338882526 1.2146963483932822 0.7542171715236172 -1.0154217123262383
Ni 9.287070355314789 1.1883272074961875 2.0760274123135023 -0.9664663654734581 -1.6633127123870903 -0.3995502025947764
Ni 8.062495576185142 7.025749122792512 13.589258855666115 -0.2662307903726189 0.12162706348589375 -0.11991830832490316
Ni 3.5606413288462186 9.236060136325158 4.205561889330193 1.2035357037907723 -0.27989491812327283 2.1156165525348145
Ni 6.367144868643065 7.849604643775849 7.681279394568368 0.6791964950423528 1.4335548201295247 -0.4957295154315268
Ni 4.307341304495479 4.741267104239504 2.39666778201088 2.119076228948641 2.2308618808640803 0.22617274600946852
Ni 4.867003810516088 3.039203534729983 9.367630347896311 1.2059432847910005 0.8885485699500568 -0.27930664971997055
Ni 0.555942657825187 6.647795222622749 5.503943314773132 -1.015322724854529 -2.158446246105831 -1.6360865296812857
Ni 7.324862200921083 1.21535753948571 3.4190008828285334 -0.6385992903462809 -0.018195697072420275 0.8936362688856093
Ni 6.112216168092629 8.667189805614282 9.974710326585686 -0.27827383758008206 1.4447473464112346 -0.6939785384475339
Ni 7.895333073756034 7.724489324441553 3.7834612713969786 0.5535970771722724 -0.41857173800260167 -0.5848624629444572
Ni 7.012040950247495 4.377774572908441 13.224426576427664 1.2193037652583065 1.3722432657042367 0.06063895383829557
P 5.396726763862829 1.3990809454221576 10.749227724351368 0.028734134709898898 -1.1225215287302346 -0.2927427206202184
P 4.829325165924633 4.718727705151062 11.131037048049418 -0.0019365549010805358 0.2550889148231865 -0.22369060301756316
P 8.125312147078244 6.478749729459435 6.824827420985197 -0.3060952306677244 -0.7245324999749909 -1.0790889114678963
P 8.903100299749239 0.8289763142850096 5.180381484951635 1.4797215484935742 1.307352992788755 -1.5372232422544687
P 7.1390580902233385 0.7884552951802707 7.968463726395747 0.7747227476761367 -0.4592936412019961 1.6859523041634772
P 5.9641095318936825 5.996826495900506 3.6272954348556308 1.615190917179199 1.548452535311385 -1.8506589724476643
P 1.6947669804144745 0.47570465665921485 0.4768005572665225 -1.0218983211895174 -0.8744938916292035 1.2534942950970862
P 2.5939044709513546 3.1405084362302484 5.916219428550629 0.7187701435699171 -0.3907932823377528 -0.996354154171826
Ni 2.0831149894370524 9.238150256040125 2.6735578034943557 -2.3175322257691313 2.161837016954935 -3.560736708904436
Ni 1.2344134057158713 8.699219478003121 4.736922103120325 -0.5025249410868056 1.2801592059827824 1.6176872012384915
Ni 3.319948038246378 2.7453157558888326 11.099219212118177 0.3256183883023166 -1.008920677982927 0.08435172407420312
Ni 7.623485701458761 1.2628089059876928 10.301441229812855 0.21920582777333217 0.050527576435906524 -0.054219680575513074
Ni 4.85245770709435 4.9445547839043495 4.91316532836514 -0.8930212610094298 -2.6303596329543666 0.35820532109940245
Ni 1.9934093108594941 0.27461913465802384 8.754680145593047 3.0947638559100508 -0.18984331545081498 1.337569111360819
Ni 2.4484905115023214 8.837242698820395 12.484289764982478 -0.49645328097142893 -1.154229915577109 1.2922899278080453
Ni 1.153360069561988 6.5741232101469524 10.682712959656287 -0.050340143015448785 0.4773654111020424 0.1882183782528823
Ni 9.310767793704768 0.21554783233525765 8.65225486460593 -3.5795109041881448 -0.1326928343817521 0.03828295474059858
Ni 7.075507152943897 9.412176259695414 1.081435472487534 0.4138648194452357 -0.4864555463287687 0.6562445142318699
Ni 2.0956839525878754 2.0966819376770043 13.107699039318888 1.0609798605720115 0.7459492750878701 -0.04423403011771091
Ni 7.861580464845398 5.2662825807507305 4.6065937239383805 -0.5006758036932087 1.1575075578871161 0.6752328824089145
Ni 0.1700933775068998 2.7981901357053283 7.8902499402690465 1.538031854198693 -1.1017092199705736 2.2435001384533813
Ni 2.630528640731655 4.386907077969339 3.7173730041031945 -2.1979563883853115 -0.9892360550698059 3.075209330816891
Ni 5.8887428277571 2.664799072094198 12.359334499860587 0.22639077555754555 0.48789664965066937 -1.3915252538623002
Ni 3.1850599970015545 8.772496062424734 6.903620226762666 1.2181701658744957 -0.167057427904551 -1.4599531076173953
Ni 6.7572158141874406 5.463130432104592 1.4535972931588803 -0.6203565420860091 0.5314907321915363 1.835992628684741
Ni 5.030466236152482 7.35385084327418 1.9653904087345138 -0.156920082360233 -1.2344179951919259 -1.3519801445798263
Ni 6.359245722513071 5.590806618837407 8.941051036501788 -1.2169139248698913 -0.1867129973519494 0.5155920586834087
Ni 2.936552294854761 2.451653935935787 7.964067884526743 -0.10771533850080803 0.8408332661519649 0.1917731854836762
Ni 5.1218383615298135 2.810401330616652 6.633000564424095 -1.46688891550528 -0.45840095418439764 0.9791079654968686
Ni 6.354933673731741 0.6281092192089864 6.027587032534489 -0.23350193268103012 -0.025996938284393936 -1.585142948753883
Ni 4.579518200171237 8.566572195732002 13.192678411153588 1.8840187788550327 -0.29197730320910364 0.009261113586951792
Ni 8.556658249516408 3.2128058654700755 3.7400272656264235 -0.7792131793473226 -1.389157782071388 -2.064449028522064
P 4.666342902925461 0.6843259075786969 2.4649883348200645 0.15453744106066933 0.9419406124179519 -1.0237253470959273
P 5.94458291797997 6.5188762620053575 13.50462407113577 -1.1792176958706981 0.7008094453264383 -0.38574337861867114
P 6.021013511881377 2.5287341616404966 4.846663744605199 1.0346515070901277 0.09355935871540016 -2.0171502434361
P 8.990273355789292 8.23303804698215 10.382231888759316 0.05184629524733007 0.6555166349269098 1.3276425962757263
P 3.4082414737732822 3.37068522357955 1.1803640396812316 -2.023281810255135 -1.3599909306994449 -0.4651043343465022
P 8.955569836557881 8.03619019562829 1.5252789844286219 -3.7228913001907302 1.3822458854429034 0.40991869031329403
P 4.373151830655966 4.525419876377509 7.735791976323623 -0.5331989731318946 -0.5366306245212629 0.8511127937011019
P 2.914314174283792 7.383602096874629 2.699036551118893 1.2338757495352104 -2.387305023587895 -0.16440302100083945
