# total energy = -340890.880608423 ev
CRYSTAL
PRIMVEC
9.14204488067876 0.00000000000000 0.00000000000000
0.00000000000000 9.14204488067876 0.00000000000000
0.00000000000000 0.00000000000000 13.38030677493495
PRIMCOORD
 96 1
Ni 6.184703020941312 2.189391744230924 11.467029538101999 1.7729563782588629 0.7029192925805894 0.43142314004397314
Ni 4.695902738956167 0.21016738242443875 5.866006767716647 0.9919794221428981 0.8682468822782273 0.07817027785383956
Ni 3.0969408169670856 1.6947248414115899 4.742823369757511 -0.29246992657480597 -0.597724663619106 -0.4968124640830604
Ni 3.4597885756190543 4.354401654943965 4.476221230494209 0.47752121995361635 -0.0668291418094075 0.40531718698554065
Ni 3.6623580045989064 2.629480639513039 2.341700953439022 0.49708063014278264 0.5897940959181197 0.17462495583916376
Ni 5.308200332392152 4.5419141361158095 2.537146901100113 0.14421806141253227 -0.02655358211881233 0.012554696736559023
Ni 5.054042344529129 4.529051279063068 11.597862255633977 0.6139339263891168 1.4332568292731316 -0.657868680098854
Ni 5.920315084931865 7.990878530675555 12.4925630985891 -1.2298234338427079 0.07710815513791236 0.13036290069699485
Ni 1.8928786627464709 6.578780004676553 0.14700682321620692 0.8640930080108536 1.0660302785117255 0.3300370861953026
Ni 2.7395965692929067 1.4818980381508735 0.18578829151999923 0.03474537390098532 1.1129863355462897 1.0183275731191237
Ni 8.168234200059487 9.036920440293015 6.87268760338913 -0.21074509860048865 0.20900728997377555 0.48839184411953307
Ni 8.903519722372895 2.364114504708536 1.2698940189233818 -0.002919487639640133 0.7904553279200451 -0.4929121005873899
Ni 7.303716732260963 0.5791064855357122 4.64896108145175 -1.330940807411024 1.0118507071455283 -0.15017787854039297
Ni 1.143304124389398 7.713755726240759 2.623717494462542 -0.7597650979250399 -0.4319692423554302 -1.1168427331779023
Ni 8.20471095886577 3.9433113258106043 3.7582470842398426 -1.5760512708652599 -0.3798475819595265 -1.1068277721440616
Ni 7.736409713288871 4.137991170116315 12.534644845070602 0.8434707037748119 -0.711890128620632 0.41538819806829747
Ni 8.57048417185809 7.324853139870016 9.185567346348783 -1.1674903801314411 -0.08665260429323787 0.29437922778237685
Ni 6.9048401749985775 1.0427416314397469 0.23291278992068712 -0.451897348737925 0.20039100905967422 1.4786709957418727
Ni 1.9880930594801633 6.826392288453036 9.326635497254072 -0.4055110481639016 -0.6939356010247404 -0.028693511279950585
Ni 0.15299211995567388 5.213406469719885 1.2557969858208031 -0.3854685276907297 -1.298561362639054 -0.9522152548710826
Ni 6.612861547741673 2.0794220871680738 6.785701961192163 -0.03253396807196333 -1.3535503172804237 1.2070894825803018
Ni 3.3544447932318877 4.526500648560073 -0.013422350195334354 0.2547814108850967 -0.04817424571238155 1.7575246170848244
Ni 6.3044820920891596 5.673516443143794 4.7296039729570385 -0.3465769928318548 -0.20855503292770536 0.2623671936521546
Ni 5.411057478590019 2.992255261806499 9.383836357448313 0.10006836347851153 -0.26718724074861727 -0.9666751390501545
P 0.2761372920038913 5.7424383189935595 12.330394194049529 0.18329445858870366 -0.5697616027472768 -0.19074217311600056
P 4.182266093148603 6.532055013634221 12.698366068819523 -1.1823819525312926 -0.7368192877621439 -1.414540483810551
P 2.6061409991039057 8.61937582752125 1.307336177661981 -0.10939786840955353 -0.03924454732291951 -0.3043196268245404
P 6.360403980213979 7.810039742217643 5.812726016338478 0.09843211342666919 0.40437230657376816 0.7737608979834997
P 4.85181117120738 1.2172632669314596 12.819163563759606 -0.5243474362785356 -0.41517659627812364 -0.16611948947131389
P 4.202177466752634 6.127546956766655 8.114808090168781 -0.8059886476689538 1.0854940436632918 0.3578201698458418
P 5.049343333494936 1.1941338935530401 3.692803756441654 -0.004915435023746373 -0.12830576105765 0.5701015025851988
P 0.28331105456912686 5.660114205447049 3.3227849778378933 1.677540683061014 1.8060593314604187 1.3324819266458987
Ni 0.5477181888726821 9.080774829263875 4.660508398255815 1.4444329004946093 0.8013938292094198 0.28002604438449835
Ni 2.0884818535783563 6.731744698497787 4.448363591538193 -0.39419253782728886 -1.0427615377917718 2.203672207823166
Ni 6.22553139307887 5.571436370755085 8.894612628111 -0.31205556201621737 0.8095408837965865 1.4655275163813795
Ni 8.914554170462916 2.5920256819117005 10.142232054846035 -0.09012924998792865 0.30849946923384286 0.6851020618935104
Ni 2.38502236119725 5.399099683973823 6.829175126894297 -0.40064780653432935 -0.4822800747948404 0.19424915782799448
Ni 0.6975873863200286 0.15946560188818734 9.01286772038842 -1.099652337441545 0.11016174315877157 0.06690396091140091
Ni 1.5069838091194048 1.242970696947316 11.423811435450165 -0.3888886091158722 0.468728818472967 -0.03328601574663945
Ni 4.35570896735231 7.026008836958094 1.527951088899407 -0.4154715018107232 0.7214098951856092 0.34795536123662013
Ni 5.767542374051718 8.206457089425168 8.150814947871645 0.08984694286081944 0.2165048839024013 -0.1314111394558511
Ni 5.509398454649963 3.0582791094503516 4.916994864932863 -0.22058316773683298 -0.14538431380649156 -1.006451647617144
Ni 1.0536206647679365 7.652302901003708 7.103524234932647 -0.45544418554891886 -0.523342134942473 -0.6423289325920422
Ni 5.428171386481086 4.8686233916196 6.81955403893246 -0.3166987172151836 -1.1349978068203743 -0.53024657537179
Ni 0.53520455793182 7.633890822749108 11.375066966708506 0.8394376713560189 0.575536557557841 -0.3777102239015495
Ni 4.7263640322750975 0.5901007086285531 10.340207606307048 -0.47340411246144914 -0.7759705040403088 -0.4015746892239729
Ni 8.142206798475154 7.4008052481814435 4.65062036258542 0.7764955233058434 -0.390387819369218 -0.02076834289560294
Ni 7.5264626541444395 6.444346235692498 7.069324759489434 0.3105661219548845 -0.16766549380219511 -0.30489812503582975
Ni 2.403772695109953 5.3274351946799765 2.4329413032922402 0.09026037624915423 -0.09673904199496242 -0.8167451148545096
Ni 2.6011860108149323 5.3828725544296745 11.302050368986729 -0.510885654346675 1.0311082698235596 -0.05943002113185894
Ni 1.3972975554457763 3.2697803162130947 3.410827440415313 -0.38283211850914717 0.5195037350329892 0.6422582272551068
Ni 1.6403479588602696 1.1058674508776871 2.4976084714857545 -0.21925956382940304 -0.6900414081766567 -0.19137723559683817
Ni 1.3422533036230626 3.386908194364998 8.070118118301956 -1.0732782183233902 1.2408123287540436 -0.16135960618882533
Ni 3.6768847138077243 2.9589050823264684 6.841217028322777 0.633992644812205 0.5733922575213286 0.4063392004921519
Ni 4.166121242007777 6.999880872880812 6.087745236261664 0.04035732077112404 -0.14468600218788633 -0.6495161943691007
Ni 0.600503441421954 9.158317653372869 0.11892337575329479 0.4622943757015328 0.4973603661667305 0.3881743566576669
P 0.3225697376121894 5.647178212035799 8.079350669359215 0.7181163120360019 0.1928319657654937 -1.6405083128980649
P 8.735717489819182 1.8306579057450776 8.044936355862882 -0.6495007677501331 -0.4442488310537317 -0.5620444366086772
P 2.0220283298282635 3.4259995779879713 10.288130862230831 -0.8922226763675344 -0.6468862129454215 -0.269750116379787
P 4.238489668752271 6.1535835003958015 3.626263383265832 -0.08864469502260218 1.0441440199615952 0.17745574041973952
P 6.916916816197349 4.249487548663038 10.456267693624723 0.7371126506328466 -0.863491626981429 -0.38103723139225343
P 6.5891836516744355 8.215909963762435 10.30836220740334 -0.3006342075531532 -0.35519378796658824 -1.1083370096997363
P 2.5244385446047213 8.769872169242808 5.8336393580540795 0.18013174459000592 -0.9327823429574515 -0.8453992882560925
P 7.296064840751975 4.1475903171706 1.4722888348472938 -1.4653195141356312 -0.021098986762144306 -0.18828754092792088
Ni 5.349878914697376 3.278894934892259 0.29538860997238 0.7375597654725943 -0.9131537700932466 0.7952108403271595
Ni 1.480270754174052 1.171653605356386 6.944097943837159 -0.07008904350760187 0.34432084980782635 -1.214955258481624
Ni 6.997275390108935 1.2193567951937752 9.414665160968752 0.38458123998976995 -1.4864886920140785 -1.0519863988241496
Ni 2.721001650142035 1.65541404871309 8.886825434338771 0.6720022912867588 0.35853056564930513 1.95908907762731
Ni 6.642079522965953 2.140472662433326 2.424297499920977 0.28052149596367815 0.4914185467609989 0.705517649435385
Ni 4.3478193826781695 7.1079124164431775 10.136251329128974 0.39527522936850634 0.11578448866218768 0.6652922262564348
Ni 8.263201761583211 7.266563462138473 0.11297190457963814 -0.21549495458064824 0.040764583511871726 0.19199404324523064
Ni 7.795156493261094 3.925082088452277 7.882539814407453 0.8796252993184981 0.3924665562751176 1.2636198135668626
Ni 3.255875266051602 8.703281514820512 12.438065541046239 0.6240936405309381 -1.5051250761683435 -0.7883004863605715
Ni 0.26943343054207497 4.985842690219639 10.120810415438795 -0.1398988652118881 0.0023373898839250066 0.8817639429280556
Ni 8.990259443564376 2.4287213354062804 5.597812084246815 0.41593147216627724 -0.16135652086503177 0.4313071832913991
Ni 3.7222841083520843 2.6295812020059883 11.500989491971097 -0.6150096759517989 -0.044170009648994896 -0.37367976258591773
Ni 1.4344051153441977 3.5067329757369143 12.440648168706083 -1.928483179815995 0.02005023378265579 0.15844963163088194
Ni 3.1380983027179337 8.530871691680742 8.135427058041385 1.2899060009569012 0.15566615534847386 -0.7249091665881193
Ni 5.998762971477407 7.87881534535039 3.5537020593757704 -1.7805524454385657 1.059565753833304 -0.19232905798714617
Ni 3.402559375085889 8.45734222524492 3.6577211594694456 0.807290654309829 0.7611560647352955 -0.36664316745411046
Ni 3.6513235565088853 4.394846061199352 9.320735221531372 -0.2526304259803649 0.8392985746749934 -0.9559333271526181
Ni 7.383517641438917 6.242809857776583 11.266673398171521 -0.27131051888837143 0.4589447425030096 -0.1773654946987784
Ni 8.324197484579582 9.061805086275646 2.2357291125731606 -0.4937438524600658 0.15422659468846986 0.15518587327794567
Ni 4.754082712149947 0.47661684953935324 1.627754792129529 0.10316397168469975 -0.5825921788530417 -0.45855522037407476
Ni 5.9522573895106 5.7590128462406245 0.30658578646008294 1.3135220977139443 -0.30071853973684337 0.0270919711207856
Ni 7.799142424799825 0.08948050622659963 11.812268804238485 1.3858940237184518 -0.6867586236603269 -1.9272711617857645
Ni 0.020180149721550914 5.411743131951038 5.510973628971347 0.5877966058721168 -0.9143606459171544 0.7194645985337802
Ni 7.398272901768076 6.31054326780058 2.617295207980985 0.6233691036600878 -1.2834443044919572 -1.5393071213666911
P 8.821808125828897 1.7740686483488648 3.465673309865571 -0.27934573048802214 -1.3632438904191038 0.017726470745485598
P 1.8167254294491442 3.249265567651366 1.2483855300904139 1.2776017296682514 0.5611504640394981 0.10807169339896226
P 4.65604342356885 1.3855226017258533 7.948530750689977 1.0809629885621577 -1.2526124067127653 0.3480903441525876
P 8.718877843272521 1.9293645635975671 12.408481884029415 -0.04324544095219649 0.016535278650861844 0.16034890553612385
P 6.584128100892513 7.981096542724999 1.2966893522720568 -0.48794678616231446 0.32136629789418203 0.3735949161815953
P 1.9335424780773842 3.3201895513153112 5.618885411746655 -0.7035237589338077 0.7065185798960735 1.423128482589878
P 7.372803164917372 3.860877507726331 5.804283337953113 -1.5103081630311794 1.6594005218168777 -0.6344392454313202
P 2.307598383670832 8.844379834473687 10.269840373172254 2.024293539349101 -1.5156827970795315 0.011483575159567319
