# total energy = -381171.3200523479 ev
CRYSTAL
PRIMVEC
9.21315621119980 0.00000000000000 0.00000000000000
0.00000000000000 9.21315621119980 0.00000000000000
0.00000000000000 0.00000000000000 13.48438539519000
PRIMCOORD
 96 1
Ni 9.063414748711226 4.576653756760426 10.272459076324244 -1.1561741837876733 0.717118724009423 -0.10933976147810848
Ni 4.977048311014966 4.14569916346996 11.525077026071845 -0.8469602049853091 0.7725324248930373 -1.3757818749851143
Ni 6.724387871894262 1.8561100826936292 6.793905741820575 -0.15055814469794715 0.04257206903425571 -0.6815372273603875
Ni 7.61804559465783 2.0223430595779264 12.874728857981122 1.9614290386143962 0.9785906595408177 -2.087328504223399
Ni 9.30197100157744 7.917067791507398 1.9100494268418753 0.8733392091994702 2.267449450180127 -1.8180512137149722
Ni 0.8172576251737527 5.3090351806624065 6.102641712616645 -2.3261927296576066 -0.35964642442130323 -0.4697390049050361
Ni 6.957314886336916 2.22290425637415 1.3928965443683752 -1.902871392785162 0.43192887603579805 1.0722616041334179
Ni 0.23416342000147827 1.1843235869614666 0.842644477016832 0.6601631325599856 -1.7333217945863761 -0.8538561607741939
Ni 1.7517895153123237 7.635734854515828 10.207112923514442 0.09223781169049922 0.14428311032251281 -1.5553065821187406
Ni 8.17645499048764 4.958327177665252 8.149220900831263 0.10941972278642445 1.819780794811569 0.15909857806879052
Ni 7.231673464103223 9.104090833228444 1.015788242348777 -0.019771011979340142 -0.3008208696426625 -1.0363245239171763
Ni 4.0156278245766215 8.796666237946328 10.460552108867432 -0.32701166910541746 0.38245133813096066 0.233895568575023
Ni 1.2025472098776746 4.51475056041361 12.12622441077107 0.4768373065127143 2.7931498009421314 1.0740297517774342
Ni 5.498816984732663 4.666979539910326 1.0910846038287025 0.13361740307855052 0.6942816715102494 -0.9851603423385356
Ni 3.04419263737492 8.369654875499206 4.526816109741753 -0.7430117897261009 0.6469358352364343 1.1093867911204893
Ni 8.29037566660438 2.705673639998668 8.51265227250753 1.0168916120035456 -0.6141139036104069 -0.0016545048842874733
Ni 2.579195432013985 8.020715798487853 7.704533176944792 1.0431006662987456 0.3982075725239529 1.3661070708995118
Ni 0.6412430403773535 6.955149794635546 12.674216490912631 -2.2198447038179703 -2.37005934913357 -1.0205518344639521
Ni 3.45866489426645 1.5443553040087739 3.480616160171484 0.6122825068286228 -0.7743512232693309 0.9783924274870828
Ni 2.9662216966570902 1.26582316649472 0.45895337490945304 0.35795798097528675 -0.008594683647546487 -2.022976363199574
Ni 6.176564392510723 7.890635246438338 10.288936806145092 0.10917572509641843 2.0746159417527372 -0.46188068520288195
Ni 4.800349188714687 0.1510727283966226 1.5633933699309437 0.4033909164971053 0.45687680423038735 -0.27695357610676175
Ni 5.69736971348251 7.189016551008156 1.8888794365805697 -0.40584580579550106 -0.3592977828326328 -0.44371866958187456
Ni 2.006597775673073 2.6291952305813564 1.9369647412945599 -0.7901959036110714 0.13203103242803715 1.208746044347118
P 7.957439841870807 3.6796240188364275 6.560248124093162 -0.011785165560386156 -0.22719090286133775 -0.3014443621592744
Ni 4.028314340631029 6.24812297653003 10.611496774393208 0.8592922441881007 0.1594158521988932 -1.9059703434254596
P 7.009811450227994 3.499248847221908 10.619492872638393 0.2043173406972739 -0.21512702971826822 0.22081096747692297
Ni 6.612558582229483 6.277061500078972 3.943481441193284 1.3666426316880076 0.09866299849055267 -2.046312466822353
P -0.18621446999889354 0.5100403259055971 10.537507759774662 1.4652860897945348 1.1809138526261984 -0.5883576205819093
P 7.69292091490051 8.99727350052343 8.188621884533719 -0.27438684382085 -0.22911485935692796 -0.3034179409458775
P 2.1725912104967935 0.3609990984457914 2.367440250463872 -0.31261194874031967 -0.8604474408384665 -1.444266550120074
Ni 3.060767105335617 3.8142466568807296 4.082384511596975 0.004856299651036797 0.6129270823911573 -0.18458720925819821
Ni 6.19769937277856 0.5331570560669001 12.203409469267084 -0.4434451042055137 -1.7825499354845689 -1.2810670625090326
Ni 7.2106029759286185 6.191222523986804 5.98218614482424 0.9076251269655337 -1.0062410742682348 1.6689423998690418
Ni 3.2367660277665173 7.6230944042423 2.2723208621555777 -0.0831042248203472 0.7015455521615144 -0.0289094839454986
Ni 5.277857860162685 2.568508170849778 12.87103438235453 -0.5879408447594648 -1.311695586028167 2.0394653619935332
Ni 3.2431507449965133 3.965885994382179 9.560604564382482 0.057370567499668935 -0.3083115215927529 -0.17526670318822074
Ni 6.3625503762364515 5.729532841693067 10.435875591365527 1.602532347874924 -2.3068423501554527 0.07095576238327135
Ni 1.5007678621399267 5.716791046701603 8.346753733192424 -1.0940725293609221 -0.07166332997325724 0.8221775987239904
Ni 5.544689289333168 3.9626153239396844 3.8791201747787007 0.2771068138551743 0.6706781731586966 -1.0142839991773691
Ni 8.6779731469304 7.440812109299341 9.938491378098956 -0.17403128811922286 0.33029856738680535 -0.7735300129196161
Ni 2.954769743530272 5.801524444052647 5.606012056840893 0.37129712128635406 0.46585355380770094 0.4455032722861231
Ni 0.5765583921809913 0.397439895068884 3.796232172609718 2.3806849471682163 -1.256147159338901 0.7355419637116171
Ni 6.926671928895406 8.764797930733405 6.127102642264033 0.3308590678759657 -0.7779857346981247 -0.6809718417752207
Ni 0.8803668236640119 4.188567979157075 3.1424951711420364 -1.0785996305363037 1.870242808116863 0.15911169069491307
Ni 1.712025533256533 8.388781387720668 0.41417651457827903 1.3205926314074805 1.4453119606654528 0.7313893749958242
Ni 5.500235810783773 0.5458739755366887 8.44873600153625 -1.2444159869449019 -0.914917803972205 -0.7817243758049505
Ni 2.794681941815394 3.8385601760293 13.642692412350588 0.7968483759305826 -0.20842827754185395 -0.32808639022683495
Ni 4.607324353670465 9.400367509537551 6.171479651617167 0.2621627909508324 -0.9651095943352477 0.04194343431132132
Ni 8.933739575533457 7.465282252102904 4.861848848820992 -1.3140982819323885 0.6547735861132981 0.8663306390921209
Ni 2.9932254574090646 2.463597961473206 11.302113118717962 0.5047869976481049 -0.3133727381657442 1.6094632706668024
Ni 1.8075751759582483 0.30150145717654003 11.607466596491705 0.20659765209101838 0.3996651309060859 0.21862270157635252
Ni 7.4455108189491215 4.415967099894105 2.145001493012023 1.2613821824855953 1.1709482567730545 0.8141709263694301
Ni 8.836273596347125 7.213661743779064 7.501093790159173 0.25300683548317715 0.6306250138915527 -0.12401073322672193
Ni 0.7943279220828232 2.4879206937779523 12.121235486701744 -1.3526321763415285 -3.2079487021658624 2.225585977177122
Ni 5.367087277727637 8.38358516763738 3.855172417930319 -0.3383602613490173 1.069892589680609 0.9690672934314148
P 8.730589481851766 6.361223681747101 2.8953808175038978 -2.1318651531831927 -3.6667571762013234 1.5363629511367023
Ni 2.6154215620981756 1.3908825484282925 6.167096953224224 -0.07656693792246168 -0.09857712364496571 -0.7711144614995881
P 4.236264488680437 -0.016296230644180277 12.637619991950162 -1.3616536631138485 -0.20149966874282071 0.6395863368498985
Ni 3.0915943259006484 1.0669571904348878 8.760643718613627 1.9266538399167397 1.860901733221595 -0.04993905092228819
P 4.595651284795421 7.735789730587626 8.312382211446469 0.4070961332628344 -0.06935653621695152 0.880187085359239
P 4.519099170128702 2.5046057196127616 7.507323726365412 -0.20583017779737456 -0.5785102954741844 -0.18892491740160366
P 8.05399371859571 1.1864333997257799 4.630160082568398 -1.5449494072541328 0.8831644228200081 1.5861935015055844
Ni 2.760759100775213 7.224625399628552 12.231469979032452 2.2184287973070504 0.3873544318595329 0.4425632158211927
Ni 1.0819009297524254 2.6708939754341148 9.967954130234315 0.38881764666862073 -1.074101228445318 -2.349381251958928
Ni 2.5615798774053955 3.8451844353198736 6.9456722208772534 -0.10919192304633452 -1.616344828277984 -0.12323040341727164
Ni 5.274080466130509 6.1431759145287534 12.587147558470962 1.21314443052513 1.2471400707442843 -0.031006989904475632
Ni 4.953757452201936 6.77616580960361 6.31303887494641 0.22647742173408092 1.0347731202696566 -1.319494256136979
Ni 4.772976901715671 2.337396148173804 5.230404577962371 -0.6880814562368084 0.4179595583398995 1.4457953280597746
Ni 0.71380493710423 2.8371638049431165 4.983464352975961 0.07029473176050474 -0.9430053062370404 1.3500158217646039
Ni 6.036588910728141 1.51430198856253 3.519424737931819 0.47320433774581727 -0.15750166589531583 -0.42297603771788445
Ni 7.54875344705783 4.569513560723995 12.603181214164124 -0.044774733112529344 -0.4236483811945607 -0.5543362693311421
Ni 0.040590402164781235 0.3559502888613213 6.635611741613172 -0.3350551082351842 0.1891588877892807 -1.8316860308895875
Ni 3.735133284797071 5.560056833834803 7.941466993008405 1.8859399071371454 1.234986466100886 0.30793356942804384
Ni 5.747701185672218 4.183086151232332 6.466288672147431 -0.030735738520959965 0.9351449296523572 -0.5419270970335118
Ni 9.142961139135158 3.4338262252158454 0.7649296620406959 0.09685268475469126 0.24309497568610394 -1.0360514727614478
Ni 5.684047489651955 3.908432752468391 8.819502888159878 0.3260495623024643 0.2179922670812052 0.2992175297112847
Ni 0.7329296066944547 5.485761942431214 1.1186669507885323 0.6643602013604687 1.458360566319295 -0.04833493965996192
Ni 4.396905079765878 6.295073220403132 3.8962326910600784 -0.9718672247740553 -1.2923585762624517 -0.5884920892772446
Ni 7.291899866025999 6.5757612364623785 0.36536705578885215 1.5114679876672357 0.25157961611834734 0.2786906134025265
Ni 7.096525676156886 1.175488170188644 9.799143312251962 1.4271126640486067 0.19093423452214858 1.81293626108591
Ni 7.865907135261845 4.186181771707481 4.5775981052684696 0.27226748348500207 0.26190928017912957 -1.0665838370223504
Ni 1.5220226134380517 6.642510552957791 3.7685079430447774 0.8291026079785979 -0.7736629389530547 -0.5069467243035849
Ni 8.791746412548322 2.191045162317402 2.711480692336426 -0.4797678498959479 1.1042186166559886 1.9425514849836027
Ni 4.5294731839829225 2.7775362581717826 1.7331079985341666 -0.2128348912499818 -0.7535440567159924 0.7089845249380629
Ni 7.642469671680512 8.807814156919337 3.245934039477295 -1.2621802529068586 -0.4629098977983447 0.4238031616048701
Ni 3.6800109713958213 6.084488109687376 0.5815528441440228 -1.0224703916429037 -0.37632414218730026 0.743265814718436
Ni 6.3488596261588555 6.479456114954228 8.19021299660532 0.2047156045769571 0.13616742319391387 0.2700144257847672
P 2.7812952258916073 5.401212808203691 2.430061151676801 -0.14774870027361003 -1.1645585511966265 0.1789726912848982
Ni 5.020976639662327 2.128091666166518 10.27079978689694 -0.08793044256439696 -0.5557169517287526 0.16657200362770025
P 7.6577082319956835 7.022903345154147 11.727086531018942 -0.9910085735891965 -0.9797538266109835 1.3699593547660665
Ni 1.0531190298584752 0.35280491734282104 8.696511859787828 -2.1482145410754936 -1.0765134374312362 1.6646337451913589
P 1.1350608408881786 2.1311227945484355 7.457444620143947 -0.33974120085694387 1.4172905357518621 0.810675768731978
P 1.504268861486822 7.504465805319604 6.125282122603648 -1.365881585152267 -0.9645244112557388 -2.6151749547941283
P 2.0381528355760117 5.554381529630363 10.482814779451216 -0.7174162006451839 -0.4971883593652405 -0.10947962949008241
Ni 8.688199750285804 8.89036403625666 12.36055643153057 -0.9513901878666259 0.5229659825499767 1.6175329350488141
