# total energy = -340897.5005315757 ev
CRYSTAL
PRIMVEC
9.02625784687504 0.00000000000000 0.00000000000000

0.00000000000000 9.02625784687504 0.00000000000000

0.00000000000000 0.00000000000000 13.21084074703389

PRIMCOORD
 96 1
Ni 6.368828119839217 1.8775157519395513 11.376237530148106 -0.2667910337514631 0.17654505568001208 -0.7576063997108243
Ni 4.423146070010914 0.4391734693335484 6.26547927482245 -0.009282710853506595 -0.6082286484742234 -2.007066119727221
Ni 2.668802630172779 1.4800354693880382 4.803104581182444 0.7550851759508673 -0.11424414075826131 -0.5524894459303905
Ni 3.279753906509906 4.336818941699472 4.831230400067685 0.7329747172050731 0.014750933056929434 -0.30996011293976944
Ni 5.149877153421533 4.395020251125673 2.6573735827169087 0.4248693980858554 0.5964005454910438 -0.47873040977036907
Ni 7.372656287318527 6.127790935143612 2.461113857047591 -0.3689201364137453 -0.10463592824453592 0.3096796055848731
Ni 5.16701801672804 4.499724840043775 11.41427147207261 -0.2756988777640542 0.5002443725827449 0.6733960863104919
Ni 5.544441954747138 7.888073652525551 12.452485168128083 -0.6435386366294272 -0.07139747790638026 0.2835271155592214
Ni 1.7608784503878516 6.499456120772215 0.4105160038718171 0.5210453684884963 0.22243179090979753 0.15319326832794908
Ni 2.728195405610806 1.704022053353789 0.28897293127899754 0.54673017484911 0.20144798956927887 0.6623064041552336
Ni 0.7061990550992385 8.976161935310937 4.588125299740948 -0.2444196080347984 -0.22557573585541796 0.43054433698344563
Ni 8.495910869968132 2.1434744340491965 1.5070790399792042 0.9846412366102721 1.251012152105181 -0.9343360605978166
Ni 6.682147575918973 0.6095982403130907 4.698976770129158 0.546648156658265 0.5907695724575116 0.9475957538212002
Ni 0.6898994390071429 7.3136245621871145 2.5841200860079647 1.3113628852790964 0.08161298498680139 -0.3659492267108794
Ni 7.595731219260077 3.6860799215734663 3.7706252666217677 1.0071116497986463 0.6020163490159245 -0.4138578774667002
Ni 7.5485238916702775 3.767370398107641 12.34534529489187 0.5419085850907506 0.4359860768243072 1.023696807850837
Ni 7.96510373544168 8.695941766090034 6.8394373367438925 -0.18968236439291847 0.7891191256071248 0.21786833990883125
Ni 6.796781048268964 0.7770515672691984 0.425814607988825 -0.13504976464970286 -0.17568193634876839 -0.30093888327776563
Ni 1.8914432675171922 6.398307877374262 9.332414785975947 -0.43427346500857467 0.8223202949494418 -1.3349697260647588
Ni 0.11517414518414604 4.86176803500111 1.4377618942381207 -0.4143924098139315 -0.8772652837267537 -0.1748887510235117
Ni 6.425522044235303 1.9163918437042295 6.932150542353573 0.3629405217915426 0.2596742202010237 0.06874049989950741
Ni 3.2828228341161267 4.264672064180301 0.3794124225827749 0.003256816374400843 0.2016066266343302 -0.1629979131231967
Ni 6.164013307154677 5.6370062271053385 4.5478185461363125 -0.18022121898001864 -0.23185591243717488 1.0481235734346337
Ni 5.151258170844333 3.0292481775233466 9.167926584662908 0.6446095010961028 -0.30899774902650007 -0.19015930402933703
P 0.187683878261465 5.488172264461323 12.492686314518036 -1.1256420766370872 0.7481398549812858 -0.0925658844538793
P 4.0327784784997 6.127357674775676 12.677148721418737 -0.4745549382364408 -0.4974498405567433 -1.0945749229186377
P 2.3889254587431585 8.406343315154826 1.3909300589671998 -0.3697230919310149 0.34452602384009695 0.9295183274941992
P 6.366427135300233 7.660783458254281 5.754880125957192 -1.0323629681662672 0.3179379889389234 -0.3246825067516086
P 4.7614502073083695 0.9876892187736578 12.622125557316506 -0.8421782102156334 0.6930997353870063 -0.2543836612260458
P 3.997964202684431 6.267345904907646 8.09263031424086 -0.18455841290279185 -0.8027986799767464 0.3714583294545667
P 4.675014763904944 1.1952028825001384 3.762447477176958 -0.3521971672321096 -1.7150620770452398 0.694766581566468
P 0.22242413876387812 5.479985448758847 3.5792920723862003 -0.20788886009861618 -0.43193298980085604 1.1895697285289837
Ni 1.446602210995568 1.0199851687002932 2.443080296857981 0.46880826556065064 0.4335707825145953 0.36019561205655387
Ni 1.7991046516006242 6.352598908556912 4.857163740966013 -0.0014436744250620299 0.7012578457177665 -0.12407526791607018
Ni 5.976971195813219 5.651944683541499 9.269346518416588 -0.591840179813871 0.18667674479737528 -0.5980450230730023
Ni 8.689722674558606 2.406400293583283 10.155054370209783 -0.32328485507313354 -0.13414525055756255 -0.021638918426014345
Ni 2.282704458537277 5.191858277823093 7.049516262898866 1.1766355369658186 -0.09103119297690773 0.605004485109971
Ni 0.3778156776017739 0.04586873357802764 9.2857806257479 1.3956691008273447 -0.6732893855292986 0.5036294870048938
Ni 1.6149058114237522 1.3454990988859419 11.30623348619869 -0.5829439057655057 -0.410346521879332 -0.24088408407771414
Ni 4.039268357761089 6.943484814103957 1.454738479655118 0.9524767360625854 0.1450886369429437 0.7336534884396526
Ni 5.565446056334416 7.887938258660571 7.834477539760214 0.639753201445066 -0.2669057049524564 0.5936738905885002
Ni 5.286290985518023 2.9843876769265387 4.775494161609894 -0.09392368403335437 -0.039062770329416595 0.12483785711370757
Ni 0.7847058337694184 7.337156015920692 7.0904034048713855 0.24611782167282772 0.0766471563410938 0.18787539309116674
Ni 5.074868952222444 4.665519140840991 6.886177104186627 0.29558507516502 0.5133420863069675 0.2764336990475497
Ni 8.113919645570364 7.00927720622672 9.30121101322682 0.21709340941601968 0.23217318656727756 -0.41177554101637465
Ni 4.619891408342628 0.256685104984261 10.410762834114653 -0.3637966991442509 0.3133981920870409 -0.5265187328982416
Ni 8.246930578527017 7.114460186801086 4.885526950427854 0.520665102330942 -0.3905320582565661 -0.7832616383850832
Ni 7.182220303094896 6.059137219340933 6.994347776048225 0.542059508846318 -0.15999923550618897 0.10257313217823626
Ni 2.491698428520875 5.322441147467765 2.547221647297765 -1.1852569600862426 -0.5130363821410907 0.1599943504101825
Ni 2.1019897538192316 5.343291802674732 11.480510663949806 1.4790849433508397 -0.3874948140921391 0.40349247507197605
Ni 1.176076242507254 3.2544081749855933 3.9026938582781563 -0.6350424262329579 0.6423124775318099 -0.3636452611680511
Ni 3.6390621453946395 2.6840660318848926 2.543548863053733 -0.7171737456170746 -0.3277796576196936 -0.004698176806617715
Ni 1.024877400354915 3.190240509242594 8.137322926445094 -0.25250341348419736 0.9357982469656401 -0.012758070996616737
Ni 3.8021666214075798 2.7959194168739545 6.833927709064961 0.24418203810269556 -1.0530577775114576 1.0522643350758847
Ni 4.1758175837225595 6.764069890489722 5.750969951136561 -0.048928093159270575 0.8694010504873285 0.7317341599297528
Ni 0.7922987217175139 7.409131394544221 11.293088547160636 -0.5479041405525531 0.39677443962185216 0.3222142477167741
P 0.2375133337030498 5.501928281143321 8.077002251719069 -0.34479007613476104 -0.43845382163850943 0.8033514671564229
P 8.557307474607867 1.4886104141701242 7.994235982056608 -0.373286383802241 1.1745511436329643 -0.8816510714992751
P 1.8804222069077954 3.4374967854696266 10.341445688373568 -1.1864370964372728 -0.9796826070534159 0.2018125719975492
P 4.101495378106038 6.036607680208211 3.6999605006112475 0.5650228025107108 1.0812149566719635 -0.1526880465567564
P 6.867546908365337 3.8643124054335396 10.244319545391297 0.3361910216118404 0.061764582802306525 -0.01608225027384327
P 6.1635258892407485 7.658915022917553 10.210090171072743 0.3195143322871078 0.12144785759555211 -0.23583649435147772
P 2.336573164284107 8.355326906830248 5.955618680680058 1.0120831348713086 -0.13045828862427855 -1.0421871533455405
P 6.927129235214336 3.8164822660648303 1.463800842351133 0.6128702610112929 0.7408353509000726 0.3945815457355914
Ni 5.265792354360005 2.9577602168137456 0.4263706254610108 -0.13232696640190114 -0.5409012268721588 -0.49793577905422637
Ni 1.5610822369652484 1.048210276419854 7.045314539955645 -0.5847711887822317 0.037198977647800446 -0.09492332894246233
Ni 6.9621420886982435 0.5657098676668416 9.135229868895934 -1.1338328399779956 0.02315252685706335 0.2982811339399444
Ni 2.8062725344161152 1.7798155389697634 9.116087884265017 0.5790589688888028 -0.64192861182983 -0.0951228465477781
Ni 6.396999070012785 1.9165272375692097 2.6347438521241 -0.3975876795517669 0.010727156609517008 -0.34351789429055674
Ni 3.959900474109635 6.8659673132739 10.531827515051209 0.6696502461148145 -0.04133665396525785 0.16736210362916337
Ni 8.230945076201674 7.294913130046837 0.2731814934934613 -0.2568398360760222 -0.28845720587098705 0.5097492267493867
Ni 7.557775805777265 3.8733657418718894 8.118655722967375 0.5158170302100213 -0.22965067725573998 0.08854725021278943
Ni 2.8839344553688178 8.481405673899907 12.458166294702657 1.4594018630996155 -0.5158031462529504 -0.6701894064477362
Ni -0.05242179664307439 4.837153430347691 10.385292540234557 -0.06462982016524353 -0.18216291608742177 -1.057871911070649
Ni 8.610679736183103 2.3458431309064256 5.751432095529028 0.23636819848523166 -0.1871842805614131 0.6617646727191506
Ni 3.7120213861036926 2.625476593379082 11.333289693550588 0.2661526288365158 -0.05099474588031217 0.6323116575653561
Ni 1.0346438111488276 3.3940804860992757 12.704905366365466 -0.3398126775248277 -0.43534561502683083 -0.06307404564234943
Ni 3.220198658433903 8.397569792704104 8.085919291666672 -0.7720616559042058 -0.12619334270033752 0.6881647599792342
Ni 5.720074876399589 7.814654072675565 3.543266472792241 -1.001700506085404 -0.13117074131027084 -0.4793112219745036
Ni 3.1630985524428756 8.206835941977515 3.753873435020638 0.16139585874339948 0.2603992712925064 -0.46136543612936026
Ni 3.4864642333041704 4.580076585780754 9.576181510989557 0.44102569613074366 0.2957144016540326 -1.0261516971492328
Ni 7.186246014013643 6.1903158219915175 11.543579834134933 0.4324289556006682 -0.3389161338524873 -0.5564026649418675
Ni 0.7182328618186881 9.151271334018798 0.07128396728636392 -0.834673417198156 0.16959999182074662 0.36847147891210086
Ni 4.558530908733554 0.39403676525218095 1.669057941661275 -0.4272885490503093 -0.26260013559856715 -0.2653208769638398
Ni 6.070374910134299 5.595620835709693 0.37033200737142913 -0.4532867728862839 0.16861063132428383 0.4371196762081181
Ni 7.735367425343099 8.739267802883731 11.396767753207955 0.562167849560419 0.1816047295911066 -0.005679052662648284
Ni 0.1890576746781318 4.814867600171933 6.009650761690632 -1.044451523899685 -0.6538503029680803 -1.0545474746831063
Ni 7.987651327089733 8.743275461287148 2.5608025545810564 -0.5815675942432694 1.096371352697428 0.033281130650633005
P 8.608350961705442 1.6001388538832337 3.6688217169173103 -0.8358628095205669 -0.3751861719281151 -0.03610060237729911
P 1.7169747331035714 3.363364131264077 1.7433945892900617 0.4127900983238181 -1.4045941712311165 -1.355852225940723
P 4.8399244914509545 1.1467318788371892 8.210986215252046 -0.2748056765258235 -0.5330704179738304 0.744697147848324
P 8.412670721778241 1.6641891782765834 12.304497868453076 0.776596824770398 -0.27144344492180994 0.28999858221617797
P 6.320564720102571 7.892866595345854 1.3721039933545718 0.1652957080184379 -1.207536083199417 0.4077430228182139
P 1.93554556247011 3.152131649379471 6.034804233926673 -2.0281764193432745 0.09427849626961182 0.31943385675815955
P 6.8949596528950154 3.936332915345396 5.85970837460531 0.8154698476865118 0.33563514910837033 0.9048755892448545
P 2.4252110145578802 8.519812400265987 10.194356501336266 -0.7370085209548146 0.429537492985486 0.11616166949594832
