# total energy = -340874.30827169213 ev
CRYSTAL
PRIMVEC
9.16809813721551 0.00000000000000 0.00000000000000
0.00000000000000 9.16809813721551 0.00000000000000
0.00000000000000 0.00000000000000 13.41843834937932
PRIMCOORD
 96 1
Ni 3.2151053927520645 6.299657065366371 11.898800824400599 0.3773191591107179 1.2413252638347203 -1.2276331110596082
Ni 5.318331325030335 3.331787780125185 6.575383955229785 0.25944204958555966 -0.7728833804745529 1.3630132624655364
Ni 8.164686635081503 2.902024003076202 2.655831225154626 -0.810023994080592 -0.7342124462669162 -0.324427453318009
Ni 1.3303552435414043 0.17416544705652864 11.796994593368455 -0.4590223898184804 1.0805140739501973 0.2308542106455379
Ni 8.559556629908275 8.433660303719252 10.625820456982373 -0.0936802005639806 -1.2264344627658168 -1.0709508557417944
Ni 1.699967127484782 5.874303143611367 8.404719367738995 0.5491593531158929 -0.5292376744913014 0.9278918476343698
Ni 8.132992519174465 0.15085922430637458 5.958753247705814 1.3196089273379725 0.052893762675237946 -0.47596827364419964
Ni 1.2437992272618699 5.14300061267679 12.680504975872907 -0.56226606570118 0.12375490846217396 0.6673411383656636
Ni 6.569831754884601 8.852752414318772 12.319253480791442 -0.20232473574727736 -0.2561330398169847 0.5871746560174016
Ni 6.970211776804264 1.2722570044604373 1.0685895338062057 -0.8111069427321256 0.6852416727951682 0.8263322443223124
Ni 3.2875058652189093 3.627990700786047 8.865199941413648 0.8431164057591868 0.27849238134879134 -2.2099045618861233
Ni 4.352398821780765 7.122943126788457 1.678834660847315 -0.718794054829317 -0.575224682744377 -1.3212130386002987
Ni 4.941568324394018 1.829356499135356 4.476095721181793 -1.1856382546850615 -1.6638883823849022 0.571033527481165
Ni -0.040367136921808065 0.6358782131459657 8.088876546847859 -0.1479729004692742 0.2084316199759636 0.8096923217727862
Ni 3.560027587908154 8.774841914759035 12.454458177209109 1.0564287508662193 0.7391517925500624 0.6406227485342127
Ni 9.116747805566437 5.734443803674464 10.389480634329903 -0.05843628976002194 1.7328929345790738 0.6531653610859138
Ni 1.412877296558255 8.237573016759535 6.909087148466452 -0.39877450077101645 -0.9258876727201475 0.5362837827048055
Ni 2.337745887413371 3.0629974734539225 1.0574374590045506 0.09938933513361593 1.1181419116053002 0.004270859461211999
Ni 4.535302383350166 4.606061766216964 1.3283639325853707 -0.03349401799238747 0.8511315627541793 0.73348430985164
Ni 3.0422133945527783 6.5308765051047315 6.50115261352758 0.5883144260487997 2.060488501212419 0.08317750126044385
Ni 2.470518287345605 9.006657280888474 8.976653762312433 0.10449991688730391 -0.4023624752325909 1.3575316705256748
Ni 5.749140265288286 3.0213559708650397 2.6889207256266205 -0.0633614949757812 -0.6166343560394154 -0.3526563662567152
Ni 7.429469326162459 8.149605113338062 2.085989907428622 -0.9161097673977772 0.22755342840707907 0.24769699323448954
Ni 0.12038354866663302 0.2672088097103241 1.2717674280099207 0.5640097878651641 -0.3688550875037647 0.7884658082938422
P 6.7647546933571325 6.571491180681295 11.47687118736971 0.6700405395746977 0.5672360081119456 0.13620830373417833
P 9.323405909894047 3.4705469482631743 11.131118362505443 -0.9383760349951452 0.5069688357907721 0.8760126422665752
P 0.1463200988260232 7.806213990602127 4.524898425371772 -1.1243986911482893 0.16080501923693596 1.7343101266415741
P 1.957966582428366 0.9464319581138243 0.533476972532577 0.8737552136909662 0.15934231864848042 -0.7713967686266974
P 6.006562130037441 3.911248266613025 8.681488670381878 -1.727533212929057 0.8956340160419284 0.26931380017331685
P 9.146580797513646 7.159688864872174 8.129802937767447 -0.34603834671956535 0.06356101258109699 1.070342532733834
P 3.3199334289918903 4.57011365268746 6.690393164658724 -0.24646234949644005 -1.9075096628881212 0.38339647565304935
P 7.265690417697508 5.09119168904628 5.186669181805171 -4.512033051505674 0.7309147493522509 0.9254361870050257
Ni 7.406805787104837 2.3672855002142037 8.845166729765262 0.5195993800705889 -0.2332905880011724 -0.12231149114742806
Ni 4.694799789897678 5.498796172445476 9.686837578757027 0.2987439325089758 -0.4892210248890478 0.8440813407756173
Ni 0.17438731503597624 3.9141087132902004 9.0760038598035 -1.6738755755046013 0.21456652922910788 -0.12303294269448489
Ni 4.758105508826836 2.3556970239323127 0.3480035930028805 -0.1876715046104768 0.9624762704774584 -1.2579150498726015
Ni 6.71399093293559 4.23137992390026 10.763171405217754 1.5057328849556713 -0.4720943925110902 -2.575750173139603
Ni 4.948004329417663 6.45556974546909 5.05278010749704 0.6625807408625428 1.6224033757672383 -1.1999485006601462
Ni 1.396576417737684 1.7295617488755604 2.8686209536415173 1.7233410292245803 0.25303666027984806 -0.5659859377549286
Ni 7.495699668457063 4.432087932415413 7.114161005403628 1.4088514038455737 -0.39544183685335765 1.081075859990938
Ni 1.8994832832177793 7.476575015352613 0.1384621217522822 -0.5358595506831932 -0.23683742481216627 0.05791487003891316
Ni 2.2338896695959187 4.488700939567846 10.584142282000194 -0.7773624992918289 0.7131700237743201 0.01437220956127202
Ni 0.44503782885723536 3.0039824245405278 4.706450609248173 -0.032685406048163064 -1.1567552531021241 1.254691400728981
Ni 4.801819001637007 4.299132170516693 4.562201583833605 0.5859847494743585 -0.48288685514090385 -0.3229210439758116
Ni 8.91440787554956 0.5416732524344839 3.56161550253792 -2.9807326024935437 -0.9160076946022739 1.3370554049491943
Ni 1.5302197870107241 2.1258069584509736 9.618042002551292 0.322455931413935 -0.8691747934091353 1.004956036908224
Ni 6.6168732673864845 3.0767496209403435 12.739063453489754 1.0140022062708924 -0.3865162522289537 0.4282318868001851
Ni 8.819848109432929 5.2223596717717635 1.4927341833922376 -0.7517761661822923 1.2067405838813154 -0.23638491065577996
Ni 1.8584743794132716 2.740711313060482 12.2444188782195 1.1107062812628612 -1.1629215298138358 -1.1611202149390392
Ni 3.7116862703884057 1.1074421008848425 1.8241563537658239 -0.9816531005162256 -0.7139328700822737 1.3060412159558668
Ni 6.938581837585495 6.412938088261184 9.25629359654065 0.4594437936266152 -0.4468842117940497 1.2803250421366854
Ni 4.930419916831693 8.642995492757555 3.147925235471065 0.08095066881245414 0.38650056849966985 1.132548059728301
Ni 4.244407791619062 1.5126903830146996 8.298204401407501 0.7446750363611369 0.07207830602348878 0.7170192223170814
Ni 5.2969604878364365 5.631706093852575 7.279663516353544 -0.1769551466342372 0.5621282545717351 0.6512375479355816
Ni 5.303368988565108 5.131247110625062 12.231269074792984 0.17427245759575147 0.823580135498472 1.3464520156727455
Ni 6.576093566040084 6.185477568835779 3.154581274854493 -0.6643339761082235 -1.3502410504015325 0.4187856537856207
P 8.386334580169315 2.3240762528118686 6.587379495077274 0.4198830006148575 -0.4418705606295423 0.5788360542447193
P 1.1820429169495148 7.193033238477583 11.581883502385857 -0.5117143208955575 -0.7714245365408392 -0.7577107864991726
P 3.1893155321658626 0.6522001785926829 3.9814786502065123 -1.433473573269628 -0.006418759042150236 0.5761788191275303
P 3.2937860125710414 7.059353196811245 9.495088635924361 -0.29541075437068476 -0.210921733387669 0.12772726284636066
P 6.605165605826378 0.852149068566586 3.2692815193699043 0.9907802596284744 0.6265415878507984 0.652106066583464
P 6.808935759181842 4.269757583485698 1.3307989795002995 0.037975965023141045 -0.2064816953384444 -1.2139005919648642
P 8.353026878957204 0.8579616429041801 13.000816327887298 -0.08249435915049018 0.14498656414744063 -2.689571367427832
P 2.1593438621211924 1.4316443938280576 7.623887102417323 -0.8264104058584154 0.6901920748219081 -1.3128011603875198
Ni 6.849211215120407 8.039331226693614 4.59812310987797 0.06485479169185604 0.15439345928363732 -0.21102483462443655
Ni 3.602750926099302 9.173232459342328 6.47434326040772 -1.251796595679689 0.7786480508724719 -1.1299304195997961
Ni 2.1335906739282877 8.337331094626034 2.1848843504329736 0.47030156227672554 0.9782219633474896 1.6968069874897937
Ni 5.1083176967160355 8.18091416911548 8.390039408702156 0.066588229443195 0.2233100797496928 1.6153480115823535
Ni 8.564250696250307 7.639886350803026 13.03626844729746 0.2151817942156036 -0.665332335465751 0.35760933938661643
Ni 3.328964005841307 3.1992079102577615 3.1897913564688927 -0.5180289502596755 -0.10818122239363304 0.011651725306315417
Ni 7.903680043887555 1.5208958310149308 11.013331219284245 0.5752866463305641 1.1335934702736798 0.44757712409601624
Ni 6.463701848682726 6.359891471356896 0.796149407192047 0.33566574523598963 -0.13390639507387905 -1.113707272872714
Ni 7.24781262596516 7.222251967837066 7.180448189907843 0.009154412805758428 0.12147845372317141 -2.0603941417264
Ni 1.180869400364007 3.5471464097625396 7.171256254527918 0.6284190073791692 -0.6661671726622205 -1.6131108947217188
Ni 3.1628564004019886 2.5218137974699553 5.933364949826216 -0.7421052187514317 0.06529779276654561 -0.6539153518780609
Ni 6.413900738585234 1.0802036807634043 7.098313947450109 -1.2152861594584812 -0.6542393108763829 0.24792299320236658
Ni 2.0223082964681685 4.778036954583823 4.531004378855743 0.6726304117890609 -0.12250458099484064 0.2866101253599193
Ni 0.6662585405631348 6.02243210823677 6.249449808513113 -1.4873664666333417 -0.40275096892026124 -0.9576163712819962
Ni 1.2583306631058548 0.7931551062793369 5.514938443165038 1.265718347967104 1.1638689813287697 -1.2400361127096513
Ni 5.0110900139870385 7.875451469147095 10.702278729767546 0.14210564305521978 -1.141029357726435 0.577641776826302
Ni 8.046097283256932 5.1023400966086045 12.666214661014852 -1.0808547451190678 0.2993185740655232 -0.6992372157433119
Ni 7.007131708756142 2.5348141608937858 4.86410339441284 1.5780155936804823 0.6506191976252924 0.5090969378773684
Ni 9.040606748983285 3.0536460131631564 0.2267490749954408 -0.4130124987472693 -0.8818683297164038 -0.01149848755790278
Ni 8.741974282266488 5.042829970385698 3.992173236901786 2.297423113724082 1.9479418027612387 -1.9296005812498898
Ni 2.131757054263432 7.1958845170564345 4.369888802953995 1.0131074623707648 0.6175301283808075 0.33593339707507947
Ni 2.0977434094803504 5.561570141671827 1.5891862450030008 0.5732426193173418 0.08764453589286196 0.9621371419704848
Ni 5.305991064685852 1.108138876357488 10.75277203128852 -0.06911279563726161 0.177596636872978 0.032794163711885455
Ni 4.361374390040236 3.2128225362693184 11.147824471271946 -0.5899092813397453 0.2351888334651498 0.21298452945396867
P 0.8079148277715965 3.897248580471848 2.630080787391219 3.5622665152854007 -0.9207380101984078 0.08713417191534671
P 3.6604916093456223 5.868160517734099 3.3339587858083752 0.24903036733393238 -0.5928822479251402 -0.6334378007499993
P 3.4085064269027665 4.431757880875739 12.930221970790337 -1.1578178900386835 -1.4261598132170341 0.04973696221381112
P 5.156560230098401 9.33257400821833 0.5321751025705291 -0.19565555125721787 -1.2731799464514717 -0.15434357988230835
P 6.828262110449426 0.14757429467678482 9.584589445385655 -0.10254150760935242 0.2375997568994876 -1.2455632131754677
P 3.137488272338704 1.2024694400160123 10.910236870437542 0.10398775313757574 0.3347517180621525 -0.6328667587378779
P 5.283987628707579 8.054495261321973 6.4039762721492 2.229102217860497 -0.5767442047126969 -2.2188291180692628
P 0.21610766327044814 7.272208935606072 2.026694314706504 0.6745985912590253 -0.47561011897383254 -0.8650558861447554
