# total energy = -381175.4921169606 ev
CRYSTAL
PRIMVEC
9.18526596933465 0.00000000000000 0.00000000000000
0.00000000000000 9.18526596933465 0.00000000000000
0.00000000000000 0.00000000000000 13.44356520703535
PRIMCOORD
 96 1
Ni 4.487920914476544 0.732152951560516 3.3814729704795523 0.07564056945345038 -1.7837352140419214 0.7920352708126552
Ni 6.70350808537667 9.072636160915335 3.3090260228153063 0.5515381377607146 -1.2936955499063203 -0.5311176651228336
Ni 7.180838797948513 3.8741338918239325 2.600509515972806 -0.1587928739029136 -1.0207783486524613 -1.5516394176797987
Ni 1.415155545336824 3.730108922648754 11.48318427446411 -0.24084783152314004 0.10291740289153242 0.4893963741246475
Ni 7.657131575474643 7.778386270505352 1.1691869841407503 -0.7019260754293847 0.8509276742734893 -0.45999555236502715
Ni 5.2519697018445095 5.1806001858693085 4.831039277424857 1.1146598665939706 0.5282120614402646 -0.5309726549045372
Ni 4.935555662421898 7.526213980726312 3.8287807229591775 -0.6220375293328577 -0.724710677424068 -0.48925162101666714
Ni 5.811600396802168 4.052346420646433 9.517452869285245 1.0083483504192245 0.44923111475967153 -1.0381746897520379
Ni 3.4620828639413745 6.097546909263424 1.8417817531356555 -0.43608609273728116 0.4259088950939632 -1.6483010694696063
Ni 1.8094422689856575 5.995618013667954 6.2951513714355825 -0.8759421940399559 -0.702694578164293 0.35264582473375394
Ni 4.999163628718971 3.825709170045135 0.8902378072354677 -0.4601554749816591 -0.1016436783854314 -0.20938061415279427
Ni 6.2767973731316395 5.442811971267512 11.351181899814021 0.7467535161567204 0.7035656679153366 -1.358036120965919
Ni 1.5015888973737137 1.5573802023973127 1.7821197770654735 -0.21943131352057693 -0.19116949046140624 -0.2045950198386928
Ni 4.7938178244536465 1.9571229739855633 10.01900512801238 0.37113128513245114 -0.6844222622176664 -1.383018759053186
Ni 3.8832181197904023 3.427491152594836 5.092059733836961 -0.841965065763563 -1.172827218963322 0.4022871419099653
Ni 2.848194803363959 6.858086925060922 8.328880381480962 -0.10020103240163387 0.850872909776154 -1.5016530584593428
Ni 7.014052739894757 0.5632928604685103 5.440489936050198 -1.7273673767751543 -0.1902577772804143 1.313013790618958
Ni 7.913813830806299 3.5526771414270115 11.664846789155375 0.5497404224303436 0.23571359562036825 -0.5804877309155293
Ni 8.19815292173658 7.276071634709243 11.99562566590535 -1.2839276718862793 -0.2820124786869079 0.2147493346638753
Ni 7.755046509875625 0.7657370392387816 12.210091520674121 0.5646517923245371 0.05560010586280747 -0.16695998309473825
Ni 2.2203267681000236 8.33606050382817 5.3477692695107315 -1.352751218417896 -0.6937455965011212 -0.24250439328995654
Ni 5.617984177080001 3.102654224349926 11.955106702479172 -0.18398942777319927 0.038235389332114796 -0.09384732226946418
Ni 2.0119130850270137 0.4981289101294552 11.444156998218677 -0.4002117474381753 0.7122570250417476 1.0991900530931458
Ni 0.43955998070033475 8.542508540000448 7.118354189669943 1.334070611289257 1.011888245251683 -1.7074595821076335
P 7.293688974688707 2.493221017729778 9.74456775371289 0.4366033986933319 -0.7304930884338 0.19265430253704888
Ni 0.014426378608835161 4.05297101872704 0.6596417070350304 -0.01705181327596418 -0.44993379725365096 -0.49964710531837825
P 1.0425001228619408 1.052888658584972 5.738385560909411 -0.3785964831612447 0.3993846235511896 0.7689164254070048
Ni 6.345310271414653 7.0895005139256835 5.887838103699744 -0.6969479054885028 0.26416953696821605 -1.4570709009735938
P 9.13935793234955 5.304803351251118 12.218278348163013 0.49102979596301244 0.7186672994434655 -0.17796456173535802
P 2.5023052456962485 4.642334419374754 8.108889589278588 -0.4960686439385004 -0.3085740312255202 0.6858654224220961
P 4.050904333901503 8.90953339448398 9.456270731710058 -0.34875754542294135 0.7268614052184836 -0.5196598009948792
Ni 0.6138136599236964 7.009781591255315 0.40174332249937 0.2825968904354681 -0.9891200983172321 0.6799914801398224
Ni 6.568383638850136 0.16144298888480163 9.778499962968434 -1.2511561338822128 0.2189425468096165 0.6539467193366285
Ni 6.0819135867164755 1.5838337681641823 1.9781269214991397 -0.7438294005313898 1.2206610506171496 -0.6765456876830671
Ni 6.142609823726015 8.30980901391091 12.33855756795607 0.13109232266385168 -1.3219907973065876 -1.0493669589234313
Ni 0.4071708961145239 1.1618810236508308 8.449482004106802 -0.4436487355758876 1.0519709722051818 0.1611878564976514
Ni 2.48328256003542 1.9722878479720567 9.458515610693885 -0.5058627472107868 -0.1902940298349884 0.46508787928627
Ni 2.94163651327589 5.698805331657322 4.246714913645096 -0.03738075464130337 0.18173045653569347 -0.31807682850963287
Ni 8.67257190502089 8.44967305763734 9.956438770867376 -0.8714358215291702 -0.4399000671667327 0.2018174570935556
Ni 2.9800217394355246 7.902249581049184 13.615239718822401 -0.834663132785511 0.29783787575493864 -0.9587155178834457
Ni 6.359180022910477 1.6300356555972912 7.910099309279866 -0.10348304558701533 -0.38540373589106525 0.1976900651887434
Ni 0.5902745790241283 3.5373744884521487 9.22184162005319 0.40887739353297325 1.1747671162985123 -1.2770060050657814
Ni 0.4100164914876406 2.0558737675826513 12.943020627202449 1.0507299007092292 -1.2878064381153949 1.4712117112503502
Ni 3.352539382922039 2.2773121576894884 12.153399141066586 -2.2053315978034598 1.7808429800957912 0.20963978135145186
Ni 1.1362816876118498 8.462559985682798 2.572036110236445 0.2320747133162003 -0.14099132694511848 -0.8069222152268168
Ni 2.271507069646203 0.9447780790446754 3.990951184902568 -0.5524393094187454 1.2775263963456256 -0.621692230178297
Ni 7.135858550878944 2.8709099659130795 0.2893230162028876 0.441380251256685 -2.032407683815803 0.7858193718099304
Ni 7.214438500578794 5.855460041433004 7.75227255957646 0.7077334261397812 0.17477176582967321 1.317188490821938
Ni 0.8565719706907698 4.195581456954962 4.698190021259591 0.6965290727835295 -0.1756001752682395 0.0031051212878849747
Ni 7.443913998340496 8.39826312444388 7.586647519131361 0.6563265324227149 0.4809281887526363 0.3663570036722594
Ni 8.572039169840894 6.701514882678263 5.9297146494246515 0.969751463982633 -0.29452655199351857 0.5877822076944135
Ni 7.0922193526295 5.143950974963126 0.1438247303787487 0.9071399597989991 0.41438726760760886 -1.849388590375673
Ni 1.6011663649010166 8.653071585533715 9.48056300441271 2.5145427483923473 -0.27164579074060313 -1.41776156185101
Ni 4.60504223985618 8.96576559227036 5.839387663176452 0.5953013988895941 0.7153287219885358 -0.704282234366387
Ni 8.315981512589845 0.8855707736361114 1.8447394087526459 0.1960792690581978 0.7562671120741105 0.002975794798872294
Ni 7.720638503846912 4.754605924363798 4.693579017782173 0.009509225042015882 0.6564841410465017 0.7741540196568603
P 3.7799665459065896 4.310130907885042 12.250919109034244 0.8400421377092371 1.5113124359259777 2.2412097997573075
Ni 5.014310132173682 5.494065754940822 7.322561939491338 -2.3068654900839043 -0.26100065232193115 0.01276115632041028
P 5.852079863585014 0.9783042995478259 -0.13354366226664557 0.09264327465903399 1.0751594945065033 0.7672261821887755
Ni 9.059464489627247 4.379066328399054 7.041255823358354 -0.5427007419747428 0.7444870887200468 -0.2839240938873239
P 3.6903367213395364 7.04226069144686 6.031254089746331 1.9009739186521326 -1.6478323573633042 0.34537628765553424
P 0.18140257166654034 9.013069711610422 13.7761591475514 0.14256047120445126 1.6447544897689286 -0.618277033849161
P 7.2589870401514744 6.844694807391445 3.7475682760548876 -0.06307044609792364 0.22062970470405227 0.2324092138374836
Ni 3.52556223651597 4.035656792521988 10.255128002699596 -0.19896738923927024 -0.29088329881397645 -1.9303616277856301
Ni 8.36135672609274 1.9379441388045828 6.604877618762758 1.1139618120856816 1.0620849207107321 -0.3035554949650063
Ni 4.223017846172198 3.0636444001096845 7.875254084594729 -0.6776227227973297 0.14984954866669678 -0.8440222054029077
Ni 4.413814189265745 0.5297859290237315 11.727184433179684 1.1883916490604822 -1.5002296957492551 0.24309163325199423
Ni 4.9854132856797335 6.425846682749344 12.805009251606288 -1.9773755346413235 -1.1400605660552623 1.5665363893962891
Ni 3.6686870496338035 7.648295349687237 11.24013754634805 -1.4716796520257043 -0.10655448542348746 0.24826212170934017
Ni 2.9490949491796052 0.7271993376653517 7.477875600446892 -0.12846156990922392 -0.4323060568695587 0.148496377072912
Ni 0.14394230178215703 1.9091115891718733 10.732401766622912 -0.4802854129623148 -1.8432912192286834 -1.4038958596125113
Ni 1.8935425634861636 5.862661289891761 10.27630187763216 -0.01289253969195199 -0.8470913312465347 -0.9401369835503101
Ni 1.2048588827561026 7.55092234597384 11.549245625280744 0.23799262146253206 0.1719499801101619 0.9640778106366236
Ni 1.2333240217531611 5.373720401233348 2.1560923666691654 2.495046587340948 0.5548317209103218 -0.4245791205389462
Ni 8.755625079209791 1.8902450530311963 3.999124234492623 0.36384555010431535 0.8457993519079885 0.08435892316305471
Ni 5.2890781760452565 7.805280729035003 7.848581909499647 -1.6506945094024477 0.508440278129976 1.8009263811092273
Ni 5.23402169229296 8.233736641799377 1.0497757719744192 -0.0955751035938483 0.7309743989455928 0.9210288019659492
Ni 2.503958593556678 3.4706527170179333 0.7528179627627045 -0.30833723262436574 0.7565206228458132 -0.40997268347968097
Ni 3.7714793602230525 1.2029667179825 0.7263010186611851 0.3175734065106531 -0.57055170274874 0.5772136881499479
Ni 4.42776660815459 6.226728488758303 9.756183440958996 2.413065163271135 -1.0125729300235335 -0.012340780953540038
Ni 0.44948006786291084 6.7263610269141605 8.314697412418244 -0.6217937887531678 -1.7258429697108277 0.5525179851754807
Ni 6.412923013640321 2.7448330062894506 4.426898600527864 -0.33747194520679297 -0.3369258428953359 -0.04916206354694759
Ni 2.186828103394547 5.58365883844431 12.854360766713514 0.422533293753511 0.6773560993995045 0.1800463839650512
Ni 0.6359767879927518 6.553172838534186 3.94228489063083 -0.4086994731942123 0.2794107793980027 0.9936398405644564
Ni 8.713170780260322 8.653530848828279 4.445880871018772 1.472742803182896 -0.5585605918251348 0.001740379729874422
Ni 5.8870114297695295 6.048019955577674 1.7173746748510603 -0.46014364790711726 0.1407982370977059 1.963069916651929
Ni 1.7961787450386577 2.926140969717311 6.817944557536287 0.06964552821228005 -0.38247730627288967 0.14329426404668225
Ni 6.382446301413073 3.7168913250312103 6.748750112524141 0.8462019866630459 0.046265201615126775 -0.6475883812187686
P 0.8114208776756225 3.434315805152053 2.655050706308603 -0.3974478115397929 -1.8626282289943985 0.38891560569906564
Ni 8.436776944325992 5.472452824298654 10.072913453528265 -0.14369201370573317 0.5409773315257329 -0.07796407538030443
P 4.4433356338403 4.6060250633065465 2.866934582835336 0.750221934321295 -0.771318349980278 1.3611078179127076
Ni 8.25964827687866 5.776292234716111 2.0619066502200405 -0.3108101196448905 1.0496202125848182 1.6437530450876077
P 6.637015945589736 7.14109415243697 9.639627927958262 0.8668813693892683 -1.061766618139365 0.18235857703799563
P 3.317231220835981 8.197684473176125 2.2453979513502564 0.3103390935457429 1.5819727785560174 1.3484492486084325
P 5.207705905514459 1.8748872884609857 5.9381164121354 -0.8126606603724907 0.18714365713146477 1.0033195297460658
Ni 3.5777253615125155 2.6252959559804094 2.739946444835293 -0.3889608571147043 1.2550765519825415 -0.12661988871479485
