# total energy = -340867.5549531655 ev
CRYSTAL
PRIMVEC
9.28300503989380 0.00000000000000 0.00000000000000

0.00000000000000 9.28300503989380 0.00000000000000

0.00000000000000 0.00000000000000 13.58661621641423

PRIMCOORD
 96 1
Ni 2.1053483842121294 5.794952954364092 0.3369443013408933 0.4213891528467388 -0.08439003351130626 -0.5115891081716027
Ni 7.30394253639913 8.395846707304118 1.4913073142602655 0.3815730492910654 -0.6347822305930357 0.0006378906943150305
Ni 1.8705533407286579 2.479889783786226 4.113511133298447 -1.6218223064527877 -0.31913432323986973 -0.7781819098693308
Ni 1.5307953605960103 3.606976543344293 12.770073818728779 -1.695667474568712 -0.40514132352930865 -0.6558426508077608
Ni 3.0698525955722955 6.551675666562809 10.170900206600736 0.7144139234837502 1.285471105113999 -1.8373370585277777
Ni 1.7647827826512976 8.722339273403717 3.0811862162811465 -0.6680844442895914 -0.6949959239684547 0.3429131708270224
Ni 4.292851361980924 8.803649113512511 11.001898097778614 0.3068189962076264 -1.0631976941589367 -1.6659606915328986
Ni 3.9839686562177072 7.02343797668142 7.657810684012696 -2.120968560875347 -0.17085057639839607 -0.9423491607102803
Ni 1.7402106686236714 0.8496715838782842 11.856917620792265 0.420290006245289 -0.3252854304429301 1.3143865025967685
Ni 5.5958974798289995 2.74226463489194 10.272175005394539 0.2822420781992107 -0.29526574415238827 0.9732921301460399
Ni 0.38590843910066547 4.948853470779662 3.367538140799009 -0.7197515336465797 -2.158538548709321 0.21384944855742527
Ni 3.429169867074874 6.36463240039634 2.506159759414023 -0.0008736608542049471 -0.9262234587930113 -0.3876331394422162
Ni 0.492789244566656 0.09115168192673478 0.6223799932729882 -2.3119408477242827 -0.2549133084772706 -0.5613890624128653
Ni 4.991118992187966 3.2757589277395702 8.048072852421619 -0.9997855484508781 -0.9157073897530358 -0.8484802411742614
Ni 7.118560928113639 0.3101127039153358 9.995130221611127 -1.0685777275239272 -1.6167610898797962 1.5639714568825904
Ni 4.722830866947156 5.290319523817893 4.061623777288845 0.18332042673063267 1.0153008704776578 1.1456113206701626
Ni 4.9786426335732585 5.074898111605921 9.642190374489727 1.286376390537088 0.6109961839170316 -0.7327093793588284
Ni 5.490498241948506 2.5171424825368356 13.17825682813896 -0.32745132774599733 0.7393564523617009 -0.8214450914333401
Ni 4.628599083987416 8.20353997734707 2.6755718143327876 1.8213383691066762 1.350533899051603 0.11780666129853905
Ni 2.5583961564086795 8.331069898960795 0.9087978271257945 0.7499072312943537 -1.0105857243901755 -0.45133119182180975
Ni 7.840611616929967 3.5964960307877423 13.004266395192833 0.34113988097668346 0.7267660172911999 -1.0415983707216063
Ni 4.2234609001915375 3.1535203189311902 5.606571078887921 -1.231957706576891 -0.06653809293154993 0.215282581459526
Ni 2.290934218605897 1.4457816015234752 0.8077810958688147 1.0815366016774404 1.0523134431462653 -0.13771959817238216
Ni 7.322452848212914 7.322350735158776 11.366590229130834 -1.119698971679775 -1.044789366855078 -0.8502918404617034
P 7.01868507816153 3.844472941259967 2.166168775857842 -0.32885617851332394 1.1124996257178583 0.5410094703152488
P 2.6519966950337475 4.410550581382613 4.257406992589053 -0.12427992772770853 0.40848992828656744 -0.5170285340196192
P 3.1381847948006127 7.653169181551868 12.416875904070556 -0.2203240005381754 -0.43470129657461265 1.0245514425416484
P 6.9917829298985685 6.2702985043824615 9.389642512394081 -0.4005835289552972 0.10778347273458211 -0.38622854578520577
P 8.734481443841245 5.834591385379567 5.192641889431234 -1.082343413849452 -0.6294075965446838 -0.34219197639028165
P 1.6954758679062063 7.280103779760315 8.162418122145114 -0.04600603441646916 -1.6911922124061776 1.8368269516605784
P 3.4962952756633765 3.494169467536317 13.315250773270314 0.32962288147601937 -0.20515114945247892 0.3520166757901873
P 0.6601850308164365 0.29466207052372984 9.943025643286362 0.720479670061856 0.6246348577463887 -1.7822635145924013
Ni 8.574414589977112 7.16209822119621 3.1492278574554162 1.7875018801732057 -1.477897607910958 1.024414659853468
Ni 2.1034268021933467 8.068825009923984 6.35045261037851 1.4399974904310748 1.0363507491694215 -1.4517235206187513
Ni -0.052959543078053395 2.565219165026097 10.07766820327106 0.827117202117453 -1.9195941048564809 0.9959162953034592
Ni 8.259432949980367 2.654503106362595 3.804062164235009 0.9297168166582506 -0.8309586873507302 -1.5586796123560318
Ni 5.208415571394113 5.3778304112143545 6.782777930688446 0.22172216643728268 -0.27172060984259655 -1.6391852232112674
Ni 8.599246628142545 2.25700483561724 6.084562285308964 -1.332128142850906 -0.9781404593772766 0.3240397309612871
Ni 5.361956472798321 7.9497890378135745 8.949083166718635 1.67652484020199 0.19708894126963478 1.8530524123805054
Ni 2.3150050503677533 2.1630793918199145 10.121199926550677 0.512525246832627 -1.0334312615297814 -1.9673109513164697
Ni 4.607090361583936 7.066743194640949 0.42268491969879424 -0.2629068682057085 -0.02340449496686937 0.004997710324907522
Ni 8.981223714658888 3.376080361927918 1.3691643204025787 0.04994085069450109 -0.07603703356092066 0.30279136310547206
Ni 2.791854447183432 5.41640129666384 6.201909678824123 0.10735846938202155 -0.8124724556210846 0.7755146474498128
Ni 3.2239690432816457 3.9605290687905232 10.857513024128638 0.428237800337456 1.4490020079225303 1.1732884748704568
Ni 3.4496945909566583 0.8854863451665292 3.5528733340598917 0.7967969538673568 0.8917269676780384 -1.5654603827232911
Ni 1.3171191533093087 7.7549109154932285 11.2055755804642 0.16987098609394616 -0.23871612989211793 0.6870450445524942
Ni 6.833210639826823 6.00009808012779 2.385700702649125 -2.122151782550171 -1.1506542824107087 -0.591270166243014
Ni 6.525154121501635 6.88092528512414 4.651649713508381 0.023744909025423623 0.48382993578046357 0.9797900791655578
Ni 1.6611751647206834 6.632140753223732 4.387620630925628 0.8437157299060825 0.1988367771986769 0.6187755707521343
Ni 7.076016916557685 4.644036721172131 7.812725470145309 0.616481632511635 -0.8018257745405158 0.7087631529558762
Ni 1.385618446626216 4.313088312710136 8.666739643725945 0.26562606690908447 -1.0829903034048316 1.552453428940662
Ni 4.624598108866181 4.763852465695958 1.0068467817093203 0.33526825268725485 -0.2259752852866818 0.5340345816593125
Ni 7.83077163171301 1.4799337766302516 8.399110611834573 -0.13032279148767878 -0.29662791460723753 -1.9258233735956445
Ni 4.315724686107886 0.8113411282562701 7.366499778265685 1.279811078614744 0.1912977885091544 0.6245299567374083
Ni 9.08728204588882 8.43635774078223 8.171004901697646 0.16357461156227313 1.2366947070412444 0.5053122740239555
Ni 8.795331541102707 5.817445675289267 0.8288145284203052 0.8908846742824011 0.6780526112458968 1.433847668779595
P 8.649690476886828 7.714065693837937 13.057036564970486 -0.141612248358569 -2.53297601539687 2.6760635627493845
P 6.26076485832792 2.9692990862609063 6.14928896542571 0.8167546279362062 -0.8243506951159094 0.6798906928959001
P 3.986252275428435 7.052261706963165 5.28011193160604 0.543081008132297 0.4408752865958085 0.1731627694713405
P 6.8142733097866435 8.772374669931448 3.555454009428112 -1.9471804991151822 0.0798713197053463 0.9544503148491886
P 6.370192920344413 4.492370986762098 11.736513333756406 -0.96986125008762 0.2619596738010908 -0.6874980729295127
P 1.4020122333178622 6.430578867359793 2.238598493458579 -1.9760866406265711 1.510323332539831 -1.342673779577236
P 8.741332301473427 3.2486061383437232 8.059512299386578 1.6118127447355854 2.4924011792983007 -0.45208709615122783
P 0.5944093711435434 0.6243544884198248 5.301048820906345 0.1102779570216617 -0.031675733836726096 0.19166905580564408
Ni 4.227842478514559 3.3555742040559773 2.9777382660351845 0.030976650887172455 -0.9700108882916068 -0.4452525897278977
Ni 4.549628561118879 9.24285592537087 5.276919506213482 1.5979185032519962 -2.093270837849763 -0.6803347224118542
Ni 0.9039056835320812 3.8203742604833453 6.006914590641764 1.422172546434512 -0.44052278835239617 -0.9040492366888172
Ni 8.778306510076387 0.04216804985662709 3.073618710669012 0.9114853812518883 2.9674806225796444 0.9108801435677215
Ni 6.6071230549598665 5.811365307065581 13.52182176858998 -0.06841448401865637 0.36304927945526505 -0.83857223803193
Ni 7.045475830365433 0.4258680620864304 5.717316399302797 0.019473535343579366 -0.32846588505344076 -0.5199400512394594
Ni 8.729654281281983 9.116718454495395 11.631950494619353 -0.40957596226189463 3.206418381564265 0.10202008788824364
Ni 4.85523436614475 6.4819324505864 11.56059389238756 1.479641330074942 -0.5558532201963007 1.1470907334291665
Ni 6.850913330212424 4.321359470095333 4.624163664235848 0.5272517544095242 1.2373472530235787 -0.35757797192804863
Ni 6.176781512801689 8.625146211873968 13.244179159289615 -0.12451904032170813 -0.9668805701927412 -1.5911577874893952
Ni 5.827870489816288 1.8797156665863335 4.043825471952552 -0.09237228038583445 -0.4626661572186548 2.0956123414987458
Ni 9.170615581070535 7.829778350186393 5.8206148931695205 -0.9237040348052672 0.9937180021005595 -1.12547984002761
Ni 0.5388394470815201 5.67606551033243 7.150350578467853 -1.8457389094382277 3.0142669868055636 -0.10904382750424446
Ni 4.043676943873805 0.4824414789804849 12.985612196802764 -0.9302963433108044 0.4707368500419312 0.5025907613277344
Ni 1.2241498590189133 1.3524595530460568 7.82242621028844 -0.36165548443153195 -0.052818686462928394 0.18780340220265074
Ni 9.308811675339243 6.484318182851265 9.64235375537635 -1.0952917464800038 0.38154271027376224 -1.094120094769406
Ni 7.4579383050444985 1.3332901478828354 0.013026840806561319 1.3751336998781543 -1.1259601220981381 -0.8515048869331979
Ni 6.327231173566985 1.8603791673345218 1.8893959841186374 -0.39005897527488953 -0.5620071556128385 -0.48681550077134866
Ni 7.423024923534147 6.962643577449487 7.2825489232566785 -0.7958119642462681 -0.39506517024022925 -0.10547462209574737
Ni 2.9114009845645312 8.915026606562552 9.004801618859405 -1.6239167270879709 -0.3238582110781003 -0.0027456810659372065
Ni 2.0691539480225885 3.5634021182420352 1.8556058462038059 0.11921434027934306 1.071684391473709 0.021163778561808715
Ni 2.697288476046512 1.0913379076047662 5.826824295161616 -1.734968843271496 0.9886745261393812 0.21491079994240406
Ni 8.072036929626877 4.448267430379306 10.241876205630742 -1.188656986906727 0.8783510605917647 0.227925209924201
Ni 9.206939979328979 5.624535550012312 12.188798042948395 0.36377947275307027 0.2605579083575577 -1.0650188065280752
P 1.5005884625809383 5.374432831413028 10.65204299319268 -0.8565252229659249 -2.339688964371829 1.8624266545065538
P 6.762362746264737 8.97137444643701 7.714113965463531 -0.08026084183428113 0.4229253869856071 -0.125054601110204
P 5.891217715401675 0.7833937136391295 11.710671304655497 0.9112961480592177 1.754301739272153 0.22267913103391326
P 0.6105896487219916 1.6951323967241048 2.2662200746029693 1.1363095836532624 0.18254343935529208 0.4637681320335819
P 4.370448000121055 0.8534785441966558 1.3988095966198908 0.2028474410199668 -0.04858793621103245 2.310036688723035
P 9.247887314038408 1.9045662707616091 12.495217039205404 -0.04553552253795383 0.6521181507683221 0.4354541155802371
P 2.6247417925837624 3.0841948381762556 7.417639852379094 1.4700341460024813 -0.7102991299844282 -0.7780430702986213
P 4.3748759934686845 1.0727626147565306 9.471026616542247 0.48219985637620827 1.9047830079855776 0.3931494412747552
