# total energy = -340865.692049581 ev
CRYSTAL
PRIMVEC
9.35027137572047 0.00000000000000 0.00000000000000
0.00000000000000 9.35027137572047 0.00000000000000
0.00000000000000 0.00000000000000 13.68506729828391
PRIMCOORD
 96 1
Ni 0.9128735305000697 3.3282477635473353 4.7672068275400665 1.5785943490020877 -0.9635355649799084 -0.3376208120798314
Ni 1.2286162962488096 8.231071860795865 0.3498329198175954 -2.2574092923353057 0.2521925671119979 -0.4146837158021052
Ni 0.47950248196326234 4.902646442094163 9.950795260696644 0.4114850063591494 0.3392226093493126 0.38593955378987727
Ni 5.162312825880384 5.770716277689893 9.837524204326222 0.24903139577519692 1.1554388482835456 -1.3793564797102502
Ni 3.2082370316364877 6.893178944068515 0.5666311148549532 0.772917833256914 0.013352767157822165 -1.0788449137778904
Ni 8.049461541675928 3.463312432223003 3.9124648686304084 0.9759190262459256 -1.356719973257657 0.07119770319074836
Ni 1.6251332505256555 4.840841148916859 7.659354198363234 -0.026008251138303597 0.5366301103006306 0.3385605502852814
Ni 8.523866255735973 3.6130383262696255 6.1518754113852365 -0.5024179831952961 0.13559998072621807 2.2002084176442818
Ni 0.7060717104908294 4.396778065168515 2.4166598953486087 -0.2121167821370347 1.1456478303350528 1.423913697495335
Ni 3.818921949638925 0.435429043246085 8.710654755092158 -0.2407832968337918 0.7504183666028174 0.045068867314180444
Ni 8.444819062313744 8.472449113953523 3.8994773418190203 0.8497084571544076 -0.39237451078194363 0.20400726565602287
Ni 6.852421111548111 0.46226058171833806 2.7571986455114024 1.5671992197912687 1.2353171099674274 2.957526853801042
Ni 6.838732314390535 5.616128242576371 4.609513567333629 -1.9838716838886283 -0.6916498903143571 1.4396023118751853
Ni 1.6863307760695978 7.230172071360985 12.041107312607904 2.6649422560252423 1.0124783134271982 -0.20704245293792084
Ni 1.6667139069189192 7.568315282021203 4.9744668108421495 -0.8923265489352503 -0.5820018535672106 0.728687659793945
Ni 1.4725555237378711 3.5224341975422306 0.184500487973357 -0.1254258684066937 -0.28440283329595534 -1.20908131619935
Ni 7.228133712221401 7.762314710590448 8.79094459956783 -1.4070901981800927 -0.8282842258423606 0.13175849549294083
Ni 4.4245390206062485 5.931877553515009 12.19866405885362 -0.042260965551740116 -1.0435719495082092 0.9445351126180056
Ni 5.567104770242239 1.8266128961208987 10.188217349101805 0.45778697474948254 0.2089792649493175 -0.413291720550585
Ni 4.592142633345006 3.813470741481229 7.755231880093957 -0.42277909121573 -0.5361025199319348 1.9616550385822733
Ni 5.619653294849872 7.024335199348099 0.5316891510722622 0.11605419738380658 0.10765234647335653 -1.3143623342270527
Ni 6.191730942726879 9.137786367602155 11.68082078949648 -0.6952797737574606 1.2129626535316271 0.5387330155762464
Ni 5.849744770569556 3.3047692323569855 5.937170742088029 0.4300113472981111 0.4865892436931556 -0.3253954736582331
Ni 2.3803079106565175 1.2983880205588016 5.662470057106682 0.8278265694796518 -0.27376566529708335 0.22956814484426272
P 4.398049702062935 8.983516241712238 13.168935164648424 -0.29418202416990624 -0.8129874475842901 0.7367179862975892
P 5.389159757465041 8.639444959058917 9.745956997656727 1.3989788819268683 1.2599444215978042 -0.14381722642968778
P 0.5020974125174161 5.505037669469025 5.856127265746989 -0.5422438569429823 0.25266667853493907 0.5224185946869391
P 6.324158834900883 8.386725826835592 4.517768705509769 -0.27372092810207704 -0.3416394463209213 -1.1974609583516023
P 8.996419616082084 7.363534990663238 1.9634101700652131 0.4310259046055544 -0.2158255984471896 0.25934151945195333
P 0.5533191336300624 1.6193547828730726 13.293769701513913 -0.45721876095083835 0.11268193847746401 1.06663500197526
P 2.669726857663644 4.882992171858354 1.340230484547975 0.7777628200540412 0.21692294527642642 0.8884938054527215
P 6.7509332670478885 3.334736851817388 0.2415549083120248 0.8197391644858268 0.36587080806446026 1.1581325930656248
Ni 5.59609061121798 2.2845143813673365 12.603782327683232 -0.8284724305937667 -0.8776113542122628 -0.11682861365598589
Ni 1.6243197769240785 9.354198396435546 3.612200541962714 -0.7332446830370082 1.3368643719843105 0.510229765930231
Ni 3.6338894312295937 0.7852432625211153 11.569259897743622 -0.45547581011780264 0.617353236483311 -0.6988330383263578
Ni 3.698649410132167 1.923023543314724 0.7181662863947391 -1.2051423861562598 -0.44779386809251265 -0.9482452144797411
Ni 4.575040987169318 5.071362737115536 4.829117778782864 1.2036740291408494 0.18979446449075055 -1.595228358014343
Ni 6.253143524510319 4.344809257380398 11.18019323962467 1.2515189165382703 -0.9296957336123279 2.3003492862319415
Ni 3.9574275181465515 7.707690425758101 10.937502273351821 -0.643734297580001 0.5146757175167265 -0.13590208534766918
Ni 7.032282929938221 3.9122376570382436 9.010385181269621 -0.9752788215587656 -0.1587126554842815 -0.8443081120744426
Ni 0.5406495160422791 5.730051947882313 0.6035908671804069 -0.34181016757083066 1.6528647775808887 -1.166284789859114
Ni 0.42660893234530567 0.16259747749410805 5.899605092183471 -0.9031863744678895 -0.19036833471634956 -0.9554026514601288
Ni 8.470420105085221 9.313777173681311 10.116015489285493 -0.23947897620007141 1.380749246292719 -0.2742017243932374
Ni 9.020907976570944 6.299679824683306 11.778203864903682 -0.5438461684330957 0.0007739020515470543 0.7307530269634059
Ni 7.9318444792133995 7.298690859319122 5.843153764342524 0.7520456177935951 -0.11344761299889496 1.672595937461229
Ni 4.983021374038506 4.463146290731678 0.6022088970848539 -0.969437275176324 0.30926334398306093 -0.44805997726970576
Ni 8.857371731840074 5.950503293909743 4.003799253544966 2.8579824811468004 0.753307001004522 -1.6347994354387458
Ni 1.7526709508189133 8.77228426316935 10.132382204138375 -0.29553493865337493 0.2042803168117514 -0.010693218047788037
Ni 8.482145345273473 5.281809292870695 7.849836989903133 -0.11615652728962576 0.9234368971868097 -0.9561531564729082
Ni 2.678123401275326 3.075622134036834 9.09000461129434 -0.14258232558132217 0.3288726335735562 -0.24959729558099597
Ni 8.536601325222733 2.6621437876535388 1.4663142176568045 -2.652674751511799 0.2774171460067416 -1.8337272296893323
Ni 6.274265787337479 8.948060013009009 6.512600462219813 -0.3165097411328291 1.1390426663137092 1.6617782780204349
Ni 4.825675008896648 7.449922147042227 8.15123643950452 -0.783181162856135 -0.5766079362451488 -1.3959650348012087
Ni 7.287021720758566 1.7012164079513328 5.41540035879224 0.6407453901550061 -2.3931468270806526 0.003542723045935834
Ni 2.7656045393943667 9.021814952885345 1.6782680371427008 0.6617623587263054 0.6209556091225886 -0.6628026270653617
Ni 8.328258580506137 4.182151938150082 12.750254327323548 -0.007181605350103761 0.05506968728063419 0.6194366013749009
P 1.8915505301778397 5.2034914206085 12.116333985184106 -2.0660996767516098 -1.7343718331174454 1.728459067177436
P 3.3366817082441473 1.3228109291486834 2.974435368271909 0.48003575884535393 -1.7154086617513813 0.4559887451984792
P 1.3795577255621572 2.7050802333827644 7.196771967312778 0.6215413064227295 -0.007215543911832735 -2.7695871831308434
P 4.409092372447564 3.8138167015186815 10.201478838861771 0.5723509607410078 -0.8053980652728064 -0.6096946914967887
P 8.410699922403914 8.964179880700035 7.415308377781551 -0.04600654863710141 -0.8038618311339382 0.39888248710379043
P 5.94349059044787 3.71251586244411 3.743892567786785 -1.025048436782725 -0.189797292704228 -0.7171359504006036
P 7.6037528101818666 6.307823910970361 13.572507833635042 0.12800751309094083 -0.9698350248353749 0.22611875284308153
P 0.01156628557644866 8.559986353700259 11.820900943688077 -0.03614868200641516 -0.5988068409396913 0.512339356074066
Ni 0.2104381405110034 7.292285923490612 8.602214048866271 0.8364623907777787 0.5267187647241897 -0.16211705318014016
Ni 4.628982702198043 5.8665378577929195 2.557533887572092 -1.108052645690098 -0.2607062610099639 -0.004470119956211656
Ni 3.074303745786002 3.341375544427961 3.064620604845848 0.5178746840699984 1.9843115996395246 0.20124718641238246
Ni 8.06830233831016 0.4292971353390235 13.153689547322312 0.5044856643576021 0.07741617329663442 0.2841979163740009
Ni 3.3151667340231223 3.6125708127055005 12.060471724433956 0.44719711504877824 -0.9146372966173086 0.453333052743187
Ni 6.535072904220166 7.076491012561866 2.6493058651826704 2.407855079825105 1.1338097000495442 0.7806242007622363
Ni 5.533200686571906 2.3898732381785117 1.9185784243470252 1.174936294886525 0.8275568607580328 1.3950186117275394
Ni 1.0977498993789832 2.261241556145202 2.2754436831961864 2.840342142357218 -2.875311202233235 1.54083667063734
Ni 3.3666960790609624 3.362787665664879 5.6326782227463905 -0.8448017638814096 -0.3962990426473304 0.9830857191976939
Ni 6.678842675459838 6.917396146690181 11.701950532540666 -0.28555494462252756 -0.9802240813791829 -0.6986453477955838
Ni 4.7511252959613 8.60399808062697 2.669491230827325 -0.5165580221411039 -0.5706769154726947 1.8096007689547737
Ni 7.3471907164614345 4.839578862293721 2.369473751321488 -0.9252009310657677 0.4686128617203929 -2.808419325506692
Ni 2.7479231763991656 5.354245844496197 10.26252769509232 1.081147593769138 1.065221666567501 -1.747853155433332
Ni 2.0511877117839092 6.632427928813524 2.6038027699863995 -0.737813276244297 1.4011334663760258 -0.33344868298001284
Ni 3.644801197816268 5.788724900179981 6.651983086173737 -0.8149754245485965 1.4328459669879583 1.5348305736525758
Ni 0.6120519276639382 2.9118240817100536 11.366283273716054 -0.20976293719287745 0.22489670751052238 1.0523358117437682
Ni 9.215692827927919 0.22520876405596377 1.9331938333886962 -0.5690674048937295 0.043334915342209235 -1.0415993991628707
Ni 2.2314983431955793 5.316367895530802 4.482462081147061 -0.20739597962259765 -0.8045565432081175 0.49327925411882145
Ni 7.552120612159919 1.4246166828725095 8.145078350837869 -0.5486682724120873 0.5124810238582529 0.1538383581111157
Ni 2.340690811232578 8.411429243563948 7.122201683780609 0.22953806293727566 0.4278649903790696 -0.1961864840600234
Ni 9.377106561077662 2.971974376870356 8.842154165327809 -0.7342654109920387 0.6942821857308817 0.22024095390606588
Ni 0.821566261372231 0.9336554434525474 8.264987164791737 0.21200571048046715 -2.506301334319161 -1.2964918817045348
Ni 5.904967472763983 0.16669663642435467 0.96114430599596 -0.8817521158535135 -0.016701371915080913 -4.125670808356081
Ni 4.918036988625152 0.8554142434148698 4.839176800628573 -0.5588770946242891 0.426546271567646 -1.0032115434132916
P 3.7191078036982703 7.101830247737433 4.608172738431718 -0.17586577022480035 -0.290542627645106 -0.607119988791077
P 8.89380038875668 1.3745927315111512 4.018606343147928 1.3037562765764321 -0.21844503834790768 -1.0943306681183154
P 7.933078715022689 5.819328338087593 9.980437490716415 -1.6218089367163488 0.9528395187186428 -0.512051392520002
P 1.6114351030967975 1.607433186987889 10.080132888211784 0.7486484191865881 -2.0811853674401384 1.5921180945201354
P 7.760304402264712 2.4490230543115867 10.447372273048874 0.08691254282284387 -0.5078250131434803 0.0847697854482282
P 2.479991152799217 7.036219394148152 8.700596668273576 0.4200231257371476 -0.6003746996474435 0.4333370692372343
P 5.982397069254339 5.315638574370769 7.042554202942044 0.35798137801405444 0.8394993778318897 -0.294923273211305
P 4.743729231376846 1.5721639637103109 6.904006558213646 -0.22602542179832688 -0.28593392522850114 -0.09492332894246233
