# total energy = -340892.2079182302 ev
CRYSTAL
PRIMVEC
9.05160971919227 0.00000000000000 0.00000000000000
0.00000000000000 9.05160971919227 0.00000000000000
0.00000000000000 0.00000000000000 13.24794577477271
PRIMCOORD
 96 1
Ni 6.381601926998962 1.6294526366400282 11.492102626628366 0.5321633327785286 0.4347627459401674 0.7536967802437728
Ni 4.673934332781322 0.33775809252647876 6.134699364698762 0.49809621589149056 0.2218322096525857 -0.280043270775679
Ni 2.9363059111615426 1.6720404592766052 5.049533583929368 -0.36668764753880073 -0.15813775681741798 -0.5033363812445074
Ni 3.5227234833896572 4.095663209091554 4.928818604327204 -1.0297219309989942 1.0184620418144588 0.6408001546523415
Ni 5.049259320161911 4.685927715351665 2.797979214980422 1.0118743612946122 -0.4304502346077425 -1.0113280018728388
Ni 7.2270403563085415 6.201302917626384 2.654120175080816 0.22689753999063506 -1.6392551572172542 0.31733917901265996
Ni 4.834211181968542 4.627644401864542 11.391762819981553 1.8807372798902835 0.22512219325776714 -0.4814652922030288
Ni 5.709103548548987 7.811846742047962 12.493819809214735 -0.8063280332862437 0.9319295080388531 -0.7223200657047043
Ni 1.9008832503282398 6.533895256618602 0.40093199061945695 0.06310746998344616 0.13215804492420463 -0.2927329504282055
Ni 2.587339210607248 1.4753761399514382 0.1454919502510702 -0.5284663435429157 0.4576944150356763 1.4133120107200885
Ni 0.6370278363530661 0.0366282429503024 4.615252748476768 0.1610256198881743 0.9002298629427271 0.7865336242681358
Ni 8.324520851785069 2.2320454350215044 1.3037223227999433 0.37856871524710284 0.8780900936208942 -0.31631485151320365
Ni 6.917964098763682 0.8284530841071275 4.8285312970154175 -1.0866425554454382 -0.9674390137993726 -0.9643053532663973
Ni 0.9811673135679161 7.407728584889063 2.686855320790738 -0.21157273670810658 0.8887221194134436 -1.1439095074877075
Ni 7.774092478877471 3.91961845617789 3.9227693214403323 -0.05058311226419031 0.43661188333376416 -0.81608228445953
Ni 7.745525599336336 3.9561507520676296 12.79926365587244 -0.3545147596216927 -0.7464272431655531 -1.10944386961067
Ni 7.999966342017352 8.740523772200467 6.890627332951839 0.31929553140808237 0.9640346161035138 0.3052544799339839
Ni 7.068908738569752 0.35465744743880384 0.3815036160164497 -1.375970851067469 0.07711046913075753 0.7783708859516854
Ni 1.7105822124724703 6.583199373494573 9.147719476584964 0.29755633995877784 -0.3127980966091968 0.042854633271681035
Ni -0.06438409828139698 4.985418318449737 1.459631770409661 1.2075648795548235 -0.6102261385202266 0.12364229414370966
Ni 6.4285888318462465 1.9831352257370765 6.9379627247643745 0.36640919706643343 0.19965104556985616 0.6473217578209433
Ni 3.594394127308131 4.76020522280241 0.5651363331631086 0.38274804343577307 -0.08539996283305937 0.20662387734326348
Ni 6.124581475614137 5.677603947534049 4.916683111487915 -0.14860899139137632 -1.3549605673643892 0.3355161070320028
Ni 5.443556481027359 2.821395728723424 9.503413333310034 -0.549815241532337 -0.1772261409074367 -0.38892614722202695
P 0.26469621622984557 5.484804665459853 12.42500947389417 0.560832675688763 0.44244700195830255 1.1298008360004672
P 3.91044012415802 6.5504959084178545 12.402368683084207 0.460259090439059 -1.7267924781082908 0.6425536470083385
P 2.4385850602970445 8.47438835006218 1.4229084855597445 -0.6181320236308645 0.5863292772979709 -0.3522671012380965
P 6.42280485338402 7.8201018099001525 5.786053091120309 -0.862075977580825 0.1514642014519843 1.349475375880102
P 4.717463522804553 1.11331176046938 12.962995504400867 0.8572021944282915 0.17095084942168623 -1.1710783545930155
P 4.16287140953291 5.8519107914261985 8.041820984285478 -0.26985193206497393 2.310154959468454 0.25000121588763397
P 4.805445167018693 1.1652136892681333 3.878229971798347 0.2004033503548484 -0.29682768932286946 -0.21714200326576796
P 0.23425746384678894 5.726491690373614 3.629897255199193 0.09087358435312091 -2.048077014921944 0.40760366902687223
Ni 1.0867000285774489 0.8970289827419781 2.4023297436576088 0.957648252961196 0.47082838131447297 -0.4369522973923185
Ni 1.8240441373926601 6.683970941913916 4.902163424709736 0.8717996326264921 -1.0507923785160482 -0.735021829542089
Ni 6.211395462204447 5.70313853789702 9.201201816400154 -0.12867060059623647 -0.8870061651636015 0.8304354678574086
Ni 8.4908713309381 2.203025975006017 10.225055615148056 -0.19652844078047443 0.7941266061240452 0.628707999374498
Ni 2.2894416907788973 5.4109254288265385 7.1495450016851505 0.4809351307311718 -1.0193074205338897 -0.962045353587627
Ni 0.5343825847699026 0.11144432116552616 9.046385803216474 0.2581765526095747 -1.1232864319207172 0.3758446314477205
Ni 1.259115086086805 1.040935091010917 11.152544168974913 0.9961664636410521 -0.43222429578902977 1.0027716276623955
Ni 4.008776809625346 7.040649613751178 2.0009433622419013 -0.0071116713441167845 -0.9838930455903377 -0.2093888416829104
Ni 5.647561655646524 7.789434956958023 8.088281085460615 -0.9537088086974738 0.5064654137917922 -0.9655937330605177
Ni 5.511506913446655 2.998689603746301 4.787794528518942 0.36245921127974995 -0.07844024368577458 -0.2549693585261867
Ni 0.798548376683807 7.297561445822159 6.942029612906906 -0.6730397314123376 0.4186391009054274 0.3968325465532972
Ni 5.192881207892956 4.303814020855788 7.222978899131702 1.3901936795350702 -0.7212484299070804 -0.7656141005066492
Ni 8.261322514346476 7.193839052710037 9.219907872566095 -0.1758606280184778 -0.239906036435161 -0.46003129069896903
Ni 4.708058900547506 0.4455347015278517 10.346314596480394 -0.5832951184573374 -1.14558226720444 -0.6001630978572695
Ni 8.160731978116873 7.3462500532530095 4.616193210702472 0.44756298302862924 -0.36870056420377145 0.7518640979104083
Ni 7.175446182232348 6.133651188320162 7.017728223047118 0.7860073194510205 -0.6931059060345934 0.15645214158487894
Ni 2.4201559833814077 5.118060603872989 2.801171717646505 -0.35201204780449696 1.0821405538100266 -0.28174739795097925
Ni 2.625718034832346 5.0737801302623335 11.501204019967597 -2.5110270219296047 0.5048121944590854 0.03962275659794466
Ni 1.1042148929348936 3.2324021607019695 3.4363186295481616 -0.4184308415493632 -0.22190908563710815 0.3284648566121763
Ni 3.5849261437846756 2.852641884672726 2.788520283066453 -0.2141844632993408 -1.0636959739515939 -0.08035340154808741
Ni 1.1420144141528203 3.450681723482215 8.21355355043951 -0.8360823817305407 0.11340441846578533 -0.07469851725515522
Ni 3.4609190938120706 2.7948202032694414 7.308321999180365 -0.5615335584105297 0.5051703491294526 -1.238211915016719
Ni 4.097464479379477 7.114610314869875 5.957998370097288 0.5118531604662668 -1.299443508133691 0.6378809241230176
Ni 0.8667513490077909 7.157985627531826 11.227381971052905 0.27710090031790346 0.5908533904205696 0.7102878171305186
P -0.028893642643616935 5.476576752436123 8.074371477161863 0.9981791231957068 -0.11245850961274825 0.5751920297342288
P 8.603138443406 1.711233928355538 8.053916650043025 -0.47675657387344994 0.3352458840897517 -0.9615905254383955
P 1.928336781902467 3.1932630012799588 10.338868742516345 -2.6889720432809368 -0.12464862392103696 0.2966739373538245
P 4.077089306424124 6.027892183073452 4.0909654237677735 -1.1582014986303473 0.7270976895990058 -0.3284939100778988
P 6.835947465201509 3.9947920729678517 10.652341366789063 0.6203951086334283 0.055040890925227785 0.35868611739056294
P 6.3318271264296655 7.756215550140543 10.204415230034733 -0.543438905692348 -0.12499392307559765 0.06317817532038152
P 2.3939153674784452 8.53016436772139 5.875079291069255 -0.24198425912042842 0.780125920969579 -0.17942263433812325
P 6.925395470152552 4.075659152125169 1.654045859616347 -0.7178332335779444 0.6213929537703233 -0.6266565161621078
Ni 5.36729667109895 3.1881488419197748 0.017887790668311077 -0.027729861815100627 -0.24737740511154171 -0.2202468674433368
Ni 1.4405545982547514 1.0662071846987644 7.032910487639749 -0.31053115495189104 1.0550784074859119 -0.8599951837923963
Ni 6.981850358523292 0.5945178575580776 8.982954839414063 -0.7469491771072942 0.09183106317038378 0.9610644777315964
Ni 2.675203183898056 1.5869553300983215 9.146752764691746 0.4527424703470396 -1.122626943959847 0.45366601060257344
Ni 5.882333250912178 2.1945989265735726 2.1205323216238763 1.2578795686489754 0.21308943046294915 1.2067372414472057
Ni 4.175290217749145 6.730306130878132 10.059098881007712 -0.4491737791591748 1.1691168599912702 0.48388881404285694
Ni 7.902236114385658 7.047718920760564 0.48415158308245926 1.2236530433659376 0.33424186830526953 -0.2639473936550809
Ni 7.583999628039902 3.7250360070347446 8.510148543662673 0.25738799527000833 0.13027214075540144 -0.8947955793010333
Ni 3.1187863584204996 8.534825946607222 12.30092910588472 0.02917507890205943 -0.03074422316139221 -0.4665945457387835
Ni 0.14333676203220325 4.664312471896587 10.381103552382926 0.03200560637231908 0.1602918270459433 -0.4478077520495836
Ni 8.55718342204024 2.2271394626795225 5.706804439739276 1.4655182604099986 0.8131216591693092 0.22617737399515886
Ni 3.574652567016872 2.5292007228719164 11.390040298696169 1.4036240940083633 -0.49705594755243426 0.759433425617234
Ni 1.0710678989933111 3.2953651562938995 12.39888471859264 -0.25729749243873107 -0.22189031658403074 0.805484968559658
Ni 3.0240884199669673 8.38579119640292 7.959882194564893 1.0655847063338744 -0.23780647359365498 0.07621675367189455
Ni 5.678518160092241 7.656620690954516 3.7986762811776007 -1.2144477227175858 1.7363312708366614 -0.7334935658230206
Ni 3.0962025927503065 8.72123479238356 3.7820901119535275 0.3183907602056259 -0.7007906762733608 -0.5046530431734019
Ni 3.428650105990732 4.264177022911991 9.37294795996842 0.7518319591208924 0.4945642914788322 -1.048752208157568
Ni 7.342032003232044 6.1675313626301955 11.555030320943295 0.18676724762865254 -0.6452291369579727 -1.3373081443899486
Ni 0.6229009894266249 -0.28692968461289003 0.05841365666373783 0.09935179702746115 -0.21603668601673118 0.46218484670686205
Ni 4.3843733452905465 0.4559033201952691 1.768004717897376 -0.18013071614874138 -0.9739526465481744 -0.12303371402543324
Ni 5.950428509083266 5.564685119183082 0.10237008265475708 -0.7549031418470483 0.5416149651097317 1.9068519746994645
Ni 8.002899063491157 8.62081623673421 11.239861425052702 0.22798151708343317 0.5209875186673673 0.2765414282700076
Ni 0.22581140703442124 4.935779292022747 5.864745973678837 -0.6904982932084173 -0.4951900979882891 -0.3465008881782806
Ni 7.965832722641681 8.832723466435572 2.6257823012597044 -0.7583221948309262 -0.1949855217733868 -0.3589604540978721
P 8.325082051573267 1.8189209264229889 3.404483213821253 0.4930925920293121 -1.1416371665137628 1.077292481689106
P 2.0875726959986762 3.3381611659486787 1.3362538072964063 -1.0124608299257014 -0.023317848790334036 -0.19189428444257273
P 4.727764254400817 1.2646456194833935 8.117042574605723 0.3148153841495417 -1.1892745658860677 0.8002756564445765
P 8.49470921336061 1.3561845462259448 12.452154345584887 0.7232837151695544 1.5608565654026925 -0.5970736602986685
P 6.093597816339959 7.636942491929666 1.596099266002141 0.2401631467512896 1.1007154885987365 -1.0343092932593605
P 1.7018383577079783 3.2157290960268208 5.875887599796449 -0.1617781817834827 0.3720363134452238 0.4640416974099428
P 7.077607335286809 3.9340919797476848 6.070022899430933 -0.012187028984495139 0.8538034531593877 0.1548320894829527
P 2.53987257045715 8.502828507070495 10.068001138938227 -0.7232880860449286 0.10152155098527033 0.962732866572955
