# total energy = -340895.2802146275 ev
CRYSTAL
PRIMVEC
9.03629083890537 0.00000000000000 0.00000000000000
0.00000000000000 9.03629083890537 0.00000000000000
0.00000000000000 0.00000000000000 13.22552504502082
PRIMCOORD
 96 1
Ni 6.219787438024085 2.17464665075222 11.371451861502486 1.1365296700838685 -1.2153262686677972 0.08597049062454871
Ni 4.4678855828196395 0.4239158988439089 6.178000014546941 0.23207265643367128 -0.16133852314290278 -1.2400746792570707
Ni 2.749363786071333 1.5127112360019639 4.770036558625569 -0.2558581888890432 -0.001980006544506267 0.2884044982561807
Ni 3.336623293111378 4.433041645243336 4.789121204932921 0.25645159949866797 -0.4894891909487698 0.4332414241996345
Ni 4.877554865485436 4.589532130447286 2.4965428257277495 0.43549808144429514 0.2821418051759206 0.49012065388518167
Ni 7.2862233770652285 5.927165230935534 2.609171155071902 0.24247739670676305 -0.14453970641800915 -0.49218010751737173
Ni 5.429608983314569 4.425668031897313 11.43250104258794 0.17240352270781276 -0.13071334205787813 -0.7529403616937226
Ni 5.73422234838127 7.888004203525687 12.216073968674976 -0.6180862579945935 0.6347835161446165 0.8672593215539774
Ni 1.7803300262664388 6.661427117771043 0.48676691632788816 -0.2194063738199125 -1.0526183759811936 -1.0801880580693461
Ni 2.9019144484580455 1.5625825252871353 0.30362660210421966 -0.6161255347237969 -0.10425154832192368 0.9555471474577931
Ni 0.25689361663654053 9.1761726478177 4.811631509107282 1.0427301703332041 -0.5239538003845428 -0.10945006180372763
Ni 8.519613826132252 2.265660172346756 1.4467797469620296 0.25602453926357843 1.4429624865966697 -0.3425560445979197
Ni 6.788983399624546 0.7010074328223983 4.867098973325286 -0.9020046954549626 -0.09084478799771452 -1.0950672891740239
Ni 0.8410952428477934 7.49604605095573 2.614858596542474 -0.08509554421876313 -0.3784023648725677 0.2954557486760073
Ni 7.574526237120201 3.9077078395026716 3.983184362583542 0.7797304853033732 -0.56851616037595 -0.5737879502978506
Ni 7.696037240384869 3.841110375825971 12.416400404495214 0.23181117524216852 0.1876445080272833 0.6627818011297554
Ni 7.818641634844229 8.912249700517101 6.817810974742783 0.1944936697386328 -1.1751185861006601 0.012758585217248994
Ni 6.888445853178067 0.6817610369085576 0.5582403625554642 -0.6607154055190299 -0.13848295870096797 -1.2563081103967977
Ni 1.673701794056795 6.7907364400524 9.368314011372217 0.4953235382423598 -0.7138873615563189 -1.2936274156725462
Ni 0.213169716026981 4.956441684738842 1.2242565662604554 -0.5913344438220461 -0.9420879366290937 0.5660095919040123
Ni 6.316927564825242 1.824951230558915 7.088630419231721 0.7197697884790248 0.9299549008109855 -0.26603075854667085
Ni 3.3841632193533218 4.202787917706562 0.5430322850292921 -0.4268671452421745 1.0994201668260808 -0.9924206234453745
Ni 5.954807244692255 5.495591979212434 4.741245128670792 -0.5978380492685188 0.4135208058422556 0.49305402548189275
Ni 5.265916574291036 2.8532088406944878 9.246903310936155 0.40531718698554065 0.5252370379723406 0.03717095262334243
P 0.2802289341668951 5.710339431624483 12.318769607100075 0.1564158890303048 -1.5465602033846786 -0.7155894318490902
P 4.107952045076036 5.772915745866159 12.259704795488625 -1.0144881447683753 1.7115304097428976 1.6572991592031587
P 2.343119257643457 8.560927747968057 1.255785992347395 1.2586015344166646 0.6269851031461202 1.6762199073670616
P 6.396193908294987 7.574481055665875 5.573302273395188 -0.7922615278908485 0.43012421872689155 1.040656575633627
P 4.771450738145976 1.0578333901374513 12.544569346869379 0.6398118225971432 -0.9116131650790043 0.5983990639783113
P 4.014336071712315 6.1630666402630725 8.093109029955457 -0.32680366685966944 0.6204701848457379 0.2089036745163757
P 4.756730620326525 0.8790675443216378 3.904677971175562 -0.5740918546915145 0.4060841470585523 -0.44050967572627353
P 0.30774895799693486 5.494787749325429 3.6439764615684163 -0.07815305146265895 -0.4242873003301402 -0.3488843008087927
Ni 1.2456798046437285 0.9760368852254434 2.7724804253627497 0.6008195004943458 0.6821614912079478 -1.0370282348524205
Ni 1.9229317324105393 6.522286311028323 4.888101120554239 -0.7886018196510741 -0.05135058655783415 -0.6431162043800278
Ni 6.141487977676918 5.519538150005278 9.050306152355995 -0.697011925957219 1.0547361936551447 0.8065854007126882
Ni 8.569864639633764 2.1819389374804556 10.435045437124655 0.1330900698201708 0.21383299349719298 -0.6240872127730348
Ni 2.2087496124775754 5.120079876017185 7.046361361451463 0.638651483740455 1.7804555148493852 0.6768321085752343
Ni 0.6157165942328081 0.1399694346150607 9.447613789118165 -0.3447538235801869 -0.30767080268496044 -0.21985580265250523
Ni 1.581802715957467 1.1835733775270438 11.505691384079908 0.13165950802123133 -0.1741531584090678 -0.11800232224911292
Ni 3.8648035304745885 6.760491974526494 1.5528350783308182 1.2894038645095018 0.33478822772704275 -0.20502773650073722
Ni 5.698230801865083 7.9090768338233906 7.837829294867445 -0.6019201897576923 -0.06601384499696374 0.16117885763658693
Ni 5.064479578323461 2.891902238179377 5.069383573376018 0.2694575248400327 -0.7599597304343493 -0.35627596528717353
Ni 0.7767378756765813 7.494880369434117 6.897706244056748 -0.5676815802897965 -0.3492704805036178 0.5351437555630912
Ni 5.068220602741664 4.486635886364979 7.147470227200627 -0.11611718941125809 0.43379446848962705 -0.4318124050625918
Ni 8.109718636194824 7.394749230356569 8.885569148108441 0.4037259312390209 0.24681690462238134 0.7196792856477476
Ni 4.711829291017228 0.3954073047932136 10.338895687802326 -0.233907652759881 -0.5470477060895288 0.1788719040409758
Ni 8.25225708830287 7.074593445001682 4.635586490470987 -0.007247682701348809 -0.038236160663063186 0.25458832103768414
Ni 7.22596035328505 6.151201990357034 7.043756198795018 -0.17910304621517542 -0.5182135554666559 -1.2006452696168548
Ni 2.3112844049252725 5.204858356914717 2.612517293579294 -0.7137870885330287 0.004706918557366087 -0.15516299045981022
Ni 2.213321975655379 5.295528499456375 11.26772427866058 0.1247635522323464 0.019286101923121624 1.0064932994883569
Ni 1.3197683534477003 3.36068693568547 3.8785703196077566 -1.2923094681920713 -0.3002634544772958 -0.17041194619908073
Ni 3.5742596702850395 2.5743579408845396 2.5841614128442214 -0.6032800462196964 -0.25663466204375157 0.3790119734321085
Ni 1.1651664530345824 3.231784246493049 8.162608950258068 -0.2459967227139312 -0.04233372777120452 0.7875787777031984
Ni 3.635010653771941 2.6886399114570283 7.15302483519548 -0.525337825216263 0.015829253722772735 -0.27327715569643907
Ni 4.102792322991994 6.948401643068828 5.8870910882064384 0.5822962448791777 0.024895220579782933 0.4943187511269293
Ni 0.9865099463382381 7.635674817405173 11.496512319819013 0.24352794945846443 0.17334120403073375 0.5045080329551053
P 0.15832846676593634 5.715444935963335 8.060296450565655 0.7200978612424049 -1.0817050089345048 0.02704671970514697
P 8.567217006410253 1.465849031574912 7.981471981719219 0.22286296490994523 1.342133847913366 0.5888283895707408
P 1.8421201832028409 3.209130265293932 10.427731463298345 0.08521381496418227 -0.47442304064426677 -0.39151164856101606
P 3.9424252690068626 6.209296304329558 3.779405160023702 0.2872809261746988 0.0036424818485937265 -0.7565105955434842
P 7.0931449501479875 3.9349341838795917 10.089898885752905 -0.290702550261738 -0.7797551678937217 0.8827949552957313
P 6.3353073804451085 7.7387788961773785 10.069875368824654 0.2846074931075937 -0.017579403644660048 0.33760769945370883
P 2.2715608702817476 8.527827814528742 5.760350783418066 0.9858128883208699 0.08939442870443313 -0.7948043489173602
P 6.768001132235495 4.013206535354162 1.5496479785426536 1.211258526356327 0.3097904201311245 -0.25248515865175225
Ni 5.268302155079454 2.9148995984313726 0.4305846815024443 0.619368981361759 -0.43527131014546977 -0.213403105048626
Ni 1.4433848124839652 0.9931154749607168 7.071092785920494 -0.08331094151451458 0.4574108223569864 -0.5987284222932721
Ni 6.988685427745997 0.6294635035260735 9.161281744100897 -0.7917257099920365 0.19066246891800068 0.9140413149045226
Ni 2.6355336300421066 1.5414014594990502 9.077576774558153 0.7689452217624112 -0.11142158370780166 1.6072037852086645
Ni 5.993175335705995 2.24864483664754 2.793891916567898 1.4960624517454428 -0.1637679585200018 -0.5073781554140488
Ni 4.324750735514492 6.8456409433495 10.342638519478701 -0.8921272884402506 -0.04408310636214343 -0.6976475026586888
Ni 8.256016185302801 7.074982005508886 0.27883734537365057 -0.825333884964785 0.9132684412942401 1.0875650672597075
Ni 7.899191131616836 3.810179152194309 7.964477429488992 -0.7745921356355434 -0.36102222172290727 0.6763883361695964
Ni 3.3617983994618923 8.241982825589108 12.554012270823538 -0.2033488061364175 -0.059812858392574414 -0.9208840488579688
Ni 0.11429733226695922 4.5783542386470035 10.201746479566303 0.12386495167747702 1.126343473579486 -0.2296717603016625
Ni 8.660543818466286 2.175974985509408 5.721838111750481 -0.010347404672595081 1.8163383447889234 0.740394663818228
Ni 3.7431389102652117 2.715278896927708 11.441467754013502 -0.5517494824405723 0.29436894336973174 -0.26435979860215114
Ni 1.0862796337811766 3.3321593654239576 12.642425147907064 -0.11806865671067407 0.19936668156021792 -0.45391309361637305
Ni 3.150755826304585 8.398834762427667 7.894672986184223 -0.012600462372829913 -1.0918508391192552 0.9175575555878972
Ni 5.63555508842389 7.739031912321605 3.45489026795543 -0.24332868896346482 0.2428448073485108 0.6679564033521593
Ni 3.178415912643036 8.306411579458157 3.5139695376322653 -0.43151415709588264 0.46059719050476805 0.12940336499720295
Ni 3.45226070731365 4.413631692464834 9.36166149403724 0.03592936690675748 0.24735837894814816 -0.46069000732889054
Ni 7.333591613780733 6.235772636564666 11.375776630310583 0.4924670426301712 -1.1993268079157475 -1.0428751805515009
Ni 0.47553480678241467 9.094846030030684 0.4309443258788802 -0.25131299272052204 -0.035478652522584066 0.08991893374933546
Ni 4.709949742517261 0.2254518425709935 1.5497274979022675 -0.40680457016434457 -0.31440657874689726 0.11235489415534845
Ni 6.008934626974946 5.800657158822397 0.2117781272337365 -0.1484755511373056 -0.8589852544706432 0.9968616899358639
Ni 7.883467985511345 8.615841287556023 11.512277032862485 0.393474942934974 1.6337761363805539 -0.48241325793859496
Ni -0.08452004297878646 4.848729097625371 5.944383883179219 0.7672171833277108 -0.35309988155203703 -0.7702567414849831
Ni 7.826232119171017 8.815615606004396 2.593896208993327 0.40436433615396816 0.21434438591597274 0.685237301919794
P 8.312465894337857 1.8519607039550696 3.532391823819197 -0.06783470025578639 -1.3886610449406278 1.0005134277558383
P 1.716208506286809 3.1761658762175955 1.5028300519408413 -0.26127756013240166 -0.24340556494798726 0.972670437401641
P 4.6586055378210585 1.0916291179733892 8.262262973177933 0.18441237424323081 -1.0496667495520373 -0.5015731186964975
P 8.50989077716127 1.5812876473781492 12.531066417429475 -0.47682265122469497 0.38194714480103253 -0.8211553281070632
P 6.39688970269161 7.5968820207207655 1.4282110728630808 -0.5070498255403525 0.6963714641597426 -0.988680182566336
P 1.8490419820056023 3.284348350456057 6.08056711192175 -0.7143018233859182 -1.239869248114484 -1.4163137736608897
P 6.774895822165662 3.7968415868772385 6.063546354448015 1.0355323670331844 0.4289955044390869 -0.5999792639812376
P 2.6199821734630557 8.574717127828388 10.269037930381451 -0.4528165181180847 0.08429207448086128 0.29116509172045335
