# total energy = -340871.9157937605 ev
CRYSTAL
PRIMVEC
9.21571374424974 0.00000000000000 0.00000000000000

0.00000000000000 9.21571374424974 0.00000000000000

0.00000000000000 0.00000000000000 13.48812860332865

PRIMCOORD
 96 1
Ni 0.9428596675715567 8.470466570560529 7.381041114042717 0.32888291798620134 -0.6502538438660738 0.40987960954524244
Ni 8.981035540385564 1.264027289650227 6.3117160506530485 -0.16106315799432905 0.8067494370943783 0.15579805294064783
Ni 4.762570246163324 1.573417229633731 1.4579858078160444 0.7141814957579701 0.7715785456202001 -0.4338266072791432
Ni 3.1968757846013838 1.571306831198838 3.3598658184850447 -2.2742716153082836 0.41695168590067544 -1.1752291435365954
Ni -0.2876086006783983 8.083775224149596 10.439339290323895 1.2424850884707763 0.23884622771207897 -0.027909067705442256
Ni 0.7900594483143635 6.210672201047392 8.81844362533329 1.299021590104924 1.141317835501131 1.0340293001250964
Ni 5.245851487753784 1.8993862385446247 3.887237799080124 2.4001489694300986 0.553950346746633 0.11332368582652097
Ni 3.4179976188669685 3.636612779009012 8.116036673062387 1.3815308616537498 0.7042171854564065 -0.13564908879659862
Ni 7.035441713401845 3.795860311563371 9.658943439384329 -0.2580778222481813 -1.0565979294542318 0.0559906564330068
Ni 2.1277792709112155 7.096882876569664 11.073335235163619 -0.6370049492759675 1.4572609054972128 -0.8834572714700785
Ni 8.597477536629057 0.8623880556349441 12.312220214726182 -3.445084374944738 0.7847053128101453 0.5179636442393789
Ni 5.776566007704041 8.81467347686292 6.307143213520325 0.29649627412537966 -0.5853329748229725 -0.5576213678403171
Ni 4.814537655658349 1.7506538353099717 9.955519851053968 0.3861958927750575 -0.7220084480015565 0.3015178957096872
Ni 5.999660004699176 2.6642812590584715 11.900373656228423 -0.8011536881741558 -0.1859313819909185 0.09703317619661353
Ni 1.2216626538196487 7.163346603698254 2.2872092745966266 1.2802191126864404 1.0674757527090004 -0.9166116467348601
Ni 1.0026696494163363 3.7740927958287998 9.351036307733464 -0.6420561385466297 -0.72652227671151 -0.7247577286119196
Ni 5.086180032369708 3.957467066822239 0.42940802250444926 -1.9733111347639631 0.6354723146815249 0.4814187552358096
Ni 3.6890962684706485 2.9159531842047097 5.691990638461499 0.19838503437323898 -0.2792950797557448 0.8904887243955631
Ni 3.718697140841285 8.707808060919612 1.5031031773256727 -1.0494242945239283 -0.6144910844441676 0.06670032954102706
Ni 5.406850005909146 8.764014698711803 2.955883028478525 -0.8345705730717048 0.43416213624169103 1.8699653860857601
Ni 8.318739060376792 3.9526011699941894 7.6039996400466165 0.7104289706940733 -1.1012891017140194 -0.5670390616097912
Ni 1.2356336757729134 5.116490514694436 11.62777837472157 -0.9552676685441611 -0.8016925913967613 0.6667574979480517
Ni 1.8363138940537662 4.2146868516095495 1.5312534963615838 -0.8837138675655748 -1.2657857108699297 0.3508349967772603
Ni 3.4126525049270655 8.489994667868555 6.742742352481372 -1.2471927783590908 0.613222502144389 1.2565533936383844
P -0.0002654125542572655 5.161453981785449 0.06853173328051143 1.0109647049961492 -0.74303775786803 0.0526731620239996
P 7.22715620528427 7.840913521290508 2.5252741984803353 1.7967439675967636 -0.7306964626938578 -0.9639294579842173
P 0.5227539864652772 8.728506553866204 5.200644725821368 -2.2386111857921964 0.4886818645561261 1.8849778003341924
P 4.116438127965914 0.369933492637967 4.957332374562864 1.0262830805207745 0.48208004296889234 1.0503666038325397
P 4.258581295912583 3.6246599983537457 2.5234531734552923 1.2565323105924617 -1.4382249719116844 -1.4731899180226433
P 3.351174478904488 3.255155957973708 13.021628344686988 -0.9647208435372611 -0.05451021523273838 -0.11025044621783592
P 0.8051437284813181 2.0501737459320335 10.875801941657649 -0.8494863138412725 -0.2898885390008749 -1.0083059272170636
P 4.746046471518071 3.853034599292957 9.965649763541455 0.5534582376015629 1.192474303770288 0.0009898747170950695
Ni 3.5109749542802167 8.054506117471782 12.736300633146739 0.5835239466386918 0.05643931393465119 0.422641280086285
Ni 6.770600533393327 7.782679426486631 9.83856507176341 -0.05044787223790667 -0.41391109930213876 0.9959831439856525
Ni 5.34031255307104 6.416975167700279 1.8874076538910276 1.31956393303265 -0.5166025022257942 -1.7571641484216125
Ni 1.4008529907980611 0.42832148986045854 12.326800395354322 3.5935468134559208 -1.0909884911189598 -0.6882732605326405
Ni 0.4193177375858284 0.36322260992928157 3.151609120529986 -0.08375754213362994 1.286310570296159 0.9661328933934393
Ni 4.745788431534765 8.481451701278399 8.922653072591286 -1.0917294830500426 -0.12430795275216656 -0.14657242057732175
Ni 8.770447266867064 8.913069651925587 1.24094929942901 0.3284532866479504 -1.3685743014930818 -2.296253776006329
Ni 2.5861873012537466 6.100572069599074 0.7159973652487901 1.199322179930057 1.7641336377609103 -1.171881310110285
Ni 4.4993510317641565 6.921166863652188 10.978095442039601 1.2596664853460693 0.7528256904927293 -0.8156518817903307
Ni 8.884335056641762 2.435031165318758 0.9543903685398446 -1.9566457582931398 -0.07621983899568809 0.3312971838546488
Ni 6.401824534394759 2.0543208170923033 5.873661845565122 0.49913725556149524 0.8946233153892271 0.7916254369687463
Ni 1.3609858133773343 2.202205374667524 4.753769239589862 0.7462904604773728 -0.8298009195972033 -0.18465405794039166
Ni 6.084951434895391 5.679570621122176 6.520026199747507 -0.6622372414801949 -0.46517426835248926 -2.0788500344387426
Ni 0.3128808523290823 7.256766293368597 12.723526732401739 0.6098088484771498 0.11898679764956928 0.3525149555828445
Ni 2.046957461854402 1.271049663481617 1.1219421806998018 1.2745518870983341 -0.8883595938677024 -1.8580339247554967
Ni 0.1757602483431846 3.954471959873156 5.50538165196305 -0.09785438654632825 1.1452215414309117 -0.3323287104429567
Ni 7.365935637734276 9.52619108368725 4.749224049598207 1.2051092189254795 -1.373931194929621 -0.6508716799557307
Ni 7.413949506056512 0.9642493390448593 10.154942365866283 -0.5623825366743862 1.0387871265250561 -0.18308517079137498
Ni 7.861271032830588 9.028616270164392 8.058401599648327 -1.3660183678404474 -0.5040922855739254 -0.4590830678530868
Ni 7.521966886211005 6.7197205781136615 0.37555692113129274 -0.9129462820681309 1.5860101818501848 0.004712060763688659
Ni 7.6868452198296415 5.9129217074537115 8.474429327447009 0.062346166337389396 0.5208792752242771 0.5216086971911339
Ni 1.7110354821588611 5.893273805867722 5.271660093941196 1.0472751093914092 1.3512059854179632 0.3843583253456864
Ni 8.290972115030364 2.559194475857235 3.867775133339294 -0.3010651244429847 -0.10700879935208668 -0.03209199543853828
Ni 8.992112828240328 7.188017069245014 3.89716588743781 -1.5640593886107064 -0.003659194019142085 1.4347717232557613
P 7.302126036148259 2.071803025961263 7.91794951516368 -0.2574908393964598 -1.098198635714154 0.787244020071599
P 3.930446594284659 5.2468652162596285 5.954293810919932 -0.3842585665430286 -2.020659027920307 0.01927736017237325
P 1.1279111984564836 2.3802898260031973 2.4820580307048483 -1.1268242698706465 0.9108505758813668 3.675859652723224
P 1.8060679217248654 8.378097472250786 0.5655434666969406 -1.1409913053996479 -0.9449385187040114 -0.3233632737195528
P 3.829046096559219 7.106393493097216 3.0618185789105627 -2.3595340241222136 0.18627539559389852 -1.781098547750023
P 3.470849736876184 8.97752435346987 10.639934965488882 0.3809672973862665 0.3134807244985182 2.190307870701118
P 2.1792029532985606 2.2447727561992705 7.363506375605727 -1.6871429820374684 -1.4800395939546251 -1.3000839699311675
P 2.5639313526936323 7.588191004783669 8.965086826274534 0.09566354954259654 -0.6844047787161698 -1.5232960906504152
Ni 5.123715634226995 5.862069399315114 8.971399590151835 0.3261272096179351 -1.2291153520320897 -0.2833502236617249
Ni 2.9561336958908786 4.392347380115507 3.89158116494198 -0.848151654190249 -0.013169961723054738 0.565357303031994
Ni 6.503464640676127 3.261809703257519 2.224624441359942 0.576336170641001 0.07200502958339212 0.31621097894548766
Ni 4.726840924189178 1.1892694202010972 7.606576353594198 -0.6497676482582745 1.877995198368772 -0.5560594226698359
Ni 6.124680376610776 8.880851516867136 0.4226556690841611 -0.16342625890986692 -0.3235527640225395 0.11290125357712168
Ni 6.464491387483281 6.990874521999478 4.341302463560799 0.20772945170261645 -0.42837586857721704 0.28873951299809625
Ni 0.16258269933858513 1.3459365529223999 8.731863838363283 1.2536439333010732 1.2553490889176377 0.6069294700468256
Ni 7.869952235126086 7.271317905284299 6.341861571702735 1.4696471949767076 0.6976706425871404 -0.39253597606047236
Ni 4.136804855219683 7.155347364215778 5.014063386463986 0.3935739304066834 -0.07098070208393582 1.474174650533416
Ni 5.823538500379364 3.724115980490704 7.533308665048659 -0.8646113424081691 -1.3388081259742428 0.9723490495064803
Ni 1.250332739107647 2.9387897227272615 12.874782398044573 0.3395342270524604 0.28014945733624014 -0.7553402293844669
Ni 2.2838473822427012 8.744716994246012 4.2570560952969725 1.9541093650245314 -1.6158205803433978 -0.8287771063183792
Ni 7.733108102550873 5.510406980637928 2.463445053766189 0.49888168790726334 -0.5077057139567966 1.0942897875780508
Ni 3.8875474470600913 1.2580739386068174 12.595066134569853 -0.05383761464574598 -0.11736854531985592 -0.34684258778841554
Ni 2.9336934330569746 5.288658477841458 9.623914511650584 -0.2747537402419655 1.5669775906987657 0.6926310232807039
Ni 7.186726869328486 4.462737001275819 13.790532200655763 1.6373702814897155 -0.6449110914969215 -0.9295728348812184
Ni 6.565633845225416 5.672907660124676 11.14035835611316 0.8403642969353463 -0.5333802359047652 0.6388517726767191
Ni 5.472963535917536 4.720574238880325 3.9625292583518754 -0.7085677491156184 0.38968719375776756 0.7532398952120124
Ni 2.7539501532571933 3.1935304805320994 10.78707673654073 0.9647578674227837 -0.5416270492945897 1.5011406375992986
Ni 8.192013781432637 3.2325037337249465 11.766517258031342 1.7018802882476431 0.9103322414840516 -0.19167651200481184
Ni 2.5522734748764297 1.187647454591747 9.355770419855755 -0.712651946487321 0.20074479285466715 -0.9769466961794916
Ni 3.5880091050106504 5.2395387238764854 12.13308425045854 0.30963178306607314 -1.186901437668201 0.5526043742417
Ni 7.234584070517999 0.9074538171479113 2.4721041383488322 -0.2970930271691141 0.88253270277328 -0.9219996505196509
Ni 5.594915075170536 -0.11232941258980499 11.48367133818767 -0.15355373699116134 0.5608306188062342 -0.3325410835640789
P 5.408333735813154 6.162907156994773 13.025404944156941 -0.07386882226500825 -0.2763311120314144 0.22039342032353013
P 1.004171810747723 5.287506513630271 3.305643323850202 -1.1314175456682838 -0.2283633259028841 -0.03985518432372491
P 8.805900117430527 5.16758243138896 10.299953463913122 -2.135313516743109 -0.12181886778172568 0.44996027961621216
P 6.775918000192163 1.7776005821380358 0.2733094993177881 0.2740171191862571 0.9519164926837412 0.40064420698990355
P 7.345633420476334 4.352083927006132 4.8307868020356555 0.39923832778131246 -0.16082790205507141 0.012284473794307877
P 7.47720616482116 8.230351150380908 12.116439749963954 0.4882985130747784 -0.7821861459327174 -0.10438421724504603
P 6.1894484124205 7.2904589426173665 7.834093893160286 0.253270373557209 1.9999040547611426 -0.7569358560063608
P 0.2836292555072772 5.777699540487849 6.869086100878783 -1.0881867600041064 -0.0035972304329550953 -0.8110665764124935
