# total energy = -340865.069749178 ev
CRYSTAL
PRIMVEC
9.37145820916890 0.00000000000000 0.00000000000000
0.00000000000000 9.37145820916890 0.00000000000000
0.00000000000000 0.00000000000000 13.71607637063173
PRIMCOORD
 96 1
Ni 5.569832318233455 9.138717792189869 1.589611063335441 -0.29760261981568104 0.9746486441739343 -0.6099289189947819
Ni 9.533584172929457 1.0041704622999479 9.58151543176251 -1.5390386981966526 -0.7350925348790244 -0.6850922917014974
Ni 8.510727023476436 4.3918869111594665 1.3976133185768718 -0.025018376421208525 -0.6925106956527557 -0.6359309994854984
Ni 1.8688467730083744 9.522525852547998 10.882924174458086 1.5891991211011274 -1.4322654118941398 0.1559582326675959
Ni 6.053249605146257 5.1539551287690974 2.4913327473217497 -0.30825932819857876 0.4911735206297283 0.25512979536345093
Ni 8.458752917683585 3.5073805954280193 12.808648200058954 0.29614763253670934 0.799852709974545 -0.8002270625948282
Ni 8.060747098530618 6.466437186178852 1.1108345223996712 -2.915826131628146 1.805892723975567 -0.09907720320983583
Ni 1.2002119911641091 3.7852349521990662 2.542425936067264 -1.1092037285754057 1.8033293341237653 -0.010398055404872415
Ni 6.312351674558576 8.812825341965134 4.327805818840511 0.224766095469929 -0.11802289107440318 0.7498509241351216
Ni 6.387042194423167 2.0216952521791987 10.087268651554265 0.904360597281649 0.08277486650538649 -1.9719949870557005
Ni 9.075891538090469 2.2260680071612544 0.9454226667005574 1.2293714339069537 -2.514650477614805 0.5423855247271692
Ni 1.8395797098293134 6.681821404252613 6.36368289833603 0.6348691338798872 0.18860635771992035 0.9622140179550074
Ni 3.6799934794162112 8.868744831555098 12.679634149893351 1.1736080629934045 -0.08569486836565887 -1.494563241492097
Ni 3.7486862661925535 4.5159650144226005 8.675198921943126 -3.6471854247169837 0.982751732897043 1.1643261234708464
Ni 8.512976173384528 0.6643613970188882 4.82460273626908 0.20443458300142855 0.5036138032756101 -0.003708816310154903
Ni 8.500156018908397 3.822430268804155 8.185315329044556 -1.1383271283039234 1.058898038342318 -2.102674647662166
Ni 0.36878936184683886 7.599146565726318 4.954219371180892 -0.8916410928324515 0.6533185988343264 -1.6636873221176895
Ni 7.695494524914254 6.4783483092337955 9.759166411544829 -0.6630034302222582 -2.362323928162525 0.9430292174964404
Ni 5.409186786047908 1.7687970879300348 4.297603484158 -0.011882353259882761 -1.9403357082792065 0.396270246291924
Ni 5.059537689918941 5.993300388637625 7.5294397871997445 1.0246833401338225 1.5747721470425202 -0.4902180986949944
Ni 5.809413640735118 4.052855676888289 8.658465246626912 3.2155928489746812 -0.548325801471004 -0.08064470753626111
Ni 7.643079960597736 3.688099790543297 3.45156794045869 0.11161235956236906 -0.8553106338325334 0.7173678639057516
Ni 9.376612252260463 2.0757123358052336 7.0865887303167865 2.5265765396284294 0.7231988687652319 -1.313605144346054
Ni 2.4251927456910933 2.9763188162954464 7.249769241877912 -0.7933383058947949 0.37445417885809706 0.22664248655703548
P 1.7274408439949736 0.9401540330408492 8.116419181630691 0.6754622248109012 0.6954016440473056 -0.6856697614715224
P 0.5317505812919264 2.507239860046738 4.382601670622222 -0.4077149977937559 0.09228640554024752 0.09848430682084329
P 5.139476226235748 3.7255575079709966 4.118964752707709 0.22720607236998933 2.667740644705986 -1.1202720705744256
P 3.3210104111686585 8.045509107903287 5.593155065634584 0.7136312796814549 0.5109193357980878 0.6473958055919883
P 8.160787412151006 5.760363429822787 12.790569720526861 0.17719863010361095 -0.5441788691821661 -0.19420184952982683
P 8.311630399320448 2.2052258846795922 10.990279848154549 -0.18617486546029227 0.5225337801085647 -0.7374376380724332
P 4.273572254535821 7.886269294410298 8.563302776869701 0.1059639030273401 -0.45024181541237296 0.7189151537882135
P 1.2399844587055548 3.856467404079963 0.30826098923687445 -0.041310685823328856 -0.6864801731879596 -0.20426437597215144
Ni 4.813874291207476 3.0908099180753337 1.731366547730391 0.03681125529107854 -1.416551857813625 -0.29189322813572954
Ni 2.5119724463116837 8.689553184085733 3.76200404508585 -0.7490795931867357 0.44070327979431845 -1.941182115439902
Ni 8.841792518489783 4.841135862385155 5.413364582002191 0.12355204842274853 -0.7236660382096375 0.749550105065251
Ni 7.385402352793875 2.8429067409137265 5.702595888725008 -0.20870287135947926 -0.2712822367535973 0.6291381449333809
Ni 4.336932681738393 5.784841677989201 12.167805413912358 0.4563528134061173 -0.6054181756086219 -0.39436351618751436
Ni 6.688147138369125 8.27109884368502 8.707253056716631 -1.4648042650621096 0.2712249011531006 -2.4333527098755767
Ni 2.80867280502096 8.534155668352405 1.09219094395317 1.345564727971786 -0.4962421934018873 0.8674768368814222
Ni 4.978184063451624 3.2192832351171994 11.236703272105787 -0.44248248318192823 1.389087590955085 0.7321277958237455
Ni 6.319417753853169 6.973245632135821 12.781888001881622 0.9231872430698488 -1.448871395881937 2.0108440987124143
Ni 0.8064073966103005 6.171442432816546 8.638494669734637 1.680465570017293 -2.277824622766864 3.7331415171638285
Ni 7.354551513221198 1.3830022784864224 12.738668712106023 -0.5244515659565677 0.9054538303458277 -0.48877442426993245
Ni 3.242243307095649 6.937905864204908 10.424464954358758 -0.6832770928696298 0.10194732566877926 -0.7772177461838485
Ni 2.687321796021389 2.965419810699146 4.926417066879478 0.8275198368725104 1.1548140702153533 -1.1754579717179499
Ni 2.04130971366936 8.075179143774214 8.268159954471779 0.8826203773910799 1.0602866911597286 0.641846593638985
Ni 3.310055176824655 4.966282311854632 6.235986475158252 -0.9933917291093923 0.6872656452037326 -0.4514708027234676
Ni 0.2920061954219269 9.388701433016463 12.843404126159557 0.10113254307696776 0.863043997921049 1.2091229680705626
Ni 5.119158905399308 8.757833626712259 6.7546048324243 1.442197069185555 -1.0199771929074046 -0.6423883250750678
Ni 1.6602381190327433 5.220979796030271 4.4870906153316605 0.2689340482363949 0.3294092228033165 -0.5402070290186116
Ni 0.03152652169089942 7.679178816622629 11.274970683500403 -0.1455820316395944 -0.8475826690606564 -0.6215366784370392
Ni 0.684369459742966 7.2475950636334225 1.2463111299678618 1.608442799822088 1.1900340697599117 -0.045816287003166256
Ni 4.737843652855981 0.269701188354209 9.912004582111908 -0.3101627158688787 -0.9274401048089318 0.31111428114887063
Ni 2.4009956412631923 6.100144380729996 0.07115748021729418 0.40820119340155514 -0.5082019368669247 0.3456225993383854
Ni 1.914345201357507 2.8781809086389862 9.633733195462069 -0.7813646784726865 -0.3021717272436022 -0.0997649733054798
Ni 2.990282288641524 3.698933195933945 12.609120488837249 -0.10700648535924151 0.47125775554240773 -0.27952262238551856
P 4.098607134602082 0.8914796175923304 2.6267109545814615 -0.5801280335832654 0.3693759930042413 0.496353522168771
P 1.7947747693685097 7.8707970173342074 12.641298326855699 -0.18548066760674506 -0.6515375956745038 -0.3944923284558948
P 7.664400027434868 8.345705020428058 6.074411294344026 -1.1775413366095395 0.493534307552421 -0.4192034580493297
P 6.8232929334716665 2.2966069711538233 1.029643959300692 0.019283787930276467 0.8156845348004792 -1.1397949710987014
P 6.045902382113153 9.041695088029504 12.61062929356726 -0.2697652858884386 0.7496537205226509 0.17903748308456263
P 1.0633043619668947 0.14722560440059151 1.565443010427186 -2.5179306910279733 1.0730319066405392 0.047898366343175576
P 7.12765914478436 5.309605673867087 6.844843538174378 -0.4462938865082185 -0.7716667344586323 -0.04081317736162003
P 5.845587468423614 5.163410929841039 10.505471836881908 -0.2587547937105479 0.9324483566568006 0.6848125556775497
Ni 4.798402014131386 7.02903392131448 1.5891996563314188 -1.1707065730758934 -0.1704872795217064 -0.998895432536441
Ni 4.8630369596152105 1.5455502166358979 13.2986686162436 1.3715159006199087 0.28610876024346854 0.013854132274272913
Ni 6.991173231194913 6.172960609004509 4.612167716012306 -0.3089172734975518 0.5224489337042422 0.4943169513547164
Ni 1.9310638823409987 0.9055949075572045 5.366236457115486 -2.3769432207375965 -1.0878705143152683 -0.35665623144472774
Ni 7.219827433726424 1.1283235372266849 2.721516371790764 0.3194621388929337 0.45517216283445483 0.6747346026162573
Ni 5.673143270678529 7.768554411095478 10.8129175092771 -1.6259098462585997 -2.1048703697619042 -0.5055922671582196
Ni 2.649967164631144 1.6744171349116799 0.029330789093123574 -1.886264637466416 -0.7062164752746225 0.7283894118272359
Ni 7.54407987880984 1.0842214561121601 7.638756907045222 -1.092552236061654 -1.7101348149469515 0.24330040682869064
Ni 0.20146947730902587 9.062940183203034 6.939347194437679 0.41608342436310924 0.7720480290574511 0.7605117462830774
Ni 0.9429935847998169 2.1207890485465986 11.633522664682237 0.33347696511478697 1.2266972295089003 1.8024027085444378
Ni 2.0332315169161257 1.8064984632644447 2.7184575279157577 1.0079017498001093 -2.351894505299085 -0.06472006588620467
Ni 4.052255903579464 6.792835695132907 3.863571906352152 0.4397910523926942 0.05690108406241813 1.0241914880990686
Ni 3.5522136502626744 0.9935338575262579 6.811705125716013 1.3883890222261637 0.38874385600789174 0.8654667484299288
Ni 7.754534710001697 9.21753175355263 0.6054824010081922 0.16643496382920367 -1.2164174448494471 0.6532615203441459
Ni 6.334440200947641 4.293252316231635 0.07020908867271493 -0.42900424618983535 0.42256209010891743 -0.3897954372008577
Ni 8.997274377344667 6.841801562923683 7.082295665429713 -3.652768061011083 -0.5292199338794885 -1.385436110245427
Ni 3.490811857771734 4.62858182461241 2.83888451116142 -0.05261582642350294 0.29602139137149014 0.012309927715604607
Ni 8.85719919536022 4.300177823656972 10.229161896381086 0.6411253992022442 -0.11225282135984538 2.014710009425724
Ni 0.871795807313336 5.035321842575139 12.125724756277732 -0.02053694361108721 0.6752768482729725 0.09021281084067044
Ni 4.028396171637777 2.1836246741039482 9.042172095239179 0.7245818651556876 0.46715633177952454 -0.699651420462595
Ni 8.597890953872993 8.431481975047957 2.734478035281945 0.079848693997527 -0.01756706234948588 0.7330893884060664
Ni 9.007807896080903 5.779228174676918 3.27199768608813 0.3645556887974624 0.7554153055967765 -0.8019229622400125
Ni 7.252730622590235 -0.05199659729193139 10.621400520311385 2.129787701828874 0.9912703118910154 1.1398114261589338
Ni 5.1222889723547365 3.7412828144117474 6.274185474909827 1.1574947023713098 -0.6834598983043971 0.06246520841375695
P 6.533283795738967 7.452455134428899 2.741240479338945 0.9685821262648803 -1.2174839384407483 -0.3150233863952897
P 5.721715537235388 2.0547296414543155 7.575895978551406 -0.8253305425306753 -0.6611686910063646 -0.002672404625840559
P 0.9259600228291921 4.597496698590973 7.0468396914202165 0.7924222218384288 -0.017758095314369417 -0.0021761817157123814
P 2.2706105467994475 6.447553698408821 2.545031201377472 -0.5052441397901815 0.41308860340084336 0.5731960823501224
P 2.0901443810488307 4.864761307878082 10.293092108227041 0.09244812792909239 1.2924789038903999 0.006493063923511398
P 3.4352578550418356 1.6518881499989477 11.320343534312999 -0.36502285824186814 -0.11806300028371926 0.879907349335291
P 4.342377498807568 5.2335937784314925 0.6116328888610316 1.0526595136317745 -2.189071941411488 -0.014018168655962953
P 8.794307341055168 8.12723759268862 9.120820181796217 1.5280338624457168 1.3019899287046288 -0.3712711531444251
