# total energy = -340891.11916640756 ev
CRYSTAL
PRIMVEC
9.04841601061115 0.00000000000000 0.00000000000000
0.00000000000000 9.04841601061115 0.00000000000000
0.00000000000000 0.00000000000000 13.24327145943598
PRIMCOORD
 96 1
Ni 6.3224177404548305 2.2614524897047725 11.316031268375069 -2.3986708422226752 -3.2651979135963183 1.7619746824363782
Ni 4.718169794587632 0.07530906071574152 5.942586957061889 -0.24909053114790647 1.4224296567506405 -0.4883507064689525
Ni 3.0181353179755197 1.6874662269234022 4.733529480582294 -0.29968572759695483 -0.898306163557453 0.5991973915098907
Ni 3.6441771174445416 4.254827561463243 4.865537725026901 -0.32856332986325354 -0.31577543406996583 0.034275119132786136
Ni 5.113766537849262 4.577412636806801 2.69505891364845 0.6646047132711069 0.1122384231821422 -0.7183212289579565
Ni 7.324991270878706 5.887098451380791 2.78773550384764 -1.0637741354876968 0.1331916283950416 -1.0594189438427948
Ni 4.950424533975545 4.6501890459114055 11.288497843625052 0.6208494225620276 0.029929183459264583 0.33096731131905577
Ni 5.706899248680531 7.736956598508138 12.547628348868042 -0.6506587926139762 0.9171261244774334 0.04450476728059432
Ni 1.6490557014168694 6.6836486001183895 0.37418728639449034 0.11146657801312417 -0.9897448763854244 0.03816725509834072
Ni 2.9672560753552046 1.5792833663919281 0.42614962439834586 -0.34959083995751405 -0.1349518056192579 0.6361330881939754
Ni 0.4001137124802074 8.942748501688486 4.956665226423567 1.4461534827301414 0.3535387688616686 -0.3126492297361583
Ni 8.748515205923296 2.2930586064525507 1.3665071519175411 -0.48235540811746597 0.36357018495574156 -0.1532056096231232
Ni 6.950775934394918 0.3680488410461672 4.692528393602847 -0.4709574506931696 0.07596658533430144 0.07431850820791717
Ni 0.5515552397588269 7.347386100237639 2.6506538126064454 0.10143336214683821 0.30882188557026813 -0.0406753662321751
Ni 7.643305493916238 3.661188139341428 3.8790604216521585 0.22920073420251497 -0.19426252756443319 -0.11377105777658472
Ni 7.59777386509436 3.636712174324898 12.547006722695532 1.132376052926811 0.8175367575178694 0.9513598488493229
Ni 8.142470405599017 8.636115783581209 6.9817730927524515 -0.41871571977963373 0.6488631341661342 0.14383753814466196
Ni 6.715073748548116 1.082480091259728 0.2572347011702173 0.8725413958885232 -0.5348128545862338 -0.0645665710274759
Ni 1.6868147409784153 6.659416942331229 9.227302180151831 1.795106689103657 -0.6592462771726711 -0.40043260519972973
Ni -0.0004071787156169567 4.954749676776986 1.320771028896264 0.1833746770073358 -0.17403154522953898 -0.5197657304451242
Ni 6.256282868622734 1.9270139895288092 6.780210580106155 0.7010745260623668 0.0004185755946573436 1.133055852602655
Ni 3.2947725373656795 4.368059438068367 0.7856069945449952 -0.034327826747592494 0.8435902600718118 -0.8810941705545405
Ni 5.917817823370115 5.5296860232281295 4.727834407613198 0.16290818162286783 -0.022790001311322042 1.548808890209539
Ni 5.003484444828385 2.961021716798314 9.536943496546721 0.5270923460135244 -0.8551622811801273 -1.5240738493567043
P 0.1159816901979242 5.8507328678682455 12.178485554339249 0.09606207053259586 -0.24590801965486678 1.58311357702868
P 4.003688778086606 6.075956988099838 12.69662861353614 -0.07225005571466267 0.3456079440503661 0.5536305015133691
P 2.5347689404586786 8.378715496399975 1.5275182838547494 -0.31540519521474064 0.5644247639153956 -0.9709298005614503
P 6.292358902826397 7.539628744504259 5.714061069867438 -0.06397316041785112 0.03819142346805681 1.1282424903744117
P 4.796203333331646 1.046530734878702 12.50035037577696 -0.743479730501455 -0.002639494505376099 0.8046467889290788
P 4.050921509098173 6.271737562984374 8.268158331535659 -0.3521578293537419 -0.3620090111162088 -0.4254376118844996
P 4.818779131008631 0.9040941911063491 3.7405219354506456 -0.3720805364195979 -0.46157575236795345 0.026265875675064443
P 0.12040727041588539 5.345270258717258 3.637780792242994 1.3193682720820763 0.498714823312096 -0.1861185583010601
Ni 1.431450347375265 0.9475229680724635 2.6550775831412263 -0.06777967864813488 0.2566691148261128 -0.3656671766940864
Ni 1.7409242680759573 6.278741036892985 4.798778512497526 0.13521585791392196 0.6470381651422534 0.8545794120934637
Ni 6.212244228424785 5.749689207483922 9.081891422072292 -1.4107599337221963 -0.5427357089777362 -0.5660972665218121
Ni 8.369974726638064 2.222598591819012 10.36368097041857 2.36652819605186 0.7204570443540366 -0.5282953651826902
Ni 2.359600657000264 5.07793481087497 7.113066512340755 0.506014956517935 0.3728814350543384 -0.4675150006705238
Ni 0.4137342929383897 9.43288309430047 9.211330821242152 0.8649846665871878 -1.045496934445064 0.5221648268049202
Ni 1.6238649115440338 1.206099549321036 11.570076402939621 -0.21580631517347992 0.6797415689125456 -1.4100066004959395
Ni 4.337765341626466 6.825491567807531 1.7070705248179734 -1.3076885217513028 -0.5144083227879528 -1.3281768715126416
Ni 5.790750918849917 8.095129093596618 7.928402077333739 -0.2734123957227227 -0.7065147232413317 -0.8720487725228206
Ni 5.540426492904514 2.6547871289907525 4.697362057378015 -0.6093599338651893 1.3554529336197751 0.33578632997425395
Ni 1.090696052899288 7.110960041118629 7.031766495455902 -0.9202266177796281 1.2515885934339412 -0.7466846105919979
Ni 5.0387551700167155 4.641194920504222 6.9787400637419 0.5526982195070869 0.37193064110529495 0.42263562365933016
Ni 8.213690487168375 7.248586446997161 9.211714474076423 0.06739555583583877 -0.1441365574423195 -0.23360889057253964
Ni 4.585411436464699 0.3060970518858423 10.49256479685201 -0.4989979017701536 -0.2801042059206015 -0.461258992458483
Ni 8.152260791605629 6.997339082629693 4.840653676453163 0.701186883270515 0.040397944201072365 -0.6030954410127162
Ni 7.737273293064729 6.208127199189102 7.023847321857947 -1.7892188628643124 -0.455238497296016 -0.41223216893781905
Ni 2.218599191990063 5.649179403637852 2.5631293904221946 -0.03515829306868784 -1.3659890572644087 -0.3551413374620981
Ni 2.429282507866179 5.257880657929957 11.274168772201696 -1.0546690878626352 0.5293652012081013 0.6167045471557185
Ni 1.2358416923928792 3.1040590753866 3.722550876626493 -0.8286904601418437 0.8789807237559636 0.9531205402941713
Ni 3.7182474500232177 2.803742151579338 2.6034943737636893 -1.07806458396844 -1.3117912310657667 0.12528085818839715
Ni 0.9175546146030553 3.4123295567722463 8.000498950404056 -0.529652907651849 -0.7636526059049041 0.9903164326181784
Ni 3.6943053415449403 2.7200533528961994 7.152637949607591 0.07267917283228129 -0.30134048959155846 -0.11768736211185539
Ni 3.912064518656889 6.94521115861482 6.0893486436356845 0.22453675306794235 -1.457715219425812 0.005239136911752268
Ni 1.0166619139842226 7.577623042879272 11.148636479018577 -0.9445016882769088 0.3582873392902475 1.9068411760661872
P 0.19774227145221884 5.473667280375138 8.243380149427981 0.6959217782168338 -0.32089090091966027 -0.23724108800848817
P 8.22576107398244 1.5772474728138435 8.001770252838373 0.7909505223889088 0.9055751864150404 -0.8766685306830192
P 1.604229849035394 3.2730563391994423 10.284512760320371 0.20192724319854255 0.18949056009708656 0.9744023324910831
P 3.7930778495377115 6.192446294429898 3.953593128283457 0.5502924382790716 -0.634340772180243 -0.7937062307571751
P 6.845922890915601 3.906662614363037 10.30111931802641 0.23021811972343575 2.4990721635605735 -0.30546839571700296
P 5.983572661734302 7.630040516203029 10.031698210318572 1.8768983657601677 0.9349682948651769 1.9645488151903008
P 2.3750463029460005 8.49030960972673 5.936017807116602 -0.4020588279492431 1.2936412996296172 -0.7762993481346372
P 7.057393418975242 3.90942238121333 1.5430661769001854 -1.0552481002945568 -0.5982802790122599 -0.08282243191387026
Ni 5.087028468857081 2.985443391319429 0.30391276428695496 1.0652522626951202 0.18529889061324217 0.5293986255491979
Ni 1.6659581423229244 1.2423656002586532 7.116668686711579 -0.3830249512462436 -0.3058674309276345 -0.9055299349994018
Ni 6.810796940381711 0.7415638301390944 9.370858917812926 -0.994064586806701 -0.34750927483813704 -0.6179224787232197
Ni 2.792657842098654 1.7857048783779201 9.34100909859184 0.07879891257677397 -0.5414473291836158 -0.5214719145029535
Ni 6.4575829772078555 1.8369370092184358 2.6428405054745507 0.7007575090425802 1.0020344923860547 -0.9585977613586588
Ni 3.9974815647774236 6.796509491671507 10.559072463419293 0.15530388691304867 1.1330185716068164 -1.0404688851028532
Ni 8.193584907032799 7.431997837342842 0.22985509949054284 -0.4665068711209837 -0.6036574841637733 -0.33826615897331425
Ni 7.457713435338029 3.925347593201904 8.136877579729621 0.7032414518066985 -0.9848052729919621 0.42149199697319023
Ni 2.9446259871828047 8.259357842228791 12.504469214695824 1.9101671551156263 0.6877878362557897 -0.45630216267383994
Ni -0.084372858925375 4.761511706761081 10.356502862083039 0.2733715151824582 -0.7263659536393039 -0.868032452274576
Ni 8.616815512460965 2.2090893068764315 5.912696419969244 0.15656449879302714 0.05435286371926768 -0.13717812384661535
Ni 3.385754359266313 2.964297243355055 11.671599629366783 0.42669282444783935 -0.6054780823122798 -0.2805469498849749
Ni 1.224920254398442 3.785278115029671 12.595635624280868 -1.0627456942231825 -0.7584731185864938 0.5925022388779022
Ni 3.2135811014716587 8.540401640163518 8.040043242423186 0.7269974165757157 -0.5599024505650099 0.02332273388634048
Ni 5.465858497451196 7.601022246403393 3.5914031365342227 0.1647930573504065 1.3999574437900535 0.888216897642251
Ni 2.8990038742019006 8.320371310660017 3.614168046103572 0.9500231323157703 -0.29838114985291836 1.367076891011949
Ni 3.3342960180282324 4.410342685581212 9.227104019843564 -0.5641092895575058 0.4823939746648853 -0.26377153019884897
Ni 7.101151558280212 6.072428105897825 11.314892072812931 0.408755009022496 -0.06086752490933388 0.5268599182877443
Ni 0.8208695761590139 0.16388943303582507 0.2582879367812798 0.607891833960095 -1.30405195343998 1.6645802662456044
Ni 4.81648083336937 0.2815206494527931 1.646509477181878 -0.6607375170062169 -0.5836018510644788 -0.44035952330165445
Ni 6.141132727846259 5.5498458938591195 0.3084541642284694 -0.17755678477397807 -0.1718255387171557 0.7402134010453575
Ni 7.856540463076887 8.582558209853726 11.111886337830173 -0.3650357137576745 0.4452397342120913 1.460974092682742
Ni 0.1331193899174468 4.606991908392397 5.700526449360331 -0.2909434626279505 0.2889891671150571 0.7474657117323965
Ni 8.081882212715215 -0.03113107491289199 2.0928081141121315 -0.57113148651161 0.2361375705316643 0.5116803823338285
P 8.532420937337426 1.5391083997843884 3.732179295988449 0.25459834834001316 -0.33246806423429837 -0.7531519634838966
P 1.5856444027714554 3.3557588605491975 1.6539789445094737 1.5405355944571533 -0.3447756779570579 -1.2464561573033823
P 4.925686164897838 1.1184113508089488 8.280805302442722 -1.3658869844689057 0.23170396024034287 -0.5673074847798294
P 8.598085291542587 1.2637289102046896 12.369294929526896 -1.5340780117572677 1.4210412610435461 -0.7314189426821791
P 6.445186647421295 7.514564632454059 1.6207513516319494 0.3330316500472522 0.9043325722571909 -1.3821314713522261
P 1.878297318309216 3.2922480293288547 5.888276555131309 0.49033894054357485 -1.179543711751549 0.6763587684832416
P 6.982309663815476 4.0178585973900764 6.056531848840139 -0.8158531991678595 -0.015695813468702 -1.1607409772227493
P 2.3934869745554974 8.75190836188677 10.021316057911932 0.1905295428845622 0.05178176055798178 0.853926351890497
