# total energy = -340866.76297427365 ev
CRYSTAL
PRIMVEC
9.32892874422681 0.00000000000000 0.00000000000000

0.00000000000000 9.32892874422681 0.00000000000000

0.00000000000000 0.00000000000000 13.65383019974560

PRIMCOORD
 96 1
Ni 1.7286224656226494 5.048209727813794 12.159199475918529 -0.4355063089744112 0.31259137991502933 1.6286928083203758
Ni 4.729608161431473 0.29595279375222516 6.767479942607845 -0.15929218213683533 0.7558937878950918 1.0914895991250944
Ni 8.803961713436625 6.78456587516902 5.699108660520044 -0.7271084882322832 -0.5365912866428952 -0.29726863351502997
Ni 8.174221723477848 1.6247728334790565 10.384815817288876 -0.1210943309108753 0.4824484820519046 -0.20808477815950616
Ni 9.264083125275134 0.49863869185957205 8.211140025152755 0.20493980477262122 0.48331494381725787 1.5844384664876907
Ni 9.046243315700481 0.6996603091212114 12.562383638398254 -0.778176253442376 -1.1019431903582506 -0.35504646375544663
Ni 5.899595730178214 7.648620562446393 10.73786351929166 0.032348591534034604 -0.6664247971989813 0.7610887018324699
Ni 7.573494701176868 8.741178024582297 3.6671588831601247 1.7153945206839942 -0.7505896020733589 1.3933772194693743
Ni 3.673386875831618 1.9886943345499837 9.298613221252165 1.116645786675748 0.6855754019855032 0.00927268355117758
Ni 0.7546767321003367 9.20397683890241 6.253836602137084 0.3961301211696339 -0.9437352424245296 -1.3690239874359906
Ni 6.402518266008351 7.130529188863337 5.797197679310361 0.5738005487033407 -0.5417643462034025 -1.1949847288969677
Ni 1.3205751327120536 7.197594855902529 10.438066274101562 -0.6538256203777321 -0.5473837492727089 -1.4523976638676408
Ni 2.5976681296514443 9.37240131417374 9.810795651518676 -0.6671768448736575 -1.2757091406312289 -0.23934039373967816
Ni 8.170770019930137 8.765834382627169 0.8639464717066881 0.5710345559224295 0.5399627742182894 3.0422994674627475
Ni 5.5028457296899935 4.88074613217872 4.951820439797512 -0.9165293714336991 0.12847159721155293 0.20463255794484755
Ni 3.1709774310693835 2.5876861761486016 2.415880897186217 1.011122313619936 0.15021207421243807 -1.8129414032922326
Ni 5.800074720862021 7.499684218826876 8.052619140384808 -0.3546831668787569 0.3036580819811415 0.5058856300289223
Ni 4.9579150287913505 5.983154942818365 13.085925904908143 -0.6933576170340833 -0.7695296335109715 1.7696329703125844
Ni 7.283794155310255 1.496192211862533 1.909228655738849 -3.1237080497482266 0.31044039501029763 4.07507252658324
Ni 0.6134861978204559 6.240624040692154 2.947315437213306 -0.39643685377677534 -1.1627202124363072 0.47338380074647507
Ni 5.033544652200272 2.2349780471434846 4.07389363582974 0.07357571650462166 -1.0387292767039271 -0.3067971418307555
Ni 5.594950240842858 2.519230498761817 10.841550828079225 -1.7221673206314534 -0.07230456310168193 -1.7173205340621134
Ni 5.062044528790164 7.282357500320126 3.528914424502859 2.6782364020309872 -1.4781223223272544 1.6712543358316703
Ni 2.762053178879099 4.734571151397374 3.4028078347264787 1.229710048193295 -0.35835727329623446 -0.4201282838564442
P 3.4355924881797875 5.033255455416544 5.6255146093114226 -0.685083292840433 0.6049060118588937 -0.8764358458469229
P 4.893013673165859 1.6321800027138764 1.6670235506887523 1.636892570522349 -0.6699662346933365 -0.2798722924154535
P 2.7130763042156185 4.434030390605243 0.6493923107523165 0.4486667576157693 0.36507273764319703 0.1330391619775773
P 7.039245623419117 2.612239915979893 12.202796357511833 2.296090510955587 -0.7469509768795072 2.5478742726649406
P 8.142801892265163 6.841845496204023 2.0507914142661723 0.3348301367085717 0.3573051778826362 -1.3538218257742556
P 7.1828271620754265 8.160060410003721 12.796397011326064 -2.374436909375975 0.19510250696722528 -1.5334974566634492
P 7.341932037767933 5.995459799519532 7.391841805282145 0.9433747737613172 -0.5461200520689369 0.6683523532389973
P 2.153471198774946 5.603308960785426 8.980547135366164 -1.5090004999633495 0.007410947752090462 -0.30714089832341945
Ni 3.0002487104567446 4.21825227423071 10.383901582295156 1.0267160542931348 -0.8363292076340242 0.1007785021716587
Ni 2.0667214925852884 2.4180022955287837 13.530426958853978 -0.5698677893078379 0.5360472412139671 0.19300680078046115
Ni 4.223215264196609 7.681626311505325 5.5779715909595184 -1.5939237802703066 -0.059802573979929254 1.642270032784178
Ni 0.08297149014418931 2.470654768024152 5.9890890742418765 0.9735646670811361 -0.8919650518307736 0.8553054916262108
Ni 2.1606358158685754 1.7024734790166047 7.446662320762617 -0.5755494130736475 -0.6907011532478428 -0.03338063234297477
Ni 3.733791687916577 6.981975331312621 9.384414175412626 0.6063198614872848 -0.3500587807328681 0.35428721699191884
Ni -0.038825134661804254 7.04744575157706 8.09358059967479 0.34291239949607394 0.6473225291518916 0.08802274516788712
Ni 7.0287692367053864 4.352551529022227 0.2292957337816538 -0.7805606945141524 -0.4720432275581806 -1.3478388687179432
Ni -0.09813566343285353 5.329131751955009 0.5120648857673208 0.32489539409336304 -0.506758776662495 0.37782643776443964
Ni 3.825849554426906 7.777518367632165 11.57465161432781 -1.7205164152915917 -1.4237368055978386 1.0675559711276323
Ni 8.645257981669934 2.3341072414623687 0.6809604719282693 2.791705869406753 1.070946227756104 -2.376919566588513
Ni 1.194625268934597 1.739304088763542 11.082377117495938 1.4524313453190534 -0.21881219187933926 -1.5674527305629715
Ni 7.549892512053323 9.027958615826115 6.661525704192998 -0.020166961866178175 0.2039507013864746 -0.17871583807908575
Ni 1.2478374771404048 4.7725305614936975 5.034999965047414 -1.4372158139208797 -0.6462313529702419 0.9999804380705035
Ni 2.6910973486523497 6.965724337852852 3.9220625256943986 0.3394105569904025 0.19719487071987973 -0.6259378928285284
Ni 4.666889775076697 0.4770272960794923 11.832586225734113 0.4802057087643149 0.693697002651373 -0.2702949331396635
Ni 4.467791782873269 3.249853521598855 -0.1564657218177825 0.1446939726076863 -0.023224260635263227 0.3252507205502528
Ni 3.1603237947140133 0.48239702732831125 1.0742317149761058 0.31671594360636424 -0.6673907606566765 0.20434433728046744
Ni 5.435378918724985 4.659781131554111 9.385560700726176 0.450873792569417 -0.8887383173633597 0.9211293320995556
Ni 7.003562471878581 1.4397428654646818 8.279396063469482 -1.1888359356867526 -0.4081176325488132 -0.33022709071892165
Ni 3.675709779029943 9.406918349650857 3.4546514891202613 0.4133140891480882 0.5169873963690387 0.7727329709396175
Ni 9.202801393910487 7.394435247407183 13.063724920846399 0.7456320009577675 0.1299180998500924 -0.9688531205380798
Ni 7.058752412927943 4.56288155114848 11.085421146867878 -1.153228470895788 -1.8127400859147038 1.8904300816980153
Ni 6.388870043602128 0.8182767021990562 13.640886136845014 -0.5693396847185097 0.9321423953806076 -2.025574977164686
P 4.736530226383912 5.559127155374713 11.227585621283925 0.022797971731122028 -0.6659673979465885 -3.412777692392232
P 6.091267895289806 9.58901903411393 5.027899717560486 -0.25115332721420613 -0.46842517118961907 0.013498034486434819
P 6.305777277387343 3.7112716544998836 3.300116855503496 1.2314761389547824 1.0885150898778027 -0.03206654151724155
P 1.9025789954988241 7.264128774016804 12.414744948734107 1.2150827851984236 -0.7800305330422954 1.3954181611588032
P 0.24990893421144925 2.6881680651010487 8.26677962055617 0.0953439614196487 -0.1787978562699308 0.5618603456223291
P 5.634346305929311 3.07607424136432 7.618318336868884 -0.09932377200300313 0.2400695585962188 0.8007615949420597
P 0.05590640275872472 8.992601976783336 10.310170395837478 0.7182500094003887 0.9299795834013338 0.431382773724341
P 3.8358594947152707 7.491717313881616 1.9950566637919824 -1.7070610611176344 0.5819344906643849 -1.9956771611639887
Ni 1.5941832769035231 8.486619552402795 2.4913593919533192 -0.3520570421098195 0.6520597867265608 -1.3370615755967812
Ni 9.265762332406453 3.2036006940595154 12.220246118284791 -1.294412630578003 1.6081160126102887 0.16381783792133078
Ni 4.433405352395252 5.398669585048644 7.6442742146548275 -0.15971615704813139 0.9676238761166691 -2.6652970682615003
Ni 7.81502066023163 6.059493564793842 9.729377427970958 -0.15239571212731817 1.6567132047927013 -1.5517245211944373
Ni 1.9649055668562934 6.673990085571642 0.9265351859552131 1.003670228217265 -0.7945904331343412 -0.8721413322366269
Ni 2.470552149810571 4.212449680699151 7.38665398813922 -0.9543700964305564 -0.9777445094904388 0.1549770997012492
Ni 4.795740935619933 5.136209510423433 2.273403903665175 -0.19047066462216874 -1.1724664931897937 -0.29471938473061504
Ni 7.465708261203181 8.53061477924336 9.485369973933247 1.149485201803272 0.9479497947265094 -1.371989754932534
Ni 8.238236830895143 3.9801313740811226 2.2180507063669355 -1.3430710150156548 0.3529253036473857 1.813900681881708
Ni 1.767020335358818 6.857686016809468 6.0145122702100515 0.7791807834474903 0.5123869214825498 2.0075019217130583
Ni 7.383417782840027 5.890910497737889 3.740972164188669 -0.69955346143215 0.09913685280317765 0.17065440122718997
Ni 0.07996850805767991 4.62261468038091 7.359346348612565 0.06657845925118211 1.391650980806887 -0.35929238351599413
Ni 6.042841427408259 8.837499211420475 2.1286730410167625 -1.7208465449375006 0.8856694486300489 -0.9964706251450322
Ni 6.198662520266185 6.537004099370014 1.1719886239115618 2.1245899596780182 0.927668161659338 0.9528014663918558
Ni 4.876174957210129 8.220940997442556 13.829008644659568 -0.5223221783183907 0.46422090330028437 -0.7867321134321871
Ni 0.028889825801498247 1.0313317043423 2.883347907331398 0.8664615082430303 0.14109725639536347 0.2138013689283092
Ni 2.1930165267175163 -0.002255734913072293 12.665278921155547 0.023416836262043543 0.7538852421054951 -1.001069043148992
Ni 4.029929194453247 2.655899301394195 6.242421725215515 0.6594046571274063 0.7777291386026283 0.43707031102742144
Ni 7.846953582512219 4.15089741040779 5.4316986564288445 -0.1388295434071093 0.5626296196881858 -0.26227694793119344
Ni 2.4655145284166133 2.44355423071036 4.4605562659229845 -1.4350378324329542 0.32510416767005945 1.1602180148397436
Ni 7.572337914041959 1.7934865055341123 4.502131568708749 -0.24905504992428074 0.5989888750435103 -0.3741091368138525
Ni 0.35342645650018123 4.555978144053055 10.13926535847605 0.4733313502419848 -0.1332780174612608 -0.5702619394224631
Ni 7.611071625204391 3.714797989475654 8.594976922801129 -0.8850624111736692 0.5670272345352493 0.2818494707464823
Ni 1.1772081594114125 3.6576489734397533 2.004601090547831 -0.44889944245186564 0.042859775478003605 -0.5776564321143213
P 0.6069065045442362 8.031218578388994 4.323471393079179 -0.16935625124105672 0.40784612405498144 0.5731899117025354
P 8.616086422227514 5.5688012542368135 12.048016373075324 0.8900140987519898 -0.7978727034300388 -0.39571565934003466
P 0.9241926920070227 0.6263554546963169 0.7983697016572657 -0.4944575906976388 0.19302479850259016 0.5343672824083829
P 2.634489410469874 0.5605893073981956 5.390081373464796 0.8228219171762087 -0.08042050734059698 0.7748770138658139
P 3.1630011971956167 8.258676513254702 7.803614179345718 0.040182742866472734 0.46133098334699907 -0.9824396009732628
P 3.2591171476066334 2.0847169956759273 11.731507285357198 0.2863609854635907 0.47234173263520585 -0.8293013542529654
P 0.24277323679619287 3.0671464567828055 3.9064020534091446 -0.3868152715266112 0.025624385436323612 0.24756303875978655
P 5.432710845171889 0.45983221505478244 9.62339706855629 0.44042020133626086 -0.09349559535700028 0.07586091299437257
