# total energy = -340867.0850117498 ev
CRYSTAL
PRIMVEC
9.27891464926867 0.00000000000000 0.00000000000000

0.00000000000000 9.27891464926867 0.00000000000000

0.00000000000000 0.00000000000000 13.58062951626937

PRIMCOORD
 96 1
Ni 5.098661384760938 5.975268263156174 3.555190992331811 -1.3787342727452192 0.1286906552008945 0.0018889894925967466
Ni 6.990557795902338 6.823871377947027 1.6915080482598222 0.49451852584256123 1.3013193850001654 1.676562378308145
Ni 7.484121809700983 0.9317329087377269 8.451334503360538 0.7775183081434028 -2.9321786048442404 1.9530233310492044
Ni 1.1904939941040003 7.455190154658418 12.171190966095295 -0.872325166112659 -0.9252976045446323 0.9733882894042719
Ni 1.7707787417152892 4.823857056428468 2.4553371454753417 -0.6917357651599442 1.1172811062669015 -0.5905119479207507
Ni 5.1628993090263915 4.7143937034659436 5.736023518409216 -0.6621727067908466 0.312886542557945 -0.692543091552588
Ni 0.20898527705634998 6.603311583090775 1.1262115310495135 0.35795849519591905 -0.8283942690576636 0.132594618240991
Ni 7.50441479545406 7.299007467783345 12.958717482750586 1.1247511893917015 0.02025669336650705 0.6369057046939417
Ni 1.1902991369019817 2.8241211023413646 6.155827586003768 0.5986875417530075 -1.4062723302644877 -0.2793796690497511
Ni 4.191146442559804 5.090551613591212 1.6632064315037827 -1.218696984912243 -0.561806095345626 -1.2103830657299088
Ni 8.972895785523498 1.2923115216158918 10.383464287261582 -1.5567877946499575 0.5706486333379205 0.28940517160655316
Ni 5.45660478595466 1.1543897382442747 3.2472099056270856 -0.3910653050522168 -1.5907703222429894 2.0658435948767453
Ni 4.482949742039796 6.853536067225758 9.023363800846306 -0.3876683635555259 -0.3848347507614727 3.1506796932410643
Ni 7.6795357465824585 3.096160314188046 0.1610337033138955 -0.010958813004348868 0.49663762906809306 -0.14419723547692584
Ni 6.810602530381001 0.24047512879398839 5.705140507672151 2.480842013705792 0.28677698995508677 -1.8419485891578602
Ni 1.5545614787897357 9.328370995491653 10.730638580423745 1.0431883409165454 -1.6556315416927487 1.3158281201393014
Ni 3.2545884983435216 8.706294017504574 3.8722858287423754 -0.24176057314539653 0.17364973641008805 0.8452671335536024
Ni 7.596201816519186 2.0808893392706453 2.449754950583229 0.1442869669772547 0.6724260090877386 0.5342862926588023
Ni 3.0014411561782595 3.1655851515929463 4.064600608220318 0.15680309716639446 1.435948774282998 1.1299332478132735
Ni 0.6702243368229915 4.920682528002932 5.452133277114054 -0.010390599205704685 0.46805853187881974 -0.3935479622647545
Ni 9.117526223993183 4.88288023081133 12.727575086041849 -0.3040946552979279 -0.031650537025745495 -0.09818683018508251
Ni 5.492439953297313 9.000927385871027 7.415539497721954 -1.62800580955568 -0.5418260526792733 1.0757477629098051
Ni 3.2982457905100624 1.3880699180364442 9.786798544200598 1.3903379184224185 1.1161120256594648 -2.959409929756368
Ni 6.701575286394423 4.48887896832979 11.770399394069127 -1.5227209348732356 -1.3356402697692222 1.4124928572529027
P 5.9504193304416155 5.291254531670335 9.744535872865647 -0.919654547326242 1.7073636799597176 1.0787096737516066
P 6.527317274303535 5.445702061556003 0.21944818091330875 -0.6206396205440666 -1.010258422957744 -1.887378439355885
P 0.911841699977384 6.621386908306592 9.355138807700374 -0.28467691289294844 1.2435232999273036 1.2259035299630114
P 8.44283780146109 8.660214928684374 1.1895382659226712 0.46921141453634024 0.030247743140947907 -1.1850309601183655
P 5.420964475814027 1.6596359052496519 8.390398016832142 -0.9872917868592417 -0.13640293624348768 1.2764359914949244
P 2.8807132011561856 4.343088665562376 5.9712801857548605 0.38808719626049937 -1.6132610471463376 1.5480552998729664
P 2.618778727071324 6.400298215330575 13.600592880354192 -0.8702245748298884 0.0784052766827811 0.402742484279829
P 4.177859037165014 7.942203254903485 2.2081013996627474 1.1833833972126133 -0.7259113826003885 -0.6747430872566895
Ni 5.786089756739291 8.982462346251172 12.462889413842774 -0.7720891667080316 1.4679009017095623 -0.2112984000007974
Ni 6.117003680338725 9.165544605919187 1.2410483033305597 -0.2072157452909915 0.08117821144222792 -0.09121296997041066
Ni 7.686114496879181 3.7071768262319775 4.839429858435505 -0.3865067391472569 -0.9541186425413826 0.6336293479355152
Ni 9.415778368968553 2.680260813765372 8.374345494951564 -2.2459411437947066 -0.21066128063743073 0.18828188450096606
Ni 3.6554468785532395 1.4779362038245303 11.853458668266697 2.320996787278964 0.5126208918702267 1.4985991021243676
Ni 7.640963299497165 8.558091196997882 10.941356230795185 1.237391990218585 0.4351193579486377 -0.020011410124920373
Ni 7.634328875714152 5.914138775208635 5.986626582250979 -1.6629427306421813 -0.14701645009327582 -1.580626034720136
Ni 2.5983279997737565 6.254869790224052 10.642744991833238 -0.3576520196990937 0.15883658265665548 -0.7395109756616941
Ni 7.617524761768646 9.087017153505705 3.158868145471935 0.07793630746616255 -1.155689787952087 0.833403549346797
Ni 5.403445885461119 2.2986747387267292 1.4773961710075074 -0.09748466191173534 1.7916930354364173 -2.496175558739069
Ni 2.360592934396724 3.1141150135169 8.250734581231054 0.3194773084015852 -0.7284863424164163 -1.001891024829655
Ni 7.02184629519789 2.3741772650517325 7.034616865061612 -0.05712271315492097 2.4892837167152417 -1.9251554009943426
Ni 4.662079184181151 3.6456297871372563 7.997428569629862 0.1824377670153632 0.0695452551889899 0.044010858363311305
Ni 3.401260297977211 1.2853059412576053 6.923825699451046 0.6336686858138829 -0.021808868344975342 -0.3800797525749906
Ni 9.361403930690992 8.670987748281686 8.430827174685241 0.8332811648363198 -2.0663963820564217 1.688149826035428
Ni 4.6965039565377635 3.2855336778069466 10.925982925447359 0.25790324434353 1.212958539766569 -1.2873490388630022
Ni 2.709925503044103 2.9591849800833763 1.448401419347145 0.4265850952253814 -0.3522969260347674 -0.26868336567816953
Ni 9.006568965815182 5.8450943732933895 7.812094317441375 -1.4429719996783665 0.4954310103545016 0.6609362632805843
Ni 0.5004721655559224 3.275363987644454 3.7601232395861746 -0.05381498893792667 -2.030593256314883 -1.0017624696715908
Ni 9.167966402572846 0.5800666931233157 6.369980290479362 -0.5493167046293636 0.2276768413588208 0.7530043821624386
Ni 1.1070208803249995 0.421067855733357 4.471353882736816 -0.31308477461168016 -0.32353270941788154 -0.21175734191508694
Ni 3.0612808750267226 8.947517954689175 12.958119920664396 -1.4151855735937178 -2.199265079894406 2.3256242587486464
Ni 3.6621184179937796 0.6420498411939833 1.4613028219036504 -0.47436081994776363 0.11366589965728813 0.5120675904699181
Ni 6.97455166859367 3.6368240973888932 9.109464703178244 0.9178290640817289 -0.6665250702222715 -0.5861924946097904
P 8.358919299791761 3.4189366298746093 10.79646412693993 0.8589523443501789 -0.786736227197245 1.1865697653603953
P 8.976932113279597 4.120005005994264 1.7680080578808728 0.6715996565317014 -1.7318565228947593 -2.5335789390881915
P 1.1009153546617512 6.629171917472953 3.7115184302712385 -0.4929578662236607 0.7112368113073493 -1.8390740958235423
P 8.347821718191085 1.454182183007029 4.451390298444294 0.06437450962132785 0.5182168979007655 0.36881549251508094
P 1.345127102277305 1.020856881375266 8.889364214583892 1.227576803900376 0.5677474005307254 -1.3052315755703778
P 3.7524764862441033 6.920149393572963 7.12911054545192 -0.22434263477926528 0.57990126228444 -1.6730222263653702
P 6.884759614120639 6.851661726520628 3.8906868438529956 1.5826924303308614 1.3791708460620054 1.3167598879249516
P 8.481373132888857 3.910320098793523 6.880530284945398 0.3177878365143043 1.0626608478188602 -0.5793644159443635
Ni 0.3544777266721076 0.43039594836141715 13.0281961378589 -0.39190605578595733 -0.38149308798274945 -0.6251166824788137
Ni 5.522698493096482 8.904565860015655 9.940640160977132 -2.16567798796758 0.8438584261315338 0.002371328445653981
Ni 7.93490074928498 6.00576805472927 10.795690265480488 1.8572098861923045 1.4377189788095435 -1.8785914371918746
Ni 0.4419621151383763 1.7988103420628172 1.4095060660413627 0.6961395506545947 0.38718062528582997 0.5002636558564546
Ni 1.419803805222325 8.618886644027674 1.5700025202125498 0.31123383744587046 0.26269963729090884 0.6079291149559337
Ni 1.9628893850768314 5.388080003244799 7.6042559142026205 1.366459569142924 0.9021954713095302 0.33655766092263967
Ni 0.3081406840320926 7.104066755535343 5.582073338334416 -0.15115438352104937 2.767225367766886 0.42692859460772925
Ni 4.887649592803594 7.102582129234249 0.36163826490057077 -0.3403824339853686 0.20110191908376976 -0.40939392815807557
Ni 5.695852314375932 2.5018365691170383 5.233431120917045 -1.5420188638708991 -0.7507819205898232 -0.7923008657692161
Ni 0.7627536710386648 4.455270740438779 9.977049693120021 0.4760256092446962 0.9239660302174022 0.1677236007336402
Ni 2.158934288136272 4.286162525829809 12.934584882226305 -0.48633470448018823 0.7174941050709708 0.8519574010895844
Ni 6.984786311156835 7.5743778098931065 8.876815410773897 0.8263710679800477 -0.8903534843692795 1.4202696729848443
Ni 2.8528579001819123 5.748760684181163 4.436614555182659 1.3375035482302062 0.8672300109779386 -0.19182075089215997
Ni 3.199777951090014 8.68798671942921 8.490215938294748 0.6434275649728596 0.6737673536069816 1.9614496074396865
Ni 8.320773682768031 5.271156403119277 3.291537135411995 1.1784628199825447 2.509508528402549 1.848246249241114
Ni 1.3414619310964797 2.58541175095424 11.594787588369929 -0.5953075695371812 0.1461445890112838 -1.3526825699634897
Ni 4.042897227481203 5.547018527691276 12.220855427432635 0.4250676301395905 -0.11690137587545027 -0.27753181720773495
Ni 6.494692611336998 4.443263825228683 2.125191515986724 0.2828737982459386 -0.6322129272039628 -0.036070777580628204
Ni 6.432050660345219 1.637171653531226 10.514312754199926 0.4946987601741673 0.6691936181933701 1.362770550327111
Ni 4.3681974078796255 3.6269698903153826 13.232204205240834 1.4477272549751647 -2.032447021694171 1.0169108952772552
Ni 5.64768546981982 6.895393250002224 11.472997197651134 0.5419893177300149 -0.2966834504355213 -1.5945395594774345
Ni 5.929393310452374 5.8851050521078685 7.6655180906258185 0.8138312836418242 -1.2398661627906906 -1.3152282817717733
Ni 5.477584411371994 7.384716799928369 5.6308136197993255 -0.5510866520455928 -0.6603654783787789 -0.5462141544446399
Ni 1.9511051638118988 8.306159392616639 6.788453761751558 -0.6649541261907257 -0.4065793415274159 -1.9963181371820975
P 4.803573349589774 0.40897279083663307 5.199235537745663 -2.041203684840878 -0.4164894015522762 1.0927671802859373
P 3.840635451785931 8.32067161470983 11.200827153111668 0.4025391100197713 -0.9171826887469817 -2.160059099118906
P 4.980967634741724 3.5536757456132566 3.4089144744507878 0.8649864663594006 0.2439796922839024 -0.6047478890144746
P 6.019036902295296 1.854817869271582 12.9388494712762 -0.7163126831683598 0.07547421907891518 -0.4204854100855468
P 7.816937910748694 8.030566356561714 7.10060479257948 -0.19118748818353523 -0.08936023303238803 -2.770161567577074
P 2.960279891980433 4.064953206966828 9.95312122871214 0.16790357795493022 0.5833907634949372 1.498680091873948
P 2.1783736137662197 1.6885861181209818 13.268057002520813 -0.9864039849376496 0.3052431670800743 2.592092104832736
P 2.1969963949305655 1.5531418048893149 3.095215720703975 -0.5379897096523186 -1.6666142659564973 -1.761963883803101
