# total energy = -340897.29582768196 ev
CRYSTAL
PRIMVEC
9.02899752888821 0.00000000000000 0.00000000000000

0.00000000000000 9.02899752888821 0.00000000000000

0.00000000000000 0.00000000000000 13.21485054859014

PRIMCOORD
 96 1
Ni 6.3556018026396615 1.839053347682309 11.361071388385207 -0.28072281334120686 0.6150335872111988 0.030938084339753168
Ni 4.594847923401459 0.2825498438310075 6.143795961939796 -0.08082288498533823 0.030441090098676606 -0.9354958852338727
Ni 2.9507216080346272 1.6877995774590993 4.733031316489096 -0.2533899298542088 -0.5331370095457076 0.42167325974606085
Ni 3.4893374395111887 4.298489130419343 5.069335298394594 -0.3191083550979408 0.3813493633160336 -0.15415768912374742
Ni 5.02559431881924 4.605944561629989 2.559188149823114 -0.14337319691373374 0.30405120365450217 0.28063565294403925
Ni 7.348006031779087 6.046819108760509 2.650846020430857 -0.010237875677924304 0.16245643879742988 -0.5648345977593047
Ni 5.149652747834695 4.40681001636537 11.559267820784129 0.025861698258110296 0.4103961441703448 -0.30867764668292
Ni 5.596326295274547 7.87236507581639 12.325954329498286 -0.63549056951397 -0.49091306787949 0.12386495167747702
Ni 1.9860544599676526 6.602671296932158 0.37031441061113324 -1.2870024541568608 -1.4132906705638497 0.19020995476161434
Ni 2.8335884202895403 1.6061232638583853 0.3167336292933447 -0.16560886838348252 -0.0817849917882914 0.6769346955913697
Ni 0.5655168273578313 0.025570121613665838 4.606578397271684 0.27160259620749355 -0.030879977408308106 0.2606975192592156
Ni 8.504015700056799 2.434244879028655 1.3726135183792372 0.7995945712171519 -0.04126877684179989 -0.12559838942881593
Ni 6.8492080803577045 0.4891278948365535 4.783895272385433 0.018952372732786712 0.4834008186628449 0.3420981311248947
Ni 0.9885939920910616 7.190955645003627 2.589978837932903 -0.822368631688874 0.7329024692062409 -0.17322113351310167
Ni 7.5985246032101506 3.7068911401754816 3.614538939641153 0.2123324976922666 0.20116439689058904 0.0740184604689951
Ni 7.575157557046249 3.7612998805864812 12.577908511570795 -0.23714004365424968 0.851106880163831 -0.025095252405730975
Ni 7.867381069061184 8.486716140377496 7.084323181635902 -0.3954834887245705 1.7417760960013164 -0.05957554557078773
Ni 7.020289529628799 0.5835152314625915 0.17258206869630355 -0.679246888664314 0.5577247261874008 1.7138402888229969
Ni 1.782107458904982 6.638859519893872 9.143249779503181 1.2481443436390824 -0.11854405368519584 0.415167083196427
Ni 9.078657232535665 4.926492039570794 1.2854177784570424 0.24672357357762673 -0.34146383997500546 0.251686831120173
Ni 6.082844809762814 2.0797212825736446 6.993523968713703 1.1700833376695976 -0.04127803281318052 -0.36313875384527783
Ni 3.3706873801449517 4.376039192050619 0.7691559395973996 0.9020486613190207 0.2159145586165701 -1.8522525421870295
Ni 6.006315024876715 5.595026119599277 4.690822557831058 0.38856567855881463 -0.10550573244399894 0.9799862543367639
Ni 5.338331713710675 2.96208008719776 9.29495590251341 0.5504801288098454 -0.5118518749146862 0.25486625728941914
P 0.2790827086969511 5.709838854923914 12.432796265613693 -0.06145296509915868 -1.1647125602759876 -0.08068738784873847
P 4.069640153576131 6.027280357640462 12.66587984239928 0.2547184188576451 0.6577632648692413 -0.5508544814301287
P 2.458930158863317 8.45666763588234 1.517514485789108 -0.13089691882359392 1.071308239081213 -0.031621483560022964
P 6.221873317039377 7.612483433723825 5.832136629379106 0.4199375080018768 0.3220178154352518 -0.6801339192549577
P 4.7567559109636965 0.8824066583121634 12.597928508270648 0.006813166267091492 0.9752919341848881 -0.5422806237181886
P 4.0170913867005895 6.186416442895004 8.160989629330192 -0.7110977146263238 -0.3320255773802411 0.6065736293693037
P 4.837998832672652 0.960044301221566 3.840935640696839 0.3159065603311914 -0.49342683544027927 -0.7304812613592581
P 0.1718091864893368 5.380659655138946 3.6374409924211895 0.3337358752031285 0.6357325103214471 -0.3085092394258558
Ni 1.61647952427183 1.2060574027779054 2.593678921208779 -0.4834612395871351 -0.28912954934766333 -0.39766429842597323
Ni 1.7087739392205914 6.475452718705975 4.850867863158514 1.2223299536791399 0.421391466839584 -0.15046172832939894
Ni 5.895014569674858 5.810458005793509 9.25447890562285 0.5391935001524327 -1.2940755589535584 -0.034830734525940016
Ni 8.465868184584433 2.300751147369739 10.045387506587357 0.5834298442629887 0.8461153404865105 0.7449380602145363
Ni 2.381650967164388 5.281783100834126 7.145362817990785 -0.4788800479743559 -0.5509526975708899 -0.5152331326820933
Ni 0.4571327384275894 0.15634251335225713 9.236242135977625 0.24190301226053176 -0.6295886022072383 0.16309741481553847
Ni 1.3863574587465823 1.2289097960703448 11.420089432144998 -0.1676014733334791 0.23821964987167363 -0.3677675108665408
Ni 4.018003315472828 6.923471586809824 1.5390414222125905 1.1121304153038976 -0.5239810540780524 0.8344667005039886
Ni 5.471870590358316 7.7888649046711995 7.923677772900651 0.25205347043097237 1.0489967200682064 0.48458969676462355
Ni 5.329934745807882 2.88945985833522 4.665991911132702 0.35189789082413586 0.05072092339363522 0.03581932369145444
Ni 0.8289062350743047 7.344042301769059 6.967648666976258 0.5568299822872733 1.271152631608798 -0.8095172296475026
Ni 5.1629344035175 4.448271174010127 7.179047299877827 0.1877632929933347 0.5207316939028193 -0.5389235343204977
Ni 8.20564344057756 7.160536951600928 9.270732907363291 -0.21986403018262132 -0.15058848371525033 -0.6138516510879557
Ni 4.440479148956245 0.16591325096189194 10.470840200627281 0.4654048963060565 1.2488598816488685 -0.8392558943625159
Ni 8.263745041066239 7.115987876727402 4.785572860166442 -0.8009143184698401 -0.13083084147234886 0.15434717942673418
Ni 7.216561882608272 6.126563216843806 7.053333855575724 0.36667170669920074 -1.2875135894653247 -0.11973138912507768
Ni 2.322818017858369 5.127251804429502 2.64877115674907 -0.15350077226603887 0.33627355402331766 1.0640052776618965
Ni 2.3910320958213798 5.223356456426629 11.491488940512424 -0.30354186811825146 0.19353156293567958 -0.2712881502908683
Ni 1.1158938312969495 3.3259486963187816 3.8226465028646914 -0.30198095138903475 0.08204518742821354 -0.6151207476083664
Ni 3.8443486018444255 2.6040532396177136 2.5598888000481215 -0.6135937694408787 -0.5330606477818174 -0.13427714814973649
Ni 1.0432194284479395 3.37391976133764 8.048795303351586 -0.7132024196741523 0.8709102880430032 0.6281891507565505
Ni 3.411778348882167 2.8962045196506887 7.371032684728003 0.12537933143947438 -0.4369978059182732 -1.0117026116034382
Ni 4.042833059271409 6.783386686797102 5.964813236742105 0.06663348085883364 0.3578021721237128 -0.21949944775435098
Ni 0.7224940792515575 7.392753744603002 11.18171937717975 0.006092486050983056 -0.11995404665884501 0.9012181949979254
P 0.2290665756888643 5.655728071438498 7.995738203903005 -0.629252044803426 -2.0568298214139094 0.3476015774416272
P 8.389789849585581 1.5505588117360338 7.960190136881407 -0.9760218703723772 0.6855334930039741 -0.8902781510466539
P 1.7862337108744188 3.3297769913626354 10.451585862936199 -0.1559471769240024 -0.307449944923406 -0.47170127083772956
P 4.0619474474974435 6.062060056953965 3.814493317901012 -1.2921390040524778 1.1144942875503838 -0.2310241605644989
P 7.003459477832234 4.093910099514526 10.353042478648167 -0.5987739308192268 -0.17860785174631175 0.09652615465320795
P 6.310050509016446 7.793207852586514 10.116192906903164 -0.6199901598855259 -0.04113945035278721 0.44950725123919355
P 2.2967242143754967 8.714788623414641 5.852487087396423 0.8141475293306624 -0.9087733816373639 -0.6049782598577259
P 6.715858812662707 3.908617007792898 1.5517145234473861 1.6375957672369603 0.06387571560803838 -0.5139856334282373
Ni 5.2343447466822175 2.9139645582149827 0.3114886845033099 0.0849775305836601 -0.8468280502828189 -0.13369916415907943
Ni 1.2804202282052188 1.199186335494007 7.098066219103474 0.5290281295836566 -0.43274031619349984 -0.9766607895079567
Ni 6.7287161054514995 0.76623867042601 9.156265982652283 -0.6252778906470263 -0.6847439072231433 -0.10832803238414246
Ni 2.6318444946766344 1.6390610476319212 9.28187378768077 -0.19008911291303393 -0.4653457609333469 0.08432215638784832
Ni 6.409667441136353 1.846520328817373 2.4607377642118533 -0.24951604872109934 -0.36298243077307163 0.264403507355893
Ni 4.056755773794104 6.90842024756901 10.442903578704668 -0.4931954361557636 -1.079370447264057 -0.013513461105402535
Ni 8.282751081319335 7.323095027000802 0.29492769683954373 -0.09449266916294694 -0.6222334473937478 0.2020156891472908
Ni 7.520008438820165 3.81071558524453 8.207770672446268 0.49556753593236585 0.03011044623213524 -0.7605081467386515
Ni 2.9254855593375244 8.31949007314349 12.415087692336545 1.2972351876284627 0.7463218279359404 -0.5809764976264897
Ni 0.0800023374188021 4.890493425561725 10.162695856888694 0.6852136477707101 -0.5840116849083877 0.09590137658501549
Ni 8.577033204820115 2.3387541988781857 5.492713128752731 -0.30822590385748205 -0.16443875933478133 1.5648222349186598
Ni 3.679036682132347 2.4620903080740457 11.395641614951028 0.2405012468169987 0.6316467702878477 -0.07467152067196173
Ni 1.0995603743763558 3.4507565321470666 12.642264498797394 -0.40400181060822676 0.03480219528084974 0.10599527048590777
Ni 3.081244799435458 8.469723566621521 7.8942477547510235 -0.4339384502666591 -0.2781625088131984 0.9042320421235847
Ni 5.7858178709475725 7.735675078955767 3.51250765352425 -1.0959622901844674 0.4922762667756038 -0.3517577657018458
Ni 3.210756743088856 8.38761386112905 3.7666161544587013 0.04205219197504371 -0.5868473545849701 -0.15104125498195278
Ni 3.5401797258129375 4.312366699953313 9.420074335864122 -0.9251173702130261 1.1404482884119842 0.016941770060661145
Ni 7.298915371039857 6.080190284425802 11.341593131550052 -0.05229829518308413 0.1366757302889001 0.8668605434536618
Ni 0.7404021933788685 0.07114037613214495 0.20737260280710054 -0.15322643555872967 0.3084670733340107 0.6181741897227095
Ni 4.723511141266832 0.27408877004422566 1.4618136958008079 -0.30931193783280925 -0.15679666940849127 0.7423253051820377
Ni 6.131068686718531 5.754541422759106 0.4500079563070584 -0.25879850246428976 -0.29459674310982165 -0.6068973312573096
Ni 7.818895351170864 8.69447337848853 11.422837859058557 0.4543566089116949 0.674316284131916 -1.0536380754949597
Ni 0.12088293050856015 4.901734527754174 5.8154591676444305 -0.3876357105453776 -1.2257680328264116 0.5107038773531721
Ni 8.050489143328537 8.684767205912722 2.5273401660773924 -0.044552589799394235 -0.1701689769503392 -0.2836299596856728
P 8.474012340550367 1.5370333731141161 3.462661265673768 0.019428283927940736 0.4671666161921697 -0.07953296252932109
P 1.7877415534978236 3.2012943534521607 1.5605421745426125 -0.40339837269627304 -0.6628370798477229 0.41345010050532016
P 4.534741885413403 1.1594587454162777 8.260035025892844 0.6053621255597058 -0.5516391821149532 -0.10218489560088206
P 8.448875610828459 1.7950008676847542 12.332257472824029 0.7533663934875477 -0.9950408346770412 -0.06191267834439659
P 6.405496044178191 7.786607655234965 1.2736963335845632 -0.2485745107434364 -0.7394089028661911 1.1564099539475632
P 1.770776066735084 3.0917364948150765 5.8650148217675255 -0.35433863905514457 0.9292787006795673 1.4447152076217182
P 6.916085866654464 3.9244267828442854 5.804173823363032 0.1622422659040948 0.15603562287275063 1.1663539525341526
P 2.3013109452299254 8.502435625451433 10.261410792133884 0.6897724707859862 0.5954860040965745 -0.5084639322790598
