# total energy = -340870.3304183997 ev
CRYSTAL
PRIMVEC
9.25881625556324 0.00000000000000 0.00000000000000

0.00000000000000 9.25881625556324 0.00000000000000

0.00000000000000 0.00000000000000 13.55121348550453

PRIMCOORD
 96 1
Ni 1.5890535945411026 2.071336073221789 8.904895203370646 -0.2456552802141124 -1.7376132228728784 0.16015350169586615
Ni 1.9156583371059668 3.953264542796535 7.367049343760898 -0.8367079311296816 0.24043902612049556 -1.4426287574063348
Ni 8.636873768747119 4.305090300775905 2.906626660714603 -0.18945225065998342 0.638559695357597 -0.9902205304702624
Ni 5.085738132515494 5.435304739334387 6.909845294724753 0.3903914189136438 1.0810023264405253 -1.2874436554593376
Ni 4.188716239562645 3.345552880628217 7.651787571090331 -1.8975497234619318 -0.5343402858251894 1.5936923809857908
Ni 6.9218539793769605 5.935132674773695 0.47441711429205846 -0.4407793844478925 -0.07747093779396981 -1.3597541320982904
Ni 2.384580343964652 8.538248858249572 6.441772321314493 -1.2728719282927499 0.05258908695062556 0.44463603918982136
Ni 4.2168908173549875 1.4811328325471675 4.296642556846319 -0.4609247490475159 1.2211408184670454 0.13065523512643304
Ni 7.365351276864047 8.254966116831726 0.9273796996125704 -0.29593191698147747 0.8765435750693806 0.31859104914189
Ni 0.5625767848031816 3.30386968995417 11.452659405769968 -1.586426443451997 2.0661073900610933 -3.2050893783401966
Ni 6.955324600053699 0.9098907216329596 10.448866695799133 -0.2468847817458393 1.2504907323840722 0.32034068484314504
Ni 4.6064555102938005 8.281353743091396 0.9768199265253376 0.8267703603009954 -0.08211409299293601 -0.053599787603327044
Ni 6.630877161670766 7.899131291424132 6.755713780919584 -0.5992452140286906 0.17403694454617769 0.9492931961282812
Ni 2.216718005688224 4.5067843535621 3.4253536918455754 -1.741238992550924 -0.37533606724241814 -0.631551382360564
Ni 1.2030998399325592 2.0170145983917944 12.943401037802149 1.0611107297229208 -1.5618785789093037 2.6792306476234566
Ni 7.925768905722052 2.102214225353719 12.384142612736323 -0.5244142849607291 0.5089169606560784 0.36023880658966345
Ni 2.714175684172279 2.4225877845948083 1.5575902852233445 -0.4268113523035746 0.5935767028890035 0.6224231948070507
Ni 4.617732748463723 8.424930206392695 11.790883962705319 -0.356498879931257 0.732382592147029 2.381730871934227
Ni 0.32777783458139065 3.7755045299686736 4.95642394973714 1.9038628101641533 0.47019151906142254 1.3968919174908523
Ni 1.8137465468462515 8.438114760706299 9.153194433539534 -2.690785956561224 -0.11724924613317227 0.516356447653259
Ni 5.258498384578365 8.488390132843143 9.7433634165941 0.9419928058121261 0.610526957590097 -2.268318483048642
Ni 4.723135112442701 4.942226480927814 1.2993211617364173 0.8089384743258973 0.7053636403560238 0.6268755741514493
Ni 6.105152317232054 4.016937422020308 3.644314511021825 0.08426456367703551 -0.7256141630749439 -2.6373270654111356
Ni 5.4115003228032945 1.606395357342633 0.41225527387726085 1.348050727618433 -0.8753233295090344 0.7295096414746082
P 5.280904719858507 2.3755900334039013 9.258527356396774 0.24538737126470642 -1.5178880322609665 0.17490057809805362
P 7.392035185243124 4.936726744086324 11.86929132207984 0.45553083172545417 0.22381710129309842 -0.5931642979419333
P 3.3017494210371643 5.518069297627435 8.24386757381507 0.2863141913860553 -0.5361076621382573 0.09897435908338438
P 9.284648328748979 1.305696782593403 10.588389649354296 -0.2376396089984875 -0.07604294709819162 0.21246799482886636
P 0.19124825631385747 2.802671449712604 1.461443959830961 0.1957239426013081 -0.5232991975196793 -0.48748244493138626
P 9.056798120108901 4.50805281138581 7.46971387578023 -0.7776532910593703 0.054247448489654966 0.14686758322023738
P 2.8518542815341363 3.584596998092134 5.350656011938234 0.5999178146156829 -0.4980833603756842 0.15717822111762605
P 6.215350748018929 6.60375808892881 5.083697489418079 -0.11286757212570885 -1.3292161114104333 0.08942476772173633
Ni 4.23437146239999 5.342661024122365 3.8692102314024432 1.2063052961161094 1.5913593619772401 0.4773214452379844
Ni 8.460419249007893 8.40211648319837 10.411532371109004 2.582606276829488 -0.6961673185687365 -1.3467433216609193
Ni 5.330457904329298 6.128419722421721 9.196571987583939 1.5368509465167144 -1.3255376341175817 0.7444186973759567
Ni 0.2196144916021913 0.5150096164140394 1.0477619023724318 0.6971929316197735 0.19061104685477495 1.7948284957416059
Ni 0.44986273364621804 7.141260147613943 0.6098319310853235 0.686547021870153 0.5752089990150933 0.1566514020798786
Ni 2.7062779139268405 6.949028605016304 2.0835262306721334 0.4238011047223411 -0.6353162487196349 -0.8320508919736446
Ni 3.586809855171454 0.907647310460076 13.056783575491023 -2.5314827186807953 -0.5126558588732203 -0.13299571033415158
Ni 6.912474798534488 9.002763668582082 4.735945610580553 -0.9859067335862569 0.5302802568232028 0.23053899339796427
Ni 3.4241417128008766 7.05372729896169 10.047560897997197 -1.1336958001794992 -1.0380949855540378 1.4905320088455167
Ni 4.4198348103324285 7.999533894638118 5.2980233451888585 2.061320767305727 -0.13713955729919608 1.2420402876238739
Ni 8.64743807806722 4.224871916946508 -0.037181554222309905 0.6116356172732434 -0.034397246532947214 0.6690542644020284
Ni 1.1877394638045617 6.250191673497925 8.106091758882783 0.8086793071272396 -0.9614442296685183 0.025309939519698347
Ni 4.0812121242991255 7.512196102295053 7.7200991172460665 -0.04899211362798659 0.7991955360065204 -0.522534551439513
Ni 2.6927878186775986 5.896393787661253 5.674936791629001 -0.28758457345804667 -2.2489603902370043 3.046796841112469
Ni 6.613415034258226 3.7233773945855355 10.101087966394534 0.721149699545687 1.4761495148715997 1.2263475594789655
Ni 3.5237017637378005 0.6706725384238913 10.211570642839716 -0.7840771923078431 1.5815948263913084 1.2811213127857355
Ni 8.988440279872009 6.556889961165143 12.090392779568806 -0.3732411323866024 -0.45530894552263523 0.2925388321395284
Ni 1.6979002381581838 1.6444861273188727 6.265416870908943 1.5454140055953771 1.6354481247663384 -0.747214772063855
Ni 2.905499862779234 6.959898455272041 13.151764215919865 -0.0972252376027616 0.4656105845589594 -0.22120306070901904
Ni 1.9713038226570605 4.275175065532048 9.718184991734258 0.6242265665643765 1.0750278540246452 1.049791705165676
Ni 7.370888048970461 4.393474960521453 5.41094571971103 0.3020030628762218 2.1709688040528743 1.2948399479234087
Ni 0.447546177825106 7.720621314481521 2.988544037322474 0.2340722033622033 1.0079698840338835 0.05764747531013943
Ni 9.1794218822784 7.8117558426478135 7.1248896346350925 -0.9523288976308116 0.7308622988477607 0.585833568608475
Ni 7.33315837282725 5.885533196221747 7.78549691393376 1.0426044433886172 -0.6729482001397958 -0.06858006306224318
P 2.602319925279972 4.882257128196627 1.2419970528025592 -0.6248135494160981 0.20133151859607262 -0.7376818928727553
P 2.382302675171712 8.759682707241247 0.727615184129013 -1.4807656734873722 0.17728579050077856 -0.9461783046483836
P 4.626537882699845 8.027014061213102 3.2188469063822667 -0.3500240708401907 -0.14146106749268542 -1.1211048508883659
P 0.24954546683364237 0.6756963721110831 7.4933738547781115 -0.7653011972519207 0.1517961308701063 1.1728891825495091
P 7.091308834045199 7.691428266903717 9.041044244291067 -0.0010541522961272168 -0.41126183460474974 -1.2599711610706816
P 4.868896656374625 2.887019265581234 2.1086092897247903 0.344376128525794 -0.5941330896131058 0.29874701783276936
P 1.4715221812989085 6.611766964969026 10.944122627783344 -0.23974302849473547 0.05872116799029241 -0.5842284289048841
P 6.577750074134631 0.10964660533947976 12.526240443085456 -1.3932671762540716 0.6537142916108484 0.7424944837700502
Ni 7.1816008099344275 2.231282123620316 1.8677634066222308 1.3547751908264603 0.8940607580175377 -0.9059765356185171
Ni 7.9090567424242595 2.27066912786896 4.109486697306767 -0.5130695493718712 -0.7376901204028715 0.47136445632360113
Ni 6.782536571542133 0.6914613585083955 8.110306372031344 0.18540841960791293 0.5749421185069518 -0.6406222343135806
Ni 8.825957313826061 5.613435104811507 9.808029766799507 -0.17950748074244569 -0.3295730020746904 0.3758772844578688
Ni 4.945309666732891 2.1289351689977214 11.60460861658938 0.8570587268718917 0.11962494545420044 -1.188112684367483
Ni 6.158668275049911 6.517438145202879 2.7829585040741955 -0.3154890131777986 -0.19671253176682252 0.36849590439213314
Ni 1.7254915105279442 9.01857772670542 11.879589903374097 -0.013511147112557376 -0.7090171779482112 -0.42191622899480236
Ni 5.1857518654477595 3.459584461334918 5.673784994889807 -2.0182684162009434 0.6755815239975849 -1.4538269401149992
Ni 8.417347235899127 3.0043655024987985 8.997694466695355 1.8484354824337843 -0.8177686710230173 -0.08912009199712394
Ni 8.674686774236415 9.16879276124468 12.53652606203699 0.6022901715026013 -0.8143863848143459 0.2388446850501822
Ni 8.272131962124858 2.4271616398131513 6.503552698500553 0.44477770697400826 -1.1234358130143878 0.7797795933737539
Ni 6.216091453317446 3.673361269303171 13.2353481794494 -0.4178328029540481 0.6012941261379193 -0.15800020279828916
Ni 3.1024348840224567 0.3921932708669264 2.5686863494375585 -0.47504139095455605 -1.142363503156826 0.1069622623848674
Ni 3.620345287561813 3.4686673600579834 13.300367290553226 0.6348588494672421 0.4730199896491531 -0.5404394567443918
Ni 8.401070236964214 7.1431119108602354 4.907816090403581 -1.673787900886801 0.16501828598733514 0.791506909113011
Ni 4.6299358682567915 0.850374125015491 6.553638264904653 -0.44813479637169923 -0.7320378072131005 1.3308207368933918
Ni 9.19847652608275 0.2675020150329421 5.393884499041312 0.0446502917195231 -0.09946235446339645 -1.6158558044567075
Ni 2.543387559966709 7.441699475508692 4.277982338613428 -1.2240749613947048 1.738748364918586 -2.4302897546795372
Ni 6.502244427767048 3.5259423972658146 7.6360818411169005 0.3720355421142754 -0.2206872974148651 0.7552569256420412
Ni 6.79770251252927 7.328593776425138 11.61981344460469 -1.1364558794231396 -0.9731620323260789 0.4231138488473294
Ni 1.000665081847848 1.9222043201816112 3.3365662735939585 -0.22376233679576302 -0.11005941325295238 0.2564708827723777
Ni 4.573716336099348 4.519589296410214 10.990712065178444 -1.0742979178371563 -0.1713588834933823 0.3682799317265851
Ni 1.8025526380224124 5.037916346679985 12.63734716374464 -0.7433542606671842 -0.8137559503191986 -0.08229844108960019
Ni 5.877172485164736 0.48313336389235795 2.7594874049274365 -0.3511198750075307 0.06380629582268366 -1.0178961420086596
P 4.663563888809467 6.332317373471003 12.100813577237318 0.9747149786354955 -0.31300044242799 -0.17547959052997522
P 8.182034421376489 6.483624948325575 2.0924295083603086 1.0328571341938664 -1.0215265396723956 -0.05435620615337736
P 8.213986596191269 0.305531676822054 3.1017913962943697 0.3424470298238812 0.029221615869278704 -1.0274254216553338
P 3.2340674743851685 0.2823438974519776 8.217239218333383 1.157257389549523 1.1501503461910967 -1.6789470764902377
P 2.7679971829257743 2.8092637268694056 11.460234043328928 -0.12816409327346315 -0.0884469771894993 -1.0362232224526218
P 6.214360054682162 1.7524068893128077 5.453726080108505 1.9659840049749304 -1.1830915770038075 0.0395250546778158
P 0.7487586168751824 5.974825219957978 4.466046488025285 1.4119081883940265 -1.1473869245133463 -0.4322482070484297
P 2.014588788539151 0.2898157621507684 4.490926779002473 0.11921562583092371 0.11878985114741475 0.12962576542065418
