# total energy = -340861.08124371717 ev
CRYSTAL
PRIMVEC
9.38677574319772 0.00000000000000 0.00000000000000
0.00000000000000 9.38677574319772 0.00000000000000
0.00000000000000 0.00000000000000 13.73849513000272
PRIMCOORD
 96 1
Ni 4.978135592143341 0.16236399474080077 5.113522932734857 0.10715638067354448 3.3842808705041194 0.8246515141857798
Ni 5.083764977000815 7.959647711835417 8.862826355583174 -1.7674837851800658 1.8716584575174668 0.15137189884849414
Ni 7.846330557832089 6.818431705186768 12.755999948054882 -1.7517373209790863 0.7139662944233705 0.012073129114450175
Ni 2.9187052047288335 7.417195341664917 10.017671021600396 1.3754401753749794 1.7292990465802283 0.7957744261401134
Ni 3.700032238176061 4.257522222719765 4.748875803025459 0.12496641227177188 -0.3349707760514941 -0.6249359339265754
Ni 8.251848646806389 6.641462826423951 3.3738305249387834 0.10055173087283327 0.017911590173098187 -1.755067928014216
Ni 3.3275180519084975 1.8323079670811324 11.789963700756108 0.8641243754694214 -0.30799090502854054 -0.4072591412032599
Ni 9.073153957167149 8.924232763639747 13.571805546642072 -1.4127196285517285 0.785498241025086 0.16046254829585269
Ni 9.479516855937694 5.224660477463866 13.18874907279489 0.0771102120204414 -0.9663187841520001 -0.5312917288068527
Ni 2.335645643685373 1.2830407978875704 1.9817088248372914 1.1080914693478336 0.04841721496112306 -0.11930407177967194
Ni 1.6196881149166724 3.320778347089545 0.8893725743219699 -0.879867240125975 1.63149711053839 0.022799257282702667
Ni 1.965722207459635 9.073707776922465 5.3500171097412705 1.3140607438262337 -0.007531018269722515 -0.4995972259170492
Ni 1.540022551130536 7.174397006223396 13.1811373365307 0.12390917465185111 -1.4900607256360532 0.7920208726349521
Ni 6.916561056408669 6.414509368049826 5.873660259137095 -1.155693901717145 0.3844537132729702 -1.7623670327787906
Ni 8.153860097217196 2.41188503440895 12.517307388223124 3.055214889972835 0.28710737671131203 -0.48241840014491755
Ni 0.9145403968297334 9.254797450135868 3.2280379436901523 0.9791601588910428 0.09597285325289923 -0.3561075580301093
Ni 4.304052468941973 7.543531953305969 4.804076613789821 -1.9056373855660729 2.179089890498112 0.2833977890702087
Ni 2.8688144928726635 5.182551402508687 9.860859304576044 -0.3377380543839861 -0.6234513789612489 -0.2978563876976999
Ni 3.4080753593684503 4.422466642049326 7.504391915445825 -1.0046282212551603 -1.3266054132604637 -0.12027954831906382
Ni 6.778547296028374 5.562255858819867 10.629088970148782 0.24916663580148057 -1.112651320804374 -0.4309863096168706
Ni 5.3258029836257155 7.216599948933713 11.234544438890762 -2.3195441139928374 -1.0632133778882205 -0.5121804618986986
Ni 7.189246885086323 1.2294423097034257 0.4255278783371952 -0.9386354593041191 -0.3594952435554196 0.9073142805933342
Ni 6.807355310080413 8.725017226909081 6.980611719127497 -0.9310260223879772 0.6793430479225461 -0.33288561138769124
Ni 7.202754455050768 8.091832284621603 1.3542197779316252 0.41188969799673575 1.1694529031744505 -0.3966134885639556
P 0.6858616491161607 1.684025074288674 5.708976792166819 0.03834980342279202 -0.24590082056601523 -0.10102301408229698
P 4.299809646409708 2.6632628826701414 6.066232774836602 1.265668211455459 1.744024782826177 -2.7455836211273943
P 7.553115851105622 8.375294131589172 4.808184266754686 -1.029691334871375 -0.1666743335335194 -1.302892643024556
P 1.5032920985447988 5.808621168956657 7.072261379212179 1.4640401332025754 -0.8780499844115782 0.11051218451965485
P 7.024171050899568 2.511591363917179 2.845654501647315 0.5238360438597558 -0.31379285642229826 -0.13758255837388564
P 3.306069269859325 3.395487693404363 2.025576042846217 2.065966236497539 -0.9437529830363425 2.7002273044797818
P 7.596004028428451 1.1468105248549094 7.956718099197541 -0.354121637948332 -0.8974283889381899 1.2561386746984688
P 0.8610611206946146 4.857186989647245 3.3660826804296424 0.6043218572206495 0.010945443267910181 -0.06975274321410568
Ni 0.7485662482263018 1.3254220893326516 11.166620792594912 0.9116522458470556 -0.6528012928782758 0.7300310611957169
Ni 1.875534068322461 7.9596007779578475 7.270850818016072 -0.09495778172482355 -0.5712654409863129 1.738444460524922
Ni 1.7757338710590935 0.04554745082590652 13.050511907157366 1.33090455485645 2.2551395224645225 -0.216678176255472
Ni 9.017199388329024 3.123637287747442 9.91147185946923 0.1515783584323454 -0.2669602123394757 1.1953459688911283
Ni 8.002526502382732 1.2272082571311267 4.589976467126825 -0.11325992246812108 0.5770630215046965 0.6896840248372381
Ni 8.523661505361254 8.342083719821131 8.85211041265655 -0.49790209760281345 0.7960343646697193 0.8533290846261303
Ni 8.339661931738556 5.004230828071874 8.901788983386107 -0.10550753221621183 0.14939934850315562 -0.7546336902357456
Ni 5.292442383449454 1.6248602282248097 7.441813099127569 1.5230011851178158 -1.8105867870171268 1.3562178368102578
Ni 1.5315556796170338 3.9105306790743883 5.4713552634211915 0.05379750543642993 0.1803549163444055 -1.5487790654128681
Ni 5.602431258019191 3.7638435381192865 1.1476975751409693 3.068211302232503 -0.8646146848422787 1.8576094356235686
Ni 0.1264539463349751 7.503337780555618 11.479116874904403 0.33742643668083827 1.2559959784730177 -1.7710398779624403
Ni 6.690959293708539 6.753512765732907 8.149070964350024 0.7675226303832717 -2.6565663732567217 1.1557170416455969
Ni 7.782838408256335 0.6779204370314345 11.157635771073046 -0.9617183092655115 -1.107799906249344 -1.3860822284698582
Ni 7.311087231256236 5.78886200649998 0.9620947402605033 0.1064434137669199 -0.6290152462022714 2.7230445594846135
Ni 2.661939347322687 6.613152311474147 3.588838372793969 -1.511436877318984 -0.5609051807979114 -0.5422122323740984
Ni 0.6122956120589311 2.396697231627524 3.5430478044822538 -0.053621899090514104 0.834365399039434 -0.3300278302239219
Ni 4.134668104794355 6.456111557127257 7.020851887077868 0.8792211219015438 0.4567438781969489 -0.07270205565041674
Ni 4.3218216349897105 3.051969256699115 9.311141570157815 -0.8318845415991093 0.009801816581770215 0.4611463781400187
Ni 0.8052360893585819 6.623552858743505 9.436724423725106 -0.15944773387809313 -1.7248129857844166 -0.8458875407464206
Ni 8.290578482576578 2.6555094060956925 6.656987614446326 1.1686797724538518 -1.1815864532131908 -0.140216653562623
Ni 1.6349791722287514 3.3551245586947616 12.294373347124033 -0.09712522168978757 0.3101696578474142 -0.2700771607019026
Ni 8.956119640060333 6.624040971070226 7.227739235436012 0.17625015014741258 0.5755998066956087 -0.9326149641416518
Ni 6.875822450678513 4.704999198241021 3.250802751666367 -0.4708852026943374 -1.1807140779105665 0.42236334383455
Ni 9.042374720257198 8.979323749130597 6.119112236016385 1.0233677066461921 1.2816789850614183 2.2785257625989472
P 5.27747986328036 6.993485681744758 0.6982409286638401 0.26101890715437626 -0.10661387790651317 0.4853880242962028
P 5.538526090320827 1.2800088693965934 10.385010278527169 0.5272124165311566 0.9934143548172116 0.6649109316576162
P 9.202391082441983 7.122197147590816 1.0220762357940736 0.039812761121563685 -0.673112493631802 0.0517035990218787
P 1.328172414558213 8.780380428889831 9.530998626243463 -0.37844967317073536 0.484478625108056 0.378035211341136
P 0.633802592116289 4.703469153832262 10.954883297328756 -0.8366629368243592 2.1037797078008866 -0.5671349637577071
P 4.044705248269514 8.576743720892136 6.835382344409698 0.08675184887526351 0.7401252122069253 1.106718757370023
P 3.9328993651239186 0.7420189723053839 13.548065452689965 0.18611727274947948 -0.1664989842979197 -0.3196881388608107
P 5.1815657910797315 5.165073226501877 9.073368914326416 -0.2270366366716606 0.07176308877591511 -0.11579143064072317
Ni 6.693690845383073 2.9015555658650105 9.228833629064528 0.7393255991237655 -0.34138285022542497 -0.0667779768564979
Ni 2.691038351415655 1.7542193815813245 4.855431662626153 1.2219471164184246 0.8889092957235851 -2.5582918684538396
Ni 0.9024098668331711 3.705082323402518 7.548588609275286 -0.30366348129778026 -0.22976483423610108 2.7072371601387117
Ni 8.740383378425271 3.646358655787805 1.2546993065785708 -0.45449699114430114 -0.9465025207570215 1.6696350550606922
Ni 1.5300725690858439 5.6733201866998675 1.419571447736675 0.02733134082510132 0.47521185509414937 0.673696134049414
Ni 4.305610673677274 4.213723528172091 11.48616446596021 0.27242123545404695 -0.04617572722511402 -0.15357636269898067
Ni 3.562666165306223 8.01754534320491 12.45933090793931 0.8607737138296336 0.8319999841310509 0.7412932643730976
Ni 3.816559669405128 3.4911107755640627 0.03172260784909241 -1.2212608889846774 -0.5816814941133144 -3.019830339825954
Ni 4.075935050404129 5.353578452371228 2.035715637756289 0.49946969920024953 1.2274389927709313 0.11588733278863912
Ni 6.407563154169569 3.379633429561452 5.49671645350454 -1.1185193495493768 0.308761721756294 -0.6397678567330852
Ni 4.9441273044566225 2.378871744926702 3.532084989359616 -0.8124547150092718 0.5023807021994574 -0.42223607422806636
Ni 2.787562564024685 1.9575463259870625 7.1428771527254025 -2.3597096304681293 -1.0162616917290304 2.6682414956018046
Ni 6.250222023006235 0.32279149769309207 3.1853384405551513 0.8778851766989397 -0.44764551544010656 0.46875812904900566
Ni 2.8918120928816227 8.131078393045055 1.3065255715456987 -0.7105534120870795 -0.5948427140856207 0.4243760033892046
Ni 8.44623938092293 0.7014493285344777 2.351934515234576 0.46977011525328777 0.8216083564840818 -1.691242606028139
Ni 6.123688289079393 8.891867161667955 12.65625888747725 -0.16084872799067781 0.6044972064562493 1.035233861956159
Ni 5.812845217937894 5.279920424913964 12.97306819313536 -1.7946073808697354 0.8178802569002173 -0.5913395860283687
Ni 8.934764725766298 5.136293372776381 5.038194997913676 -0.049284190947108675 0.38782905750310626 -0.526081645360823
Ni 5.85061760260567 2.524545114126307 12.490517530906564 -1.1093744498253153 -0.4629142686737189 -0.5898303484726938
Ni 6.023944412469108 6.913228751101248 3.0720785458824587 -1.4525213339296985 0.9117913425280814 -0.8469370650568575
Ni 3.709325145934783 0.693492158931378 9.531437927337512 -1.0053026216143655 -1.1284000989981986 -0.4628641321620738
Ni 0.3060642637273922 1.212414698921282 8.913287783390587 0.13620804662386218 -0.45999915190945295 -1.926408299564837
Ni 4.993708252720835 9.094274202073334 1.4465668754369871 -0.10102044297913569 0.5993902242469871 -1.217237112537265
Ni 0.43121344826594066 7.5641640858854355 4.544474072823385 0.8739503604209078 -1.750428629469992 0.8739331340297272
P 7.828833608274254 4.657164190222386 6.724663449868608 -1.0353022533002494 0.8990828938224774 2.2029592409165417
P 7.449917641106236 4.102349436700133 13.413908718368317 -0.5461156811935627 0.12080122515048872 -0.7742002995137633
P 0.6289468131429686 1.5909833553952861 0.5499749320673069 -2.087117159543541 -2.1544762057144893 -0.22713793813621527
P 2.0618521754970827 3.1243225223599533 9.589469789596855 -0.35480915093365994 -1.7960497697432165 -0.6088873651041449
P 3.5729916183714696 9.217625819100979 3.230538580687045 0.09041772776262492 -0.23694026893861775 0.9049318964040867
P 3.113649758600694 5.927025955288496 12.029467277992266 0.06436859608405687 0.4556871547976603 -0.2623214280158837
P 5.060664122461205 5.800773824627069 4.60995152542032 1.9869888893613714 -3.5568805683831384 -0.15013905488265755
P 7.237738967390928 7.761521041064357 10.8907791299895 2.232530526815755 1.279992598497931 -1.1164835500662709
