# total energy = -340857.9833692994 ev
CRYSTAL
PRIMVEC
9.36533017659127 0.00000000000000 0.00000000000000
0.00000000000000 9.36533017659127 0.00000000000000
0.00000000000000 0.00000000000000 13.70710737552340
PRIMCOORD
 96 1
Ni 5.9079218079733815 4.194824995378077 2.8344237039330937 -0.25143460590005084 -1.222765755664978 1.1318404921383152
Ni 2.9606149710073333 3.4093922230301104 6.73332861869462 -0.7332747649439952 3.1728572577793677 2.1737126853465982
Ni 0.6422602887757262 7.626871951867632 6.4087712317645975 0.5158913350913824 1.4423680475457805 -0.11710089348076608
Ni 4.571835723010727 8.282894593193442 8.97017776978766 -2.3724535603973593 0.5533281397816019 -3.2191507415292686
Ni 6.067375917886773 1.0263933499329339 9.112005391960654 -1.0601457947064905 -1.260003556970514 2.018969556033026
Ni 6.035917774153712 6.510880489075459 3.7303889114643574 -0.8673143431616288 -1.7228502056310908 -0.5840227406519813
Ni 7.921767465373615 5.498141790396708 11.364220240113188 0.2094343502088651 -1.107282857403609 0.6140390845084134
Ni 9.117083273929119 -0.3019344955928447 4.083401917304332 0.6983838666040811 0.4533333098535031 0.40349170374102766
Ni -0.14907076845556355 2.183245747856796 9.291005882280498 1.5132947564633292 -1.4397532356307525 2.9211395734212595
Ni 6.987828653973807 8.291211006302985 4.439183314715457 1.5483100961962497 1.3768087735877321 0.29415554180734504
Ni 3.0703766395251857 0.23606812915205522 12.433908574465162 -0.2243611467220265 0.1598521684053634 -0.6064566441754653
Ni 2.114363745130789 0.7705222303302816 4.0111380938870465 0.256131497155088 0.03566634305335793 -1.0010554163022374
Ni 6.7214318398961375 7.901463429763829 7.93198785008808 -0.10604232167375932 -0.017805403612537078 -1.4381033587321557
Ni 6.412432139292211 4.45087311971921 9.66057772823194 2.0440187856921703 -0.14260160885503184 -1.046783000246339
Ni 7.699368972003869 0.17845074544424558 0.9330013418589688 2.39965943138819 -0.540839777506604 1.9998742299644716
Ni 8.940275207380608 8.213300825381484 12.221421409917296 1.180169004040374 -1.046616649871804 -0.14570570170165228
Ni 6.179984646748433 5.272203202257359 13.333917731524243 0.410806492234886 -2.4945138547659296 -0.026631229434283168
Ni 3.79913043423919 1.5708561793658553 6.0592543036428586 3.993006256109104 1.774668990074595 -2.326571453153264
Ni 5.829150016684674 2.206883840974463 12.758890210847733 0.14696168559594044 0.4597291860775179 2.1870649382837883
Ni 7.720675097932036 1.0692959270216948 7.719307759740601 0.31280863813215803 -0.4405158463738607 -0.8976711010766154
Ni 0.10953971019499589 2.2456001155182173 12.336492284056545 -1.9061778314505753 -0.44220660381272225 -0.3467001486732803
Ni 2.9169725328423857 3.5704571697169727 3.662278611936804 3.535825290374736 -0.6101860293109104 0.9365412957792516
Ni 3.027155641213762 0.6273722235502288 0.9946654846936183 0.38506589293567234 1.2075756781881009 1.2330465687656957
Ni 5.050272975391527 6.0074003440652435 1.5621033418746624 0.3615600965042483 0.23576038969790364 -0.35601705519883203
P 2.0418854556547092 7.27450140767103 3.6327675203270258 0.144145556303384 1.4606077104822588 -0.2315355529832787
P 8.656112362144373 4.476403009512697 9.519134084592157 0.3691865027012545 -0.29162763317916873 0.2806562217693296
P 3.3425144009408636 2.955473404794339 8.947985683634085 0.19522463436738635 1.4718439455177101 0.19088718333429705
P 5.592918930789256 6.706503503751303 5.933806643776837 -0.8266469473492537 0.686511026425895 -0.5560139141438811
P 0.45331569097872854 6.129308845694671 12.268765963062203 0.8402650523533206 0.10874660797879983 -0.06980802193207332
P 1.581841711547719 5.696415193484715 6.632458394553121 0.3795814727823334 -1.7577940686961275 2.0866440765618646
P 4.150985885281485 0.8403819735164646 3.405243381805417 0.8074068681727192 0.4616762825015597 -1.2909521828332284
P 0.4424884328751886 1.419662290581538 2.9001495904227084 -2.2531662007882356 -0.5851812797364568 -2.117169241733915
Ni 4.427066450660133 5.183167009202817 7.400796629909139 -0.2765270300923044 0.9536532728691898 0.43690627464573145
Ni 2.8378261283505455 7.731304747570923 11.023694028866629 0.6727404550043641 2.390473651123864 -1.5861677904739717
Ni 5.877297178617291 9.219156006452673 2.439522386251839 0.24926845148666749 -1.4869221800070713 0.8865662494127055
Ni 3.3331584361926265 5.821788867243118 9.100765122800661 -2.5746296863819143 1.9973324373792245 1.4169781467177662
Ni 6.590822946623955 1.0572052858905903 5.5682656358911 -1.120879365141121 -0.3339022255776637 0.6812335800770397
Ni 4.430147644255899 4.532735469933762 10.668090572726992 -1.2402896234813543 1.0367826945005176 0.886345648761467
Ni 8.306055054477115 3.2774628182168875 7.728765806586692 -2.22343499227239 1.2029402362986186 -0.8721220489629175
Ni 3.2038981504517228 7.100362460194841 6.413569090363719 0.46142457150206984 0.17295116768116667 0.22839546469240019
Ni 1.0174026330577515 4.1832494474012805 13.588006628812993 -1.3959886889502926 2.1456766051449887 -4.224375201607532
Ni 3.490055810994638 3.884870031106164 12.897716244730628 0.4238993208631022 -1.2261184741872948 0.6263659815048825
Ni 4.803505893158005 8.725453266044218 4.828191030178427 -1.372993770717016 -0.08716399671201762 1.0205083828205261
Ni 2.659079438475825 6.026365137473832 0.35322934496478386 0.796685625100473 -0.37783337974297504 0.4995843704012428
Ni 5.373863860257468 8.256409439731968 10.912927460431373 0.636641909509594 0.27209650512477657 2.1831815440689817
Ni 5.414153510254379 1.9651365756629176 1.6169317302851496 -0.5122231422111759 0.14986317551345157 0.228345071070439
Ni 6.706522234411459 7.2339307977717695 12.405096136479226 0.9321884181271946 1.679286204997211 1.0886084209225573
Ni 8.923839053093165 3.059653336585515 1.1526801433739726 -1.3862148973929804 -2.440362051313875 1.0197506787188955
Ni 3.7241703322923563 8.131607051108341 2.411299027527829 -1.150560951365954 -0.7572634145491087 0.750451790943914
Ni 8.256212767800323 6.4429724806775965 5.324087130891224 -0.9744372994940768 0.45155153536273207 0.193086504978461
Ni 0.9361068853129381 9.400543719409477 10.529827395181803 -0.39272598058409136 0.11975735726700665 1.4510182670216107
Ni 9.326435862499771 6.912774898726191 2.9901373010132057 -0.9528775710454301 -0.2300797943733586 -0.5858248268577265
Ni 9.121915784249527 5.958813011618946 8.048512223455484 -0.9187438625865145 1.0163583652078947 -0.7906103654406706
Ni 5.392107523250026 3.028850765957937 7.908411568148931 -0.26978328361056764 -0.6558274812991093 -0.35739079561790704
Ni 0.8768552515064624 4.2148855324058285 11.234290333271682 -0.9317526161413566 0.18814484470246953 -1.755501416007209
Ni 4.3914688310324586 7.736849022977285 0.09163038948623409 0.16777990789287234 2.5354134211937684 0.3655129105044092
P 0.42874293791924567 4.833727813320728 1.9684369179825156 0.5249927831720184 1.3036125519097161 1.2470318273011942
P 2.2603879717118764 7.881534007357174 8.559361946704325 -0.4347205798483223 0.3873631736102812 0.24963354813557007
P 8.041746709006908 0.32622816181599384 10.147440031551193 0.056854289984882726 -0.33712793160381294 0.5005271939304864
P 2.145672043582596 8.117577786651026 0.41293238768103424 0.3067202658462331 0.7390060110008175 0.4038318606892658
P 6.771545721145201 3.213001251287845 5.048602200505557 0.012763213202939308 0.7130543241320623 -0.298880200976524
P 8.059849892048291 8.74979375891776 6.310656287732139 0.8639814221336539 -0.2672445763491139 -0.3866391509600631
P 7.195120869927232 7.108210606800468 1.6213858812703965 -1.249696775727867 3.9391501295205966 0.22745546937663405
P 5.82984305111047 0.20792437573371075 0.2821530454014277 -2.5953283523818467 0.3477686991471108 -1.9264630640621727
Ni 5.387621530142513 2.620447451902776 10.716038253128943 -0.06601461632791211 -1.409835622135714 -1.389152896975382
Ni 8.755609628896392 2.036790716092106 5.536396354167602 0.06768274805895441 -0.013338626090435093 -0.09745535133569669
Ni 3.481214939400709 5.732630924897559 3.2055576869416003 0.05548054956580767 0.1165895010619863 0.42117832238751335
Ni 7.371835283174958 0.3836488735921589 12.328487736438609 -0.6373821301097281 0.8592315661534943 -1.2815506870136704
Ni 0.5331354627031996 0.4887363058679238 0.42554561423050885 1.0564683458549031 -0.06768609049306408 -0.07879685569424494
Ni 1.3314970732242803 4.293160961200385 8.59323259946556 1.138730277279613 -0.622899877333153 -0.02882360909991165
Ni 6.6088980336751035 5.043754705657021 6.768569419246312 2.5255175022362955 -0.4049225226502832 0.32167971536954276
Ni 2.329663318301173 1.0240894787336685 9.015781308071007 1.3416947034934184 -1.274842164645243 -1.1953171725357221
Ni 0.3668858692849828 6.892489593776561 0.5612211510750584 -1.0620954622336936 0.00919580756665513 0.5499561379855755
Ni 4.786770048308057 4.175504319426514 5.588195994830762 1.11113539838048 -1.2239975711895499 -3.8621566455836773
Ni 8.204890758971157 4.450329930574668 3.8000491731198727 -0.21915749103389995 -0.2401667462957154 0.8579994935186062
Ni 1.0557349290682947 5.696265348203462 4.635469394760846 0.9933513627897602 -0.633992644812205 -1.4283493646691852
Ni 0.8892062488137443 3.1858886207111228 3.9802559179538024 -2.017895863352873 0.13439464756420727 0.2545790650663035
Ni 9.286661305657168 8.842950697206758 8.545873998325535 -1.003670485327581 -4.217421138887201 1.7974916443960656
Ni 7.2604346818934005 1.6764034493484656 3.426529840540419 1.1722371507878069 0.4249850977281132 -1.0080842981245606
Ni 0.7239306497236723 0.8731990266438882 7.331123256791515 0.6682762485854233 2.8621587240116773 -2.943315852407983
Ni 7.82986548131511 7.15299561523497 9.84378606135597 -0.8047660881157624 1.0933834737136976 0.3811752996320145
Ni 2.480557516522984 9.42732856343346 6.097469533027423 -1.8100039179304634 -4.217676963651749 1.2988303000297243
Ni 9.215840679604948 4.403877893386225 6.091314638099954 0.29913911106486546 -0.21421891608170204 -0.38262823002845714
Ni 2.2198267271426944 2.237564662311023 10.905923130065803 0.6874476793075516 0.44837082364190517 0.9437594107942456
Ni 7.792235585060441 5.270133464310051 1.690785786749734 -0.6842571973947119 -2.1496456170950653 -1.1618313820734507
Ni 2.6931130479804217 5.721205222202015 11.623859968539351 -1.0921346889082608 -1.4383769241085163 0.5030594734340368
Ni 2.1329632906663227 3.702274190569256 1.5160886656008772 3.497778105794028 -1.1369577587602226 2.0799687214242177
Ni 0.8478330301267719 6.706784463653652 10.146041787770503 0.2467765383027492 0.21018434100101224 -0.23439667658115765
P 4.41202573055436 3.8196217764505436 1.2367096309686463 -0.13811477672827183 0.9889501483982709 0.0028546958399757287
P 2.0118133807732397 2.0946965519663276 13.188758861442391 0.8438774522949273 0.19059639156675562 0.6716305097696369
P 7.5673552792199406 3.6174711267101136 12.34433293839811 -0.6342543831140238 -1.2066271982319026 0.7182839479621178
P 4.669066579883793 6.422406215825617 12.26919021251475 -0.5268038682388282 -1.2089717872046792 -1.934954389362635
P 1.6990300868176746 2.138676142014095 5.796516524026785 -2.655308075369588 -0.4387155599403283 -1.038006796715606
P 5.487999137921894 6.264394366744286 9.073995263304806 0.723901037038579 0.6429861065600668 0.2974601807005458
P 4.141208480679724 0.7347654000912748 10.51732655259327 -0.22974477963144302 -0.28128459938194783 -0.06691707353752346
P 5.132959474652971 0.5690374555584202 7.193160706341841 1.3738579184895243 -1.060628904990496 1.129870770006454
