# total energy = -340897.50239691604 ev
CRYSTAL
PRIMVEC
9.00580034524454 0.00000000000000 0.00000000000000

0.00000000000000 9.00580034524454 0.00000000000000

0.00000000000000 0.00000000000000 13.18089912552197

PRIMCOORD
 96 1
Ni 6.232860286149032 2.023225062152929 11.57049630131359 1.0407434789204784 -0.6807612684263115 -0.7997560364956807
Ni 4.536707875792479 0.3654986001053343 5.978631949879949 -0.3213896949329497 -0.178114457049661 0.1611498041708644
Ni 2.464995585343066 1.4824267599233918 4.719684122010277 0.8868704109166855 0.35329708516450764 0.38458792485798926
Ni 3.309010174629494 4.2880036973683175 4.884076899507834 -0.027676639979662014 0.23017903895538422 -0.29206317805469056
Ni 5.167573185858779 4.392029695520747 2.7349183296270616 0.08729743696608835 -0.13256607899590073 -0.4296835316450471
Ni 7.4101795409727655 6.151177678301873 2.5349904656859206 -0.32867054486507913 -0.12367983224986441 -0.13290443617192596
Ni 5.280622995815272 4.24972904650278 11.552886359595359 0.09433094677410206 1.7442554107797443 -0.017055412820389984
Ni 5.95538257607419 7.587467723781936 12.195244871881565 -1.8858974839349842 1.226926829021203 0.6785413779568572
Ni 1.7986834456751766 6.5460189766307595 0.3947917664277659 0.18215031768193146 0.27958767129549916 0.2876005142976466
Ni 2.595822844901576 1.4550131041034633 0.5444015228910201 0.5920731217602835 0.43953291363530106 -0.6228625963373143
Ni 0.46472090442913366 9.000738943941455 4.730176779827557 0.13985541356846234 0.3022786851351117 0.4827328460615429
Ni 8.652457632665469 2.205889707683682 1.3087183826951747 -0.15620480146076324 1.1268319831801301 -0.11798175342382261
Ni 6.733159504862729 0.8524800414778646 4.875416922031998 0.5472929893311155 -0.2795221081648863 -0.5011013212664015
Ni 0.8062136435116029 7.522571927514392 2.5818485447255624 0.4388857669696054 -1.0278090302469978 0.15202110239671884
Ni 7.59949947285402 3.821251084413239 3.712506046954094 -0.3629598050652523 0.217206023734484 0.040343693924369234
Ni 7.63408174563606 3.842072494484091 12.609942158499472 0.47173238118598115 -0.38157690594580734 -0.753353023751109
Ni 7.726292133921292 9.047136826590691 6.938095494297123 0.30409491240824404 -0.20363317014605573 0.11974861551625829
Ni 6.83650106219968 0.6404627913433362 0.36263655680061246 -0.36717358603628375 -0.13259076158624908 -0.6440708549838133
Ni 1.834346414481654 6.5922097258753105 9.252793280041375 0.7666985918200795 -0.18054594930928905 -0.953221327538094
Ni 0.1090566381461916 4.907800878984324 1.2823683118792981 -0.04775001369076937 -0.8455576682108277 0.7065622886498154
Ni 6.228510484650666 2.161689240284139 6.975212899836491 -0.39408043772945683 -0.5375179122222227 0.5617343615674262
Ni 3.426274699081298 4.348495657336274 0.45713171659751284 -0.020410702445868074 0.21476861793758498 0.22975146449966238
Ni 6.062470546295863 5.804373318259287 4.581034424394873 -0.5721581280039114 -1.2067806930906313 0.938213541275352
Ni 5.236566621218987 2.9477424994598374 9.481494675633197 0.7737686112929836 -1.4431537766718694 -0.5369460988791527
P 0.16329226871266858 5.547131641242061 12.347918401574104 0.47263895216065055 0.29775405779188074 -0.13506030617266418
P 4.109373650328802 6.055896312147194 12.425435826827071 0.6906355901172299 0.24348115538092907 0.5888332746667472
P 2.4970742456684887 8.424863049918677 1.4376535236308963 -0.8675328869303381 0.00586571475215764 -0.05859055594969909
P 6.389732319896514 7.7441866589259565 5.759340714920928 -1.1221039815768417 0.06324965198826525 -0.07398143658347259
P 4.599019007401575 0.9769131828917784 12.656180638485102 0.7879994101803848 -0.090825761834321 -1.1022260117059919
P 3.8941890602626477 6.239668671102996 8.116955641535702 -0.16394536463813053 -0.508586316789537 -0.22597605661763018
P 4.776550346816243 0.9894942857762856 3.8213933760564562 -1.000851527821547 -0.03363465733530981 -0.47185836524088415
P 0.27109800121057237 5.568376323922485 3.5585663017529217 -0.28104574389826437 -0.5958981519333285 -0.08116972680179568
Ni 1.2680346802751594 1.031938622136116 2.5940667138618627 0.9129933332559824 0.11765830864613286 0.03917332776535189
Ni 1.8828786717791555 6.333328993221018 4.765527247366968 -0.15087824704152727 0.8027362021699272 0.7660025941943195
Ni 5.747582742175034 5.40194013035872 9.152367800810367 0.3085442064288492 0.5855201511331142 -0.09643590893224682
Ni 8.655555627935527 2.40972698949323 10.20208207138846 0.14134948161548558 0.3510964779687631 0.2671093363228303
Ni 2.243867167142499 5.171580766949406 7.068402218603861 -0.5939788234234287 0.34753447164911755 -0.4485788258876533
Ni 0.7502840219268182 -0.09756433650630628 8.8262992957367 0.5357646769765418 0.7396377310475456 1.6502985595156094
Ni 1.4533650426661942 1.0911607642753574 11.359206719835516 0.3190893289345473 0.19523646144192827 -0.29226552387348376
Ni 4.1011333431424575 6.782736434983855 1.557099252892025 0.28413286746402033 -0.03230822521440242 -0.17442543823384798
Ni 5.655651533696115 7.78627076327764 7.8940143557541385 -0.5905397158348926 0.5459393035166985 0.7523230398246978
Ni 5.077344073618351 2.8565227491970067 4.961553798659885 0.5470248232713935 -0.41001844911595187 -0.7742180401255763
Ni 0.497144486902356 7.483558801032155 6.9881434277689 1.0065040981216342 -0.6356319801878407 -1.3826441493225865
Ni 4.831332629455082 4.588446197962482 6.910929497982795 0.7142074638998991 0.1875828015514124 -0.0636268328220259
Ni 8.282670470503154 7.256774740303691 9.241628789528903 -0.9799479448996606 -0.6971934458404058 -0.27214998407053126
Ni 4.64300333559623 0.23013962188434528 10.424443383636907 0.4523971711924789 0.49333530416773747 0.027591279354707322
Ni 8.15210437915055 7.079999888106129 4.7641835819765825 0.6349020440003517 -0.02104962158144762 -0.016379469799287918
Ni 7.001019020320067 5.971800149845455 7.00900896626075 0.8593657777385135 0.4362825250188035 -0.19176778616703746
Ni 2.388077045803641 5.143059397704428 2.654079565258985 -0.9215425083775742 -0.012316098363191691 -1.0529377069938253
Ni 2.324270951360739 5.27229263062689 11.55246488814583 -0.22976329157420433 -0.5573341756172014 -1.405541365635734
Ni 1.0172861852047679 3.3739419940978532 3.7078788668094553 -0.11004295819272016 -0.07245908640167521 0.07262312278336525
Ni 3.587568580728775 2.576730548469825 2.737540818646366 -0.0964312809465565 -0.027858416973164924 -0.15173493861486773
Ni 1.1231583723989467 3.3209158424987275 8.304058345406817 -0.39251694989707886 0.07319313635422232 -0.5234115547278275
Ni 3.4765540816183087 2.68715066476685 7.0344350419757316 0.380520439656835 -0.1015223223162187 -0.12775245965734128
Ni 4.133022881663602 6.838356257041634 5.91764377032077 0.011313625240606322 0.24821661318338545 -0.18727272651016136
Ni 0.7901319860879346 7.489592687168603 11.281887422187026 0.23994614564447705 -0.4976776402968332 0.5485356034889649
P 0.17283481460846237 5.625013801403277 8.022488399719434 -0.21545407404038378 -0.6589513716400717 -0.8832834648963755
P 8.663201552308431 1.6051397934984073 8.111907890521552 -0.22359547220059556 0.6082268487020106 -0.5291253172831533
P 1.8707388531046272 3.257695125069063 10.385045709485974 0.13838782788400036 -0.06308433005499459 0.29626513195118004
P 3.9953241965497037 6.013605074390826 3.6917719931452164 0.9513127976614714 1.237009924288818 0.6330621625781355
P 7.0816659611438055 3.9260245639825717 10.189046175593669 -0.8779240003566751 0.5185534553045779 1.0879065097595266
P 6.362246617674957 7.748275292218416 10.031758073876777 -0.4269175388641357 -0.04959992241531458 -0.03590314165451236
P 2.391039954070644 8.312281541572775 5.764916205827011 -0.7703315605869765 0.8150962663971769 0.6471006429490727
P 6.91801255984297 3.813830305045426 1.4963614345785088 0.05245256137276128 -0.12029497493803154 0.7661180367262612
Ni 5.1544967639630705 2.782792262929676 0.4796327084063471 0.499548632067301 0.23128821285916298 0.9420719957894937
Ni 1.6695672881553616 1.1348118778624776 7.038402096965443 -0.9908465940900353 -0.0005250192655345797 -1.1317605308299992
Ni 6.849379356490909 0.9362700065726792 9.187442690863547 -0.7133440874583392 -0.5172169958813414 -0.09355344517812919
Ni 2.835206020114953 1.4780859642252295 9.223808112085909 -0.7986113813682764 0.987174544555087 0.9375332273788758
Ni 6.370991249672707 1.8002594607108162 2.510684711516274 0.21637812851654992 0.8943821459126984 0.411918237241826
Ni 4.078411709228633 6.805250935492995 10.240912380126563 0.5309199472897308 0.30126721315146177 0.7937370839951104
Ni 8.201483181667196 7.2454814668483065 0.20373461568722617 0.05940842386530415 -0.6847102257717305 -0.23487155933504714
Ni 7.533712102366313 3.8639836063795863 8.065286664027267 1.3709816253829938 -0.3373711579628706 0.31330588948355076
Ni 3.289197414181451 8.23615551245127 12.432065896937004 -0.12941699184395775 -0.31979458253168797 -0.08165078020327228
Ni 0.2523434222864589 5.045949854108406 10.133963099228026 -0.5261698341992551 -1.3620915219822154 0.4749400894900014
Ni 8.583419168304243 2.2967672375387735 5.919765536848751 0.15542447165131296 0.05960382770556187 -0.1247589242466561
Ni 3.643188402786554 2.6654196688754284 11.607850559398312 -1.0810853730726349 -0.34129800382110254 -0.3649035590551845
Ni 1.115953732236022 3.347843185107658 12.605025892168296 0.05075511906568034 -0.07167489993748301 -0.40336931923055047
Ni 3.147977461187923 8.453681610570376 7.962278321297851 0.44687238471950785 -1.1701249895408108 -0.08286459800571537
Ni 5.7408013746216815 7.9161434080145625 3.520539310392985 -0.5123707235326337 0.45243959439464015 -0.5312230803524464
Ni 3.0534345706499435 8.32823081373345 3.626790641775737 0.9800191644572283 -0.33225903354728586 -0.2594075968031984
Ni 3.442422098846453 4.151583835883337 9.060470814372222 -1.2443871905894954 1.2864830913182812 0.35857710261652437
Ni 7.178253168328014 5.967270232343017 11.226856579462567 1.0481685677399561 -1.0217504827577435 -0.3902744337198053
Ni 0.5991261684085555 0.03949763853319408 0.20182718720409185 0.3125343014248489 0.007914883971702497 0.5978678740651897
Ni 4.620065562477517 0.2452513546260799 1.5032283572337963 0.042045507106824365 -0.3861552693451092 0.8992433306597416
Ni 6.050483826224797 5.506398406920924 0.4399162289282042 -0.5485320039445392 0.42492853345856496 -0.17628691692261897
Ni 7.90192324949299 8.89155262227233 11.204923853646584 0.04393938169542755 0.18690840119220714 0.14835188107524774
Ni 8.882024485656862 4.7359612052983655 5.855825255982816 0.7473595251718355 0.481019720025178 -0.12241716348735691
Ni 8.011487814770668 8.910401762098582 2.3354840731943107 -0.5332365112380494 -0.26508973478964026 0.5616549144797425
P 8.422629611468171 1.7101474238730352 3.6156126425629598 -0.2772798490979289 -0.6112941747734246 0.42477015350382974
P 1.816803115684932 3.279849393570056 1.558140323395568 -0.25513108091503156 -0.6196471747238103 0.08035751531314547
P 4.672875574871756 1.160055135833325 8.222956611672794 1.2284764328965099 -0.3878501405490288 -0.6702403142903296
P 8.480185680569736 1.6685226153317374 12.326223428883495 -0.4069521514858023 -0.029541718212858798 0.3331566056608908
P 6.389543198092238 7.616610493240966 1.2598303962896287 -0.970993049699218 0.5650968502817558 1.032160622347474
P 1.6898303386135873 3.265656252449095 5.89924311934466 -0.42221447696151154 -0.5275101502772335 0.42496144357902943
P 6.765868571202407 3.999746044449699 5.897846319733073 -0.05923204618843993 0.3112585200362188 -0.35212980432928387
P 2.5119067986039094 8.465028918826983 10.250218073477 -0.5305890463128733 0.28812244823938765 -0.04150968920801239
