# total energy = -340861.8915030807 ev
CRYSTAL
PRIMVEC
9.35718423023145 0.00000000000000 0.00000000000000

0.00000000000000 9.35718423023145 0.00000000000000

0.00000000000000 0.00000000000000 13.69518495962278

PRIMCOORD
 96 1
Ni 3.6647036552436636 5.180951095532441 10.76753798562309 -0.8503561180407354 -0.7997118135213066 0.3181007397690328
Ni 1.2371132866409071 8.216412203414022 7.317418886443424 1.3799228937366816 1.1909455258305877 -0.49922364462771446
Ni 5.12165462100371 3.8565446400610894 -0.18235560747329244 -0.6946040878466746 0.4126088355509474 0.40155360617805036
Ni 1.0711449153743633 8.959812394653413 1.2241330011010216 -0.07080818106181354 -0.5269247100874086 0.121583611842468
Ni 1.5282246357119704 6.606368351467363 1.4860780078798248 1.21176040569341 1.443938991577326 1.0177418758189827
Ni 0.5145459296907307 5.187014550715433 13.863361351282386 -1.7091251427355143 -1.114988453577983 -0.6517427697067744
Ni 8.429624996314708 1.5363841000940208 4.898438998487873 -1.0344113660548637 0.5481591939861526 2.4530699857988467
Ni 5.284338620712801 0.42633201396212855 5.36152790234171 -0.49549117416847566 0.29633583728811547 1.1656700390932504
Ni 7.82491698520232 2.486334769279949 9.922516905528257 1.9460677256669772 -1.6799873448292937 1.2356966047940332
Ni 3.236930634957182 2.7609026171727264 5.152977794190537 0.9525420420828822 -0.48151440027340947 -0.7243931461836491
Ni 3.543153836066102 5.221879418017634 7.477118880199034 -0.47219260865185125 -0.02414960066301002 0.3303625878555214
Ni 8.298951922810884 5.020671892091913 9.513634168148293 -0.9754174040191588 0.833507679024829 0.30557046851250597
Ni -0.11261183709300349 3.0054245474843535 3.372041820796332 1.2455115340019258 0.14013412115114574 -0.5403191291164436
Ni 9.060308550001144 2.6603316043536016 12.066265521250793 -0.5253370538853146 -0.36616237116295003 -0.3492810220265791
Ni 4.823001381689606 0.206490591969419 0.9735672656926444 0.8803454653139742 0.3102573324652141 0.008597768971340031
Ni 6.627384586561496 1.1130183134359173 7.831467949667772 -0.04754638232039553 1.4515995934463775 -1.1195706736320266
Ni 3.6303253615055295 8.287320943192894 13.134900839896641 0.41045630798431887 -0.9590970695925805 -0.07230919108737224
Ni 9.002368867141445 3.189583284299872 7.8516551382662065 -1.7593477863364928 -0.5268133813205249 0.7193064756893612
Ni 5.241071002246516 8.40136630086311 3.349910209378413 -3.051814348931718 0.5178392028463727 -0.32655478407365696
Ni 8.331346493557053 8.625583142058856 8.083719849619321 0.5166750073349423 2.279993605393725 -1.1917263698606702
Ni 8.6535143360731 7.263149091118866 12.64539379866913 1.5513383414996123 1.1452372251601954 -0.14975570340130984
Ni 1.7179602541464132 3.398519844147121 1.3486387546802914 -2.0781373246424337 0.3564374305657023 -1.0499878803368818
Ni 8.96325583833758 9.788643675122302 3.079266764423516 1.5395269506869809 -0.903427029723786 -1.8052013543354974
Ni 2.896001638672775 4.858998468246655 2.526967404753131 1.0852991540436663 -0.1622036993566755 0.41155314059292347
P 1.3859205825901573 1.5357197400353904 4.600117003484691 -1.031001054821734 0.6039937844572696 0.7120775620410899
P 6.475891778825953 3.5569837539063207 8.975084254536377 -0.545216566418061 0.3907873688004818 -1.591599503012504
P 0.6372831755082945 4.90961147609357 8.176969801736018 2.80697102309594 -0.8044809527751757 0.06403229579056069
P 5.343485380298741 5.759140847403164 3.458719286924553 -1.5899725089320422 -0.22496072797923838 0.19158575206321843
P 3.7841013221186195 3.031390732874479 1.2712351935395134 -0.1727753042249347 -0.7830214973498192 0.69657818085391
P -0.1048378886886372 7.57584746350345 3.0751991965715924 1.360962807694411 0.679858554106384 1.0753335581905221
P 2.111560838741097 3.7911192100618973 10.20645971599486 -0.20204911348838747 -1.4411359749108923 0.6172071978237499
P 4.523000707890391 1.9441795327019729 7.241766990133289 0.9604808373139846 0.8763515136632327 -0.4253882467038028
Ni 4.899851933260453 8.260512611249574 7.595376842072002 0.5879935523742713 -0.06363737434498717 -1.2784856749351012
Ni 0.40307660475489276 7.597275414690255 10.128849361089355 0.12193945251998999 1.0402344004945439 1.4299336784371697
Ni 2.5967963255071322 1.2718377961842426 13.956762889778659 0.1734839002561851 -0.8190521657211314 0.01955863885821793
Ni 3.9678857715771634 2.0835454300715344 12.263435422313147 1.0779997921687758 -1.2043913669228483 -1.202371251169026
Ni 5.434334279020446 5.38616349617779 9.004870978122822 -0.4635932970186145 -0.9934999725524826 0.5446308691179201
Ni 6.549476673207195 2.044095542646392 1.4433624632650774 -0.345377830317431 0.13751519547105995 -0.7256406454375051
Ni 8.32737904757312 0.26954116868860634 11.081157104905833 0.7562046342672912 -0.2796835734434151 0.3970621460656001
Ni 7.743958629888674 3.6177212347594034 13.69204815655824 -0.1431615951235599 -0.08601239960607768 -0.028745704674124687
Ni 2.9395686870246402 4.983271227946208 13.613067909926206 0.4678901246217555 0.657428507237642 -0.060719429367243824
Ni 1.9122060352324022 6.546800518604826 8.932163787593687 -0.17073693363866724 -1.5791718187721124 -0.8530730027512663
Ni 6.702681845600899 6.572092986752397 7.734177565532531 1.0075736770367294 1.3343773438963986 -1.1412383884134474
Ni 4.441490278725207 6.798752052952402 1.567030748883116 -0.6043660801950236 -0.032650953265801835 0.015792229837250222
Ni 2.850563153536036 -0.1002304113242776 4.378733517581245 1.2927540119286574 0.22061453519540067 -0.9780283592794445
Ni 8.376710121222397 6.744106098834083 1.3988943181012958 1.2391423972507885 -0.8928160869771592 -2.284006840318176
Ni 5.320466707844792 6.863316622030553 10.948820324100256 2.130343574332344 -1.2085395847632672 0.07637899028137168
Ni 6.382282510846559 5.112671724436316 1.1656131728380141 0.6003628725729016 1.4561319340990921 1.1654862052172186
Ni 7.365572826355016 4.706607370854372 3.4940389133654786 0.20513829393667252 -0.14556120570398803 1.5017114225011041
Ni 6.924288032481744 7.0630082841605235 3.019596002537811 1.2275829745479632 -0.11135576346687275 0.1026392095294813
Ni 2.1316226410749453 1.5818506567825328 2.541785441215763 -1.2164359567922083 -1.147861807267236 1.201797895164059
Ni 5.427157318950455 1.8794091055774866 10.144433750915391 0.45558276800931213 0.8451506625803961 0.2385158409558537
Ni 5.092834494516652 4.905718887581033 5.861360596029763 0.953127739383023 0.1631174694201965 -1.3163132873058363
Ni 1.7881765623148826 8.927221323044833 11.816671061533766 -1.4804255165391345 1.4015700396928121 0.6808245175640791
Ni 5.875619072893716 4.36129921249336 11.042906808459792 0.30684573568050383 -1.1936287290897056 1.1812959185559655
Ni 1.7637355979044294 6.204664445594174 6.003407326593655 0.3517940182564199 0.18367035387088368 0.7942358780083999
P 4.842221037470261 5.873176847889456 12.86947402497958 0.610115323973975 1.2641435472808165 0.06806712798156664
P 7.200633745320153 9.119960597518999 6.231637463974563 1.767794374441949 1.3164456991186424 0.6858122005866575
P 1.9560163703663007 4.6691879923408175 4.520807383978519 -0.2905392852109964 -0.9758526917843645 0.12859603860455918
P 6.0907781600506725 2.3735994173591437 12.560059088434057 2.32505090274368 -1.7694193116398815 -1.2283787309763812
P 7.332719753596553 5.185124399562709 6.170215037258216 0.40876452210419284 0.28910203854383765 -0.8281435864994383
P 6.073074368065765 2.350150314444673 4.544856282382542 -0.6195517867965266 1.5474315502460383 -0.9009328025470227
P 3.1733017842714686 8.835960708230457 2.1261084525883143 -0.3714372464086442 -0.6545144189146406 -0.15247901586974386
P 4.3455791435004185 0.16622756526124896 10.672904106003978 -0.6144625451990773 -1.0491946950116253 0.7227023887447875
Ni 7.913286230184067 5.3180244828405305 11.847293381644658 0.1753944870153366 -0.6250117814698333 0.2595842315903787
Ni 3.1140988815819823 1.7922375801380592 8.8677274119353 -0.001578914451345668 0.7743928751405438 0.7422551140657345
Ni 0.04448592381323804 1.1944070992100844 7.024986303002241 0.7141298165844282 -1.0367490130491046 -0.2921935329849677
Ni 6.17216694582484 8.753336774178274 11.702563010731255 0.25345883541893127 1.8212933748013538 1.488760518767391
Ni 5.30313720321686 3.642667487101773 2.7895720929986028 -0.6463920469178223 -0.4686434578480122 0.7035430422075174
Ni 9.24330699601004 1.8137591031641094 1.1861334771841567 -0.3287427928639113 0.952685766749598 -0.11620306425684503
Ni 0.7034656016869684 8.775672372205744 4.8852369476889805 -1.183117802256053 -1.1581901857764376 1.1009597433990588
Ni 6.692875516848159 2.9770722801935134 6.511224505324372 -0.000444029515954074 1.2710557010196173 0.04052315692502698
Ni 4.285412450866723 1.3673091437645861 3.2148897882233296 1.7859972706032208 1.0361568879910608 -0.5098273882854898
Ni 9.166082157082219 6.564934741050254 7.39304364692018 -1.8333734458943394 -0.8140487989692691 -0.7749446338789556
Ni 6.499649668809927 7.309551366199815 -0.03537670526286422 -1.2077083471112233 -0.03226065980591864 -0.14701747853454034
Ni 1.217594200974672 5.2510270459420445 11.66591466417307 -0.6102618768541683 -0.8321231399724766 -2.045568389567477
Ni 7.666518575730591 0.34162329933159524 13.713946774096444 0.5440860523580435 0.49914651153287587 -2.431590732879148
Ni 3.213621889801577 0.3650125162689496 6.908672763948756 -1.7417115613119682 -0.41710595209035256 -0.9070985650381024
Ni 1.9305086869884691 2.986579179060673 12.505908129345338 -0.7221526868889047 1.260933524983951 -0.38627945362779925
Ni 9.239255335370787 3.9828385514883062 5.598906558445474 -0.5731739708629355 0.2589712805967282 -0.48883175987042915
Ni 1.8953069610649906 3.574593974051984 6.721049061926044 -0.6790394006391983 0.051428233873304974 1.1436541969437917
Ni 1.2739899484868478 1.6160418068421794 10.490141461029976 -0.43931359853564345 0.33043535007498576 0.09226326561179593
Ni 6.488954407584372 7.531924842162458 5.241503304143822 -0.6760070415707777 -2.232612030785968 0.741875876349445
Ni 2.991650772747681 6.626767012422488 4.002541037959459 0.9324982360581295 0.6176705106134137 -0.9951197675440926
Ni 6.7938863173117285 0.7609336824768769 3.3999664647818286 -0.42752174810703786 -0.7522124823887626 -0.11787453842199701
Ni 6.369079524329273 9.07295946266689 9.394841911073245 -0.5832892049200664 -1.9821559867491023 1.9197121184915842
Ni 8.9663343518487 6.2823290721664415 4.866392514983692 -0.8985236788848978 0.6010511568891778 -0.3417158080848115
Ni 3.2334216909855433 7.520452934671182 10.789887619426446 -1.3752082618698316 0.8656570100638641 -0.25491947912485774
P 3.5916895490818073 7.7555802523227415 5.668888937015834 0.27332472110492284 0.22764110302487892 2.3510588967716672
P 8.695799450227325 4.44323071493514 1.894742722874351 0.05717773476257249 -0.24235064132091166 -1.9337624259370632
P 1.848811114144798 6.8876172286821395 12.732468009395744 -0.29323971486129496 1.269985350773574 1.056238232121968
P 7.819789248411765 7.348028106496823 9.557060858741293 -1.9622314799110334 -1.5933954185706622 1.6486065165251673
P 0.4861131906181411 0.823125269711807 13.107072574905565 -0.26229777386679987 0.08712337328206932 -1.5485278686340105
P 1.3269983954184017 0.45421642205675 8.69668838270014 -0.13570822416930822 0.2431862498483296 -0.38889297999124633
P 3.952614847412592 6.881357272636737 8.866139497823333 0.4771481528849137 0.34301575784315763 -0.16048260290051072
P 6.8139949055652 8.813653181754761 1.6106773332983382 -0.9218309861522704 -0.6544668535061567 1.2267625355291971
