# total energy = -381162.2671260298 ev
CRYSTAL
PRIMVEC
9.25712982493094 0.00000000000000 0.00000000000000

0.00000000000000 9.25712982493094 0.00000000000000

0.00000000000000 0.00000000000000 13.54874522381349

PRIMCOORD
 96 1
Ni 4.151730118752091 6.061790727288723 2.7335267334615323 -0.1622479223310496 0.9612398269671962 -1.8654587564646583
Ni 7.586514053114092 8.875615655573059 3.6883070952267683 -1.0304341265746704 -0.7190025712956972 -3.670354663744595
Ni 0.23378696025119916 0.3921116502577032 7.470805485595685 1.3567194590370248 -1.9124572367013835 -1.1544451169117087
Ni 0.9903925398892506 6.739736624068605 10.938403167760178 0.37683167795133815 -2.2250699567726517 0.5529036506496736
Ni 2.871320961122458 8.194531591810062 7.53987663346533 -0.6637685905230569 -0.16111329450597411 0.14393318318226178
Ni 6.302753814517238 3.4561956754591785 5.484667933399377 -3.2172337270122138 0.04544064883130239 0.7079581405560775
Ni 2.02046113786 7.274271066859084 3.5080411563017457 0.4578679644990631 -1.721758515228809 -3.209143750915228
Ni 0.7404926196061669 4.158247138091656 2.6358945631936495 0.21308428825662656 -1.029455307601169 1.6214698082093755
Ni 3.0846607731957723 4.016974081073048 2.313475214211393 -0.9805590961210983 -0.5883496501621094 -0.6783786271267478
Ni 2.6992586905763027 0.05130208732661199 2.319640462620697 -1.2710945246773528 0.024568433367983495 0.6898190077532056
Ni 8.098803613130459 3.653881681135896 4.434395649763001 2.307088661838304 -0.6111291099504701 -1.9233828824749521
Ni 6.5355058276630915 7.232984268202181 6.900538521994523 0.031476730452042564 -0.18471704996784316 -0.47339408515912024
Ni 7.516317238267613 3.444550206241604 12.933632147077775 -0.11817869992597711 0.6176216596533493 2.858002792861775
Ni 8.211481396370777 5.6101631384828226 10.77286439654441 0.37747085419723375 -2.0931821347906983 3.221166743518033
Ni 7.2992282886481 3.378750528023383 1.6885124995195784 0.9351050775533573 -1.7414482803482523 1.2756669745393836
Ni 1.9977441414689598 2.3365458329586426 4.06271355913667 -0.471724153655865 -0.8009713969600205 -1.0058944895620936
Ni 5.793093279348081 4.305518815184182 8.699676499090241 0.35844520502435046 0.38920434058407816 1.7558487720442983
Ni 8.987738011028755 6.61233074740606 3.456989011478214 0.4546319740602686 -0.11201807964121999 0.6469669455846858
Ni 3.967670608058101 0.8793514171876182 0.6782837820155273 0.9919639955239303 0.6789728090673209 1.380667228101874
Ni 8.941322762493844 1.3220754986060277 9.313638040794643 -0.5478992554565467 2.466143788263669 1.726561335934091
Ni 3.903481670415284 2.5974765490443192 7.40666561074051 -0.20121504762286635 -0.5329302928515403 0.017574518548653602
Ni 0.8462386640944027 7.148929530129384 13.143543118294023 -0.30583503502780235 1.5268871504357833 1.5798390200424663
Ni 4.997017149908841 8.135489618304742 1.9358583777063754 0.42970795712507925 -0.6011660852004872 0.6890836722490777
Ni 2.510024444355584 5.515490472594 6.969270858915549 -1.5910595713486342 0.9993317487429112 1.285926704594179
P 8.027088629006014 8.599688389302589 9.185223136990034 -0.5800257036774462 -0.16838463135640677 0.9925162684829746
Ni 7.722001404042887 7.559835005192747 12.202379068668797 0.5770110852208385 -0.44575704016814194 -0.36936108060590583
P 7.189188787384737 0.1945496901195516 13.14374584943541 -1.043175228290423 0.22005403470624038 -1.5326968151390248
Ni 8.605612952338555 5.1730322148555565 1.2437777695208374 0.5826803676914739 1.1779128610163456 -0.6277255808565706
P 8.18344155037711 3.5106738840008544 9.556363685526359 -0.22121823021767062 0.14268825503156718 -2.1149712056413317
P 0.4050818147416016 5.1149992684923005 12.668022877619633 -2.0413744060907875 -0.5369795232202493 -0.01650005453755223
P 7.714938214048443 1.5883290642943322 3.234871588981923 0.12434806196148264 2.5972219698601333 -0.30430291465399206
Ni 4.860243057945672 0.9665369165397352 8.852357117092012 -0.006667898938478839 -0.20519228710305953 0.682645887043534
Ni 6.419319592249911 2.3805819991494244 7.51931006831375 -0.563493767460694 0.08364518492548176 0.19691616313719634
Ni 1.1336281084135233 9.189182411381415 4.2977705975887055 -0.4769902871508108 0.3989449649106097 -0.14520330814393703
Ni 3.3677715721473542 4.333095804690665 9.553518043843145 -0.16386283222665327 1.7300770623968333 -1.5016635999823043
Ni 0.3141601378249272 5.148852591965012 8.980094398999382 0.6259610327569801 -0.22267887392359714 -0.6320465768294276
Ni 6.541763647369833 3.530224942019549 11.015401195829355 0.7961618913865192 0.4195158470834259 -2.2954050548527887
Ni 3.1911270223780677 7.674753013831041 0.5665844773891179 -0.7073148505451239 -0.5492706818827766 -0.5383712613614535
Ni 8.321530154763884 8.319808328631558 5.49748442952953 1.373943793335111 -1.4272880132842065 3.3926912060550025
Ni 7.507263765378274 4.69206878189187 7.0983365389411395 0.40175080979052097 0.9854421352450126 0.5653285066765876
Ni 4.524801704552952 6.511113290788442 8.154434334325225 -1.5192268056770482 0.05486194214520229 1.1621558552924047
Ni 5.995870706383834 6.163359954836602 10.734684290629493 -0.25854910545764503 -0.3851430260305109 0.3767036370139061
Ni 2.243382079218044 4.872851268656591 11.786053544140497 0.026693964351418544 -0.640507048891955 -1.1765383492663222
Ni 5.660864438089068 1.9459967862016756 12.673482732742468 0.961149581246235 -0.261330267747208 1.209003411773563
Ni 0.5046450222740201 3.283365063144296 0.2933926929579102 0.6364081962322331 -1.260129541025417 -0.05743510218901722
Ni 4.497095115230057 2.9124596457034615 3.5140434792275608 0.01338619149891888 -0.46840074570958684 2.4945807034481233
Ni 3.7690126037582945 0.6970646468395463 12.137914268559618 0.6741671601485615 -0.013277176724880359 -1.9071412238051089
Ni 5.718999212879505 8.004853003361646 9.082536573882091 1.81815097251763 1.3703393638133046 -0.9762501843330993
Ni 7.522491743806661 6.439166878420405 8.935302851021515 -2.6580103047920995 -0.17980418604725806 -0.6175969770630009
Ni 8.872699659703793 0.32280259415364565 11.571779687676043 -2.3445835734599685 0.31307243331650597 -1.064371916972696
Ni 3.223045605734346 3.429285199294242 13.191410810485724 -0.8954743505356126 -1.705581134137998 1.8762730734713429
Ni 1.5015064444281683 7.269290731056973 5.648431187130305 0.082525983719374 0.27572613145756386 1.2902366448234426
Ni 6.9717665810944505 5.642174293136538 5.06569949832925 0.5456102023120539 0.8303596203141506 0.7571451438036896
Ni 1.2881851466143415 3.1577272982627975 8.47995667319757 1.052317042690691 -0.7396922384345648 0.06183914479398382
Ni 7.82283006121127 7.446962822227811 1.4241085083540654 -0.5659885088580897 0.9766142525407373 -0.20517711759440793
Ni 6.342827929177717 0.6639889222653055 1.459105087350124 1.1151787152119181 1.1731077263182184 0.29605018772689656
P 2.2401235695482615 2.1857101609147915 1.22775738078639 0.1339860992718789 -0.10263869530884903 0.8589451452613271
Ni 3.883976898045307 6.538819880111336 11.583539945302439 -0.5480378379169399 -0.20350590053957207 1.1640268470628727
P 2.0620719360579325 6.561185105572116 9.082604150929221 1.4129268594665279 0.02372176909697205 -1.4350622579129866
Ni 3.163392661665942 3.7208570148315667 5.4355940372020735 0.8506859905763284 0.7212803115862804 -0.5440981365429017
P 9.053287746743896 6.110733172243666 6.087071948618768 -1.3505161584397902 -0.9118962435370617 -0.9157552122718359
P 3.9644306126478055 1.4958966238034859 5.353448119282427 -0.03379869371699985 -0.17445217770672536 0.07335485874306721
P 4.824853050935506 2.15000541149334 10.7222195654296 0.15116106838926868 0.32051654829937704 -0.9616398906190922
Ni 6.901051366982324 5.703613863245476 13.472506332292102 -2.0404128135084663 -0.1432065894288824 -1.0826313774035161
Ni 6.471668660950535 1.203667552054359 5.129351522446933 -0.002598613965111654 -0.4102835298518805 0.19987241755204288
Ni 0.8639244104697419 8.56256729903035 9.953856505304076 0.696166033017156 2.262573095924432 -2.3180685578885756
Ni 5.00646867937716 9.144868531298322 6.653246335160239 -0.5762513242366786 0.19769649294664665 -0.13701665856808662
Ni 2.777564751078262 2.40428950842304 10.589468622053042 -0.6234259250399521 0.710606376812202 -0.1972756033591441
Ni 1.6016685882550041 1.0710776827353412 11.941525186759993 -0.8995189529186314 0.098829605975404 0.9342987796019779
Ni 0.3724772780713152 1.1107352265573527 1.9702041804814516 0.6081003504264753 1.8318133004960708 3.427859526426019
Ni 3.5088039437926266 8.51343045435079 4.615569713115881 -0.14952918921280053 1.0393579114268616 1.110873402968345
Ni 9.165993301373446 0.1485556409879773 0.21051268464958817 0.35487805649838233 -1.4299200515904147 -1.019991333974792
Ni 5.625696602192751 7.663052001835004 4.518601279050621 0.41385170681911304 -0.2840727036500462 0.02703180730681151
Ni 3.401254610430318 8.224663549125808 10.067422047286815 -1.143516385814347 0.5725000847243624 -1.5155843238284543
Ni 1.7248346994949348 1.5263896091792344 6.430220788236093 3.5642899734733327 1.2386929684181958 -0.38373946081476495
Ni 2.4497883011133266 1.048518057549944 8.666035163888662 -0.21037074598020544 -0.47693500843284314 0.28437043739612317
Ni 1.8408728208322167 5.408422509978364 0.9186784814777796 0.5410128127493585 0.5067598051037595 -0.1380597551206203
Ni 5.390176707253532 8.51168085682923 11.157892491122233 0.2569624776968155 0.8729124060746966 -0.784848523256229
Ni 5.071555558605115 2.951413647664952 1.2172190642861616 -0.12309104962592995 0.3502328444168871 0.1990401514587346
Ni 9.23675480113429 7.192891639282216 7.889948880417967 2.669959506734176 1.5886064818224512 -1.0276689051247074
Ni 5.785539461477223 4.562394908442118 2.989841844657 1.6841031667698803 0.33989238172282754 0.09775617040556712
Ni 4.812143011797406 0.8010148081575041 3.284201907673127 0.2215087648748959 -1.416885329893644 0.15630893113879532
Ni 4.5546374337168976 4.269647437427344 11.662069102631223 0.6947364996594808 0.4852455851810675 -0.058848180486459935
Ni 9.154366346415358 1.5769983374880432 5.298846790915159 -2.4300789242203114 -0.16425852500317517 -2.378440116998097
Ni 8.737767736559618 2.8094000202668474 7.0676213824515415 -0.13454274310629732 -0.5011350027178143 1.06631952761737
Ni 6.702504448239443 1.0534150791843613 10.618341609723643 1.254687544074239 -0.14229770446136783 -0.6273373442792164
Ni 8.986766012405667 2.9474423390049043 11.405062483843901 1.9034452630107603 -0.6947740377656356 -0.43812214933070354
Ni 5.570718508644916 7.798937409342779 13.089862874336253 -0.0776138911297373 -0.6446110437579995 3.0345918144058444
P 3.443698550305183 5.95102916990535 4.616978648262871 -0.734732066215812 -0.18783554099216684 2.495404484900999
Ni 4.520904452930854 4.78661184796428 6.920522813685224 2.848122043412953 -1.0324498714531187 -2.043643404630622
P 2.500850628779577 8.250620540927141 12.055470271062223 -1.019373754995451 -0.22680163784271906 0.15922121968958383
Ni 0.959964354421708 4.261112363803653 5.71742179797118 -1.521900495854469 -0.46836989247165145 -0.5304736037809316
P 4.518877141516984 5.876092704630097 0.18783827105536896 0.1956825478404114 -0.5818642995480817 -0.15497529992903633
P 6.910826895991672 6.381531988636127 3.161924480888591 -1.1734558536862565 1.3403101644410658 -1.9915495121488607
P 0.7500996688541789 7.900247437257835 1.723576655562766 0.6348542214815518 -0.20130195090971784 0.5745659661144555
Ni 7.284240995593049 0.2896333725689936 7.450468497261751 -1.3889888605936918 -0.3168612109349769 -0.6232750012843846
