# total energy = -340864.8345711194 ev
CRYSTAL
PRIMVEC
9.27823503998426 0.00000000000000 0.00000000000000

0.00000000000000 9.27823503998426 0.00000000000000

0.00000000000000 0.00000000000000 13.57963483938601

PRIMCOORD
 96 1
Ni 7.875217346895142 0.21201230700063556 10.52731265505974 0.6757604727776104 -1.3195467066414694 0.5037151047401648
Ni 6.497779869159103 1.885532178332035 4.778347580157984 -1.2759243419658284 -0.9269405394646939 0.6373839298819409
Ni 0.7450005118824329 3.6167394752679702 12.374577681294737 -0.8702343450219012 0.2819875389862434 -0.835881064353012
Ni 4.5303023200286345 0.2388022825037377 5.585262681473731 0.1202630932588316 0.26394173722812614 -0.7371735857777691
Ni 3.0342333306272007 2.6786356991483986 13.014016003217693 -0.2754361110209708 0.9037476462879983 0.5527894936693124
Ni 7.767023849512835 1.2502699899458063 2.9213051499660843 2.124952999444392 0.7259386362938981 1.0422969394505275
Ni 7.764101205513571 3.841532550868565 7.995607084077556 1.1888138241995654 1.3771070215544414 -0.6951373346423255
Ni 4.119573416665289 2.505290436169782 4.125697051711368 -2.4072603836638993 -1.012378040403908 1.5752897101088872
Ni 4.974340086748681 1.4391748528824133 12.912140983814748 -0.4054907364489274 -0.6295754895811156 -0.9315430712337118
Ni 2.0695195767619423 8.845145468784485 4.773635164642979 -0.05052089156768719 -1.0900268985366388 2.9312069849595903
Ni 0.4428056171228959 6.251229332675093 4.472411701079388 -0.6664890747780134 -0.2392275223108977 -0.8921630267741925
Ni 6.15169242847156 7.235529440452884 0.24177410114806946 2.7960847152007395 -1.269853196071084 -1.089655117019517
Ni 0.7621671021282733 6.220193636873376 12.81742319482778 0.8673829916160353 0.9431675428465176 2.1817823497286097
Ni 0.0454327329244442 8.151319061593941 5.968493680009709 -1.3071439621017422 -0.5493246750491636 0.09590754723260256
Ni 1.8081516991134048 2.7031302393327135 2.5288135451581506 1.0787448978649163 0.09331099015001994 0.5720617116353632
Ni 9.231834465474513 1.3253773016094523 12.015192674322284 1.4909762954717871 0.4805093560476628 0.22825302557726493
Ni 7.209253479164256 7.314747010185338 7.7123230877285 1.3142826300290527 0.40086249364829674 0.4238301581880637
Ni 3.701004404795979 4.4880770729154476 5.88928353286519 1.0163866473426688 -1.4034811406725958 0.017443392287428024
Ni 4.528650794213177 2.153765949820115 7.219938294496171 -0.9494834577622163 0.031217049032752686 -0.7252835192084025
Ni 5.633326721821005 3.326581234667945 2.829330007220967 1.097557402585729 -0.3344095042313854 -2.474710446886758
Ni 2.6211199208898512 5.257400477636206 11.942270386981896 1.173660770608211 -0.5156097992952217 3.500719447810539
Ni 1.8973619278528686 6.929152845215669 10.341136521012608 -2.092887486368415 0.9225385537422564 0.777578471957377
Ni 6.048295778542015 7.6634787478245965 10.118348471977857 0.597414588577855 -0.6268655468491203 -0.5846254072329867
Ni 6.900325369324508 8.450829762991615 2.2811477648369602 0.14705270264784998 -1.7751446441594332 -2.0884811297706034
P 5.2485583197590655 6.474834794206146 8.20317233308185 -0.051165981350853824 -0.14689869356848895 0.6733418360337887
P 8.739447816595202 2.82918433893275 10.548619193726127 1.131679798190735 0.7833441707965606 0.18101980362191405
P 5.984869764640509 3.847758246498745 5.406989747930004 -1.0738885982138795 0.9441522753572901 0.049288047601850606
P 2.4487859855173295 4.830369715521406 10.06616211185638 -1.6889023879307365 -1.7374327314309561 -3.0532649653353157
P 2.1180633018544928 3.8795176446240887 4.563585204327564 0.5444475494625204 0.703972416435452 -1.8236161093972594
P 1.1610504829714243 1.9808103727080673 0.0860528453967657 -0.7534106164619219 -0.4605010312465359 1.5064008575569736
P 7.044954495230983 9.155808608553956 6.5065329559810285 -0.10163339397278624 0.8361242907120698 1.364173858432541
P 0.4234929711404525 8.956818304261157 3.4409707373286933 -0.34285789210905465 -0.05847562763838962 -0.4635290194395824
Ni 5.700278464991465 0.6819465552011515 10.186627002741634 -0.6853874543444132 0.22155581606274746 0.30100598907027515
Ni 0.9582282676573658 1.7546162836348085 9.224700430645832 -0.6514146969433943 -2.344143657709073 0.8581756140851543
Ni 3.2102228905575325 8.825447776052933 12.135575916740253 -0.5189532618461579 -0.2338618871236101 -0.4499006300228703
Ni 6.5290753555385335 6.175333371043392 5.815573523380239 -0.008127514203140842 -0.769690584568868 -1.108651712726678
Ni 4.751634614004704 8.680150617232341 0.8282596807452982 -1.6282492930250536 2.843233347862084 -0.5356245518542517
Ni 6.7420665163230495 3.50266357694746 10.220087101327502 -0.548653617124068 -0.17750227738695884 -0.4796716906377159
Ni 2.542097194090682 5.775942470750209 2.9259498343661856 -0.49093877891110294 -2.2331810159155605 0.6467738557372733
Ni 4.085095495708883 7.362975275290666 2.4793828208074107 0.7870265047441541 0.010100578769111636 1.2707818785329403
Ni 1.525740784670161 7.675215714996247 7.7869562815878215 -0.2542497067513428 0.049227883787876514 1.0519007810888787
Ni 6.8424291834343105 8.774862839278356 4.495809553896359 -0.017671192027517952 -0.6858476818102833 0.6466707545005056
Ni 8.174839387111835 3.302077416248712 5.536743079791968 0.504091514242977 1.2763007514686406 1.3511717897459181
Ni 3.6798221944774983 7.743169507537883 9.409016278591848 1.752243056970911 0.675393833466811 -0.9767345801686854
Ni 1.146919731190852 0.7355218670898966 6.932525483608472 -0.07571744543797282 0.23226806027392902 -0.6201873634979964
Ni 7.146393437592767 1.9873608065603874 12.013400119336069 -1.5910924814690985 0.4350188278150315 0.5424680571386463
Ni 5.458218594207912 4.295665037179723 7.572004629765068 0.6162507474477517 0.7865148552150583 0.6940600424177467
Ni 0.7567996432280363 3.9770504500852684 8.908878592261786 -1.2296894793680047 1.3883316866256672 0.02696007352861163
Ni 8.999266229012383 1.1185097758710145 5.1783220814275275 -0.5188786998544805 -0.2263177562277651 -1.647420723747182
Ni 2.841255322561459 0.43131730664705564 2.995993085411423 0.6731400044356278 0.23169547559991063 -1.7879055433695272
Ni 2.2513729811606407 6.188193004640157 6.087953738053308 -2.2834823352732734 0.263835550667565 -1.1046580181862522
Ni 3.023823151048867 0.40620947513464145 7.997929426277607 1.1410141882177833 0.11056283525193215 0.7980331402673031
Ni 3.535109564456758 1.523309887121566 10.99958594628316 -1.1515935063955265 -0.4519125182465766 -1.868931288394291
Ni 9.127407931469037 0.3107754064119817 1.1480748714381805 0.20774822075569382 -0.5101752585432117 0.06473240718137883
Ni 5.322895537924492 9.00807127394985 7.988925827112888 1.1948502602016324 0.14047324965811936 -0.0936524326498387
Ni 7.883317245978819 7.233302664072492 11.89524365329849 -0.627032668554604 -0.07117173504881937 -0.19381515561436943
P 2.990588513571513 6.554228650402046 0.3383651657650414 0.32109710339319536 0.5409768173051006 -0.34356777369188574
P 7.060625434007993 6.665762312354942 3.641433497503028 -0.27692220864819406 0.3492432268101082 -0.6622606385189627
P 6.17403441815483 5.238686277805994 11.502752048490555 1.3375444287704705 0.6217343962701422 0.7659558001167841
P 3.763094352869249 7.264087847531415 4.872019712069658 -0.3337281618936446 -0.7966131199913249 -5.451452954384302
P 4.987839918554809 2.469142432928082 9.415615887089235 -1.4034400030220153 0.7210067462099196 -0.5465815650863877
P 9.242513713865478 3.1733047938176133 3.7068060850903923 -0.011184041641277512 -0.7399190097333903 -0.15497915658377825
P 6.1411337971345334 9.032723544127776 12.160970445711646 0.23483607811142138 -1.018284378586014 0.1199303925097612
P 3.7841095549592003 4.20551770671351 1.512743833196605 0.6039025102950438 -1.0405809852006853 1.37830387007602
Ni 3.973728841984517 1.7613893951251682 1.4327190570262596 0.44515205959429144 0.9442286371211802 1.0708852926111816
Ni 6.817183106221614 1.3439987190904823 0.7690469133201934 0.03547376742657762 -2.1502691096116777 0.46991178303747455
Ni 0.7160366459379729 8.580966285955704 12.472079868580684 0.07611699486923666 -1.0392530104178812 -0.40095402492083854
Ni 7.523525852316945 4.590842802870548 3.5566833162887916 0.41715197483693967 0.1869017163239878 0.18082671377450146
Ni 4.782169285120832 4.972799899752244 13.352094471523756 -0.04838584750255538 0.757483758090031 0.08613838366098069
Ni 2.833777065217309 2.986255577864666 8.950010863301598 2.1731552701812316 0.06384923324547713 -0.45458158043830743
Ni 2.18808614078291 0.1575193776784705 0.5314842030015408 1.5841764710755557 1.6080342515297597 0.005498047000093757
Ni 1.3536944745801067 3.885650557905086 6.536203823426264 -0.7924507610835191 -0.3380769257806436 0.7539109531371081
Ni 1.7819314072342864 7.673712640939482 1.7906919166441462 -1.4176324924723134 -0.1423619820404 0.6642810113831011
Ni 6.631803972553961 1.899597982468179 7.927845350998729 1.3440884005365756 -1.8272135969405305 0.19203440956486284
Ni 1.7577801617419493 4.407838897341981 0.6806652309589342 0.3645824282703398 0.7143635298617892 1.0870562459440891
Ni 8.683555729447356 9.217889278392308 8.454708065187464 -0.252902448694829 -0.556035768520752 -1.3456539452514826
Ni 3.1836129128118458 5.257465425280634 8.074573213643724 0.11736597421669463 1.0161454778661403 0.5343567408854216
Ni 8.129942008342177 5.107028124315303 13.467304170151284 -1.3624813012214663 -0.1306583204502266 0.16693015829806734
Ni 8.94134220841743 2.9479457458870018 1.5679994334290543 -0.17155120200984647 0.6385846350582615 -0.7894171164635179
Ni 4.558526710650106 3.5136768417954833 11.517336505958633 1.2455822393388611 -0.26547411471225246 -0.8903069474020602
Ni 0.18774693921880312 5.766803409355683 1.9662500386507773 -0.6505775457540796 0.21538491136534518 -0.29056088247755124
Ni 4.781538365146387 5.276420859218723 3.990335026841292 0.6212029492467044 0.9826784564569463 0.343656219640634
Ni 4.678336558150126 7.09881464893172 11.947688876174185 0.10731527484891197 0.5128075539597362 1.5532882661371314
Ni 7.279498995730712 5.606549735846788 9.377321828110931 0.0157174107352568 1.031550756677617 0.857155400350756
Ni 3.9538826974942713 7.533555624263629 6.737916361844093 0.6310872982399518 0.5251398502728439 4.772032259146284
Ni 5.804602938412841 5.598236437359992 1.8868227808091702 0.7262913916476266 -0.2013088928882533 0.10308246771448698
Ni 4.403014215184465 5.5821572562465755 10.365050243691035 0.7976654725152391 0.059089607073304684 -2.7577233418137217
Ni 0.1689585135092437 5.343103533576552 10.891477808662103 -1.0173752365081836 -0.8890447928601849 -1.7917603983392434
P 8.896769567869912 2.1277126661695256 7.370319926051994 -0.1180707135932031 0.27955887494009274 0.09611580658866672
P 8.988911718843559 6.036067064919694 6.522814402615663 0.14185624604857505 -0.454504704453785 0.7125308475284244
P 8.89580463143841 7.244789118901349 9.883909743356195 -0.6937558809137664 0.8972409555177321 -0.6967941535194581
P 2.0766267047093607 9.193450407617503 9.943511268824377 0.38383124919762285 0.3008375818132109 0.8471995746896248
P 2.8230514256517525 1.7333876821417358 5.979846528255742 0.15533371170971957 -0.5014237376028268 -0.508814373639943
P 7.142589361276264 3.260631540868662 0.402449934345746 -0.514738709544178 2.3487557025597874 -0.8318632014428706
P 5.678298326470011 0.9084180634984672 2.6248887399136653 -1.823619194721053 0.5039822423586223 0.8289138890065594
P 8.659042632793206 7.47752436359201 0.4478279256841721 -0.6396745256883306 -0.28549400947760506 0.5222776982337005
