# total energy = -340862.43478611484 ev
CRYSTAL
PRIMVEC
9.30779313950057 0.00000000000000 0.00000000000000
0.00000000000000 9.30779313950057 0.00000000000000
0.00000000000000 0.00000000000000 13.62289610580832
PRIMCOORD
 96 1
Ni 3.106382892431629 0.1717250608623677 3.1616423297003937 1.9345322142235521 -0.6501592272697384 2.373592559097809
Ni 3.411957742190515 2.74662737863234 2.7349870524944033 -1.1633858710447642 -1.0207999459190162 -1.033364412847588
Ni 5.710498649843796 0.9423768272521507 1.6751533216760837 -0.13719432179653146 -0.0875360353394557 0.6197808720881972
Ni 2.878583962398155 8.253639054201729 6.082990947816405 -0.5647548935613048 -0.2426028665410338 -0.2868500092848673
Ni 0.7671390052475654 9.481476590173198 7.261589327141225 -0.8823516971107255 -1.0832556412510763 -0.2871801389307764
Ni 4.036129044352595 0.3319214891048342 12.105319284429076 0.22038082191803982 -0.5833956485909436 2.197056502278861
Ni 8.991188584963048 7.80656713267816 0.7567301001459704 -1.4275242976647284 -0.487111948965845 -0.7575248957406115
Ni 6.309203829893774 4.494305163127531 0.3672529411974249 0.29670736169492123 0.3929193275418201 0.3220787505801743
Ni 6.403733777324515 9.015053766649974 5.415400652076644 -0.5330814737174239 -2.80994630367418 1.6800071423236358
Ni 4.722606713992165 2.411677133630109 11.673282241212407 0.740802183669292 1.2051447001491051 -1.0414068235360903
Ni 4.739574820940397 6.195350903842885 0.2962940491894493 -0.16399472981882723 -0.5456315424682926 0.5912560251756269
Ni 4.611555433685333 2.680514123748473 0.36371225667569845 0.8597095342311776 0.021419860436672787 0.9505944314382082
Ni 8.714356200511974 3.9687592373908283 0.35812385765665383 -0.6135983974265691 -1.8921308664392054 -0.04935001118803759
Ni 7.985528071950597 9.350422862344839 12.878023419212761 0.05673190547440552 1.2800108533303762 -0.329198135233775
Ni 2.4957451215381883 4.883817691690121 8.199157748441946 0.3773263581995695 0.09186114507737082 -0.9901233427707659
Ni 7.3734289775295245 1.2069415403056554 4.2990593089255125 0.10440324340843955 3.317224186064938 -2.3520369444142197
Ni 1.25235426318027 3.80510031008926 1.919384229771219 -0.19618288451559762 -0.6559863754744768 0.569238383253955
Ni 4.6481536764283105 8.635575039124243 7.55540843412687 2.005385389590688 -0.3611592615214038 -0.33696800898718093
Ni 3.816251046306474 5.092786956141437 10.174082510835651 1.0018195481617715 -0.3010885214817524 1.1224335970021186
Ni 1.47050101169684 0.09849506732100288 1.6909691238299154 -2.3198832424998113 0.43321159940296355 -0.5417419776058993
Ni 0.4806134849896405 5.072914817724282 9.197552598106185 2.8278026151293107 1.3745024940520587 1.883947559297465
Ni 2.4925339328946663 3.2329130327795514 13.541145043451783 -0.4087871478120121 -1.4847459982913593 0.20532238492302057
Ni 6.3841501804956176 3.4450376391153723 6.453383407649945 0.2652661124665045 -0.6403196154714973 -0.17022888365399716
Ni 7.827128047789868 5.99682498332789 9.625379726472232 0.5357194255609032 1.7742190470213701 1.193003693911197
P 7.8601148667830305 0.6684112430973218 6.878568053535134 0.7935190544470334 0.0232348021582245 -0.5718449676388668
P 5.051348660950254 4.470486520406452 12.09206405617621 0.09753454131306429 1.4157375894424455 0.8255359736732621
P 6.14593582990533 0.669630564002543 11.82841988386718 0.3810685988508211 0.697881730156682 -0.7549136833700095
P 1.6585649726891725 6.938010413054329 7.8494853669833144 1.3573835749835848 0.15632744308155658 -1.7185263814447564
P 2.652963055966374 5.174816537345368 1.2856203159685202 3.380751774304939 1.304603712178392 1.0659824559929254
P 6.552770161556598 7.44507106155615 1.3732289883983264 0.8966550011072753 -0.689925965644715 1.801407177400388
P 2.3119813609902238 3.155360500090212 9.50160190056457 0.19643588106666815 -0.7188251651775684 -0.7130155004743268
P 8.293634641451622 5.923702960187294 13.197698644844316 -0.11616526904037412 -0.08613118457212908 0.9189526361632109
Ni 7.255452699104489 2.055560966960144 10.485556639905447 0.49520501038662457 -0.6168464720502216 0.7718536536584578
Ni 2.5461933605175715 8.468118532209466 10.8524214461277 -3.073226238948591 1.6403494187226977 -0.3592548454098394
Ni 1.079033846568628 0.11093958678879545 12.931861556464522 0.33185896989538977 0.8323463117268761 -0.5811366773534379
Ni 6.98252027999149 2.367483731660715 13.197208124144275 0.17525230501051756 -1.0344985264520312 -0.29585426966600664
Ni 8.94632502188544 9.146107494478334 4.951908852622534 1.343761099104144 -1.629884771745948 1.9815108969659359
Ni 1.2541134360893296 5.123269978771969 13.428183803986544 -1.5008794135181118 1.468234373789581 -1.7120842253638386
Ni 1.7016135160987018 0.8319016993425196 4.856099083630968 1.289671773458908 0.6707460502821545 1.344899326473645
Ni 6.468674250269009 1.3249829732828768 8.320034335218637 0.10821824627915556 0.22883666599487684 -0.39925915371691884
Ni 4.374132245514464 1.7966088531879247 9.314069414562223 -0.6904764388315463 1.0615303337588426 0.32283156958579884
Ni 5.857422165026373 8.381528132352416 -0.3557848092331263 -0.4840006570303728 -0.16230782903470756 0.19695035880924147
Ni 2.0526848588707285 7.335099485256996 13.413185226073008 -1.8995022192026123 -0.3729961062553318 -0.39361146851283824
Ni 2.6893658350527887 1.498573315896438 7.100757176625273 1.8943875236838665 -0.5346999831574533 -1.0455424429710187
Ni 5.174890999690725 2.29330992789195 4.075357669445308 0.9286919749381619 0.30147675805910656 -0.3779789041819039
Ni 0.8262918923991849 2.5392683623993686 7.159935194818451 -1.5836735632972079 1.0714694472494257 1.8123883590022398
Ni 1.2993772342732304 6.893723933153239 2.1011412301118115 0.9907306373374615 -1.0583573353474998 1.7040343584761688
Ni 3.847394922252049 7.235105863235684 3.6172736978227524 -0.8774748286343984 -0.12865903063201067 0.5979388365124413
Ni 3.403859962132939 7.26193092315055 9.257943421749365 0.5546692271905286 -1.0195491042310505 -1.857582181930059
Ni 8.163306921490491 6.565251912197069 5.208265022879744 0.14597669597485183 -0.6350668517129902 -0.1592988670050547
Ni 3.9243331405921937 7.388414524532625 12.149593664199044 0.14448417058972537 -1.5977452108989258 -0.8180424935096943
Ni 4.884143464451058 4.99016853644629 5.085113611452397 -0.5907384621092601 0.6395637111420791 0.6890312217445875
Ni 8.146664587303196 5.525869264531057 1.9189895793408267 -0.9732088264036142 1.1344794724230591 0.23819599572258973
Ni 7.738676089298894 8.592312416471811 9.801673983001571 -1.8765008732114328 1.130488348985795 -0.3219530236355875
Ni 2.4307581096278463 1.7497254989925088 11.468680193316278 -0.44652091491736007 0.1841282673439087 -0.6873972856855903
Ni 1.0089833951740081 3.385132682275647 5.039122874621948 0.5304502067421638 0.8468625030651802 -0.6030473613836002
P 5.4982065032309215 3.4853962302988792 8.456031431999387 2.298616619811551 0.6427235969272996 1.8499051250007754
P 0.2977898115518085 1.420266851960358 3.4651741188585454 -0.9394106469072466 -1.080885855467319 -0.5624763819397732
P 0.2508924956666381 1.8538331655947973 0.5807411392325962 0.30404631855849573 0.5640051598794739 -0.8272259597811754
P 8.564202881099536 4.114640279738406 10.721818215488748 -0.17920126235593653 -0.05646142542183825 2.0326825347437443
P 1.8197107958349412 6.277715565600922 11.426939394847082 0.46600807710769426 0.8346171100389239 -0.3116161604859536
P 5.104505467741999 7.237609659598313 5.656335670610415 -1.095625475670339 -1.2411406586277398 0.12067241288210831
P 5.2843971863313985 9.207874009951986 3.582167494324867 0.0165069965160877 0.2969243628017338 -0.16229471640858503
P 0.007829715614291025 0.30041088610837574 11.024233069466543 -1.1438714551609204 -1.0603676809093092 1.4640666155651365
Ni 6.407522049144554 4.3942556943471995 10.349791307174621 -1.3662477102424342 -1.4266105276012075 -0.10128423816348361
Ni 8.166611188065708 0.7066979195212694 1.6720193877158698 0.020919009540854294 -0.23692072855459198 0.9721071086990033
Ni 8.236382405665239 7.838827943804091 3.269045885864047 -0.321760190898491 -0.3401705750848787 -2.226978486649274
Ni 2.8258925452648915 4.703386121096883 3.8701962231796867 -1.9124556940394872 1.5705686504841339 -2.321104259391106
Ni 3.688845973400607 8.225892522763068 0.910495774087541 0.9939643137834108 1.2020956289101363 1.237885642025552
Ni 0.4191578498078551 7.70551242223551 9.296046734647872 0.7929246153961441 0.14121912668520842 0.7569857354076899
Ni 4.7367173284373205 5.697700434235557 7.516365034118232 0.7967450175834988 1.271530583773507 0.541113599993281
Ni 1.0851490666810735 1.1082882405007686 9.555031425696185 1.0430070781436747 0.868288277039124 -2.174503813789326
Ni 2.638731440210013 5.797991905638298 5.778342223477897 -0.5282984505064837 0.9188798739437465 1.7976464248063753
Ni 1.9842911946603023 4.056066337321938 11.375472883294941 0.0852536670631822 1.7309784911651802 -0.5943009826495378
Ni 5.909862271744056 6.631234857976562 11.41681810055443 0.8733116983956443 -0.584172121745652 -0.3477717844709043
Ni 5.103630535184053 8.936384298780277 10.048070814567277 0.8604338139917116 -0.5661191208986831 0.15193779865429316
Ni 7.226766080555697 5.576112732060707 7.451342652593845 -0.317167429321486 -0.33307458747004576 -0.8585080577239086
Ni 6.085835409409042 6.552258232932268 3.529624071103 0.7595041309541694 1.2572388497411833 -0.5430804939116647
Ni 8.806866356824905 3.3065842157171565 3.256240224021273 -3.0725227851236636 -0.04892526494579316 -0.8240133663811485
Ni 0.34564583013345057 5.438329469770705 6.952690664441466 -0.09024340696828974 -0.01577191812227606 -1.220070468221002
Ni 4.039870777206786 3.4742454940816647 7.061046407846373 -1.5362575359070898 0.45523412642064176 -0.3503706555463321
Ni 8.11402215665731 7.909185552373308 7.131041012481974 0.2530361460592158 -0.7806252292035007 1.1359743118010306
Ni 4.686995097325168 4.720884772255784 2.482690941617785 0.34490191912227697 0.7852354742820025 -0.5469636310161549
Ni 6.985145077665324 4.5788199251077515 4.359545072059023 1.3055012842919969 -1.144036777094191 -0.4608224191416967
Ni 4.945342204541361 1.476430075945893 6.224478711787918 0.13166516444818613 -0.8060920060160376 0.3004606580897664
Ni 8.376501924040818 3.5128821435287905 8.806426098207982 -2.5424430743470405 -2.5604289694015 -3.169494769065038
Ni 0.2812526554273306 2.75638194587411 12.09747281478708 -1.2268031589591453 -1.190132285900673 0.30487704198990717
Ni 8.629841438531752 7.368132843216006 11.680489265463649 0.7301189929238329 -0.49290207328506086 -0.10738160931047312
P 3.1125260359235836 9.53546179055704 8.663330878356073 -0.9940440179814106 -1.8606001428207763 1.5796474728569505
P 6.003936137309486 6.95098547673279 9.215139673300197 -1.4492868861528008 0.7323167719061 -0.7756015507366643
P 0.055088173874442974 5.32713857256633 3.680838478936776 0.6930719674728645 0.6300992232950697 1.0105096197366017
P 1.6365799652225115 7.841676128513997 4.227906814819609 0.18591852647511206 0.3994028783836347 0.07437507247746546
P 3.3930629220561697 1.0284925296575484 1.3269096864689898 0.7627982283244089 1.6545938444568535 -2.4380768548241236
P 6.339100461554619 3.316459784270132 2.284300914883067 0.706489783540667 -0.6694486716269696 0.02874441912254404
P 8.486482808133143 3.6744654329535313 6.3664290730799635 -0.3417217216220824 0.8819529190104101 -0.5526370272518482
P 3.303484720591671 3.162034187792835 5.119279727840149 -0.1075685285102986 -1.9104656601926517 -0.3165218253176872
