# total energy = -340863.00721417373 ev
CRYSTAL
PRIMVEC
9.24479603771830 0.00000000000000 0.00000000000000
0.00000000000000 9.24479603771830 0.00000000000000
0.00000000000000 0.00000000000000 13.53069347950638
PRIMCOORD
 96 1
Ni 7.0215244146369225 0.7172593629512786 13.078835998590206 2.1749727830059444 -1.717261912910036 1.2387793574844148
Ni 8.846493410571677 1.0403169175681364 7.473435014356179 -0.6426053261818805 0.7856476221187566 1.0298998513377553
Ni 1.5072438397721162 4.582469830419367 3.928839626346132 -0.0191266935271219 2.7828106237996524 0.7178077796566477
Ni 6.346330723402684 8.164282919013665 2.403227300983363 -0.1304433762259431 1.2641312059856422 -0.8789221026038864
Ni 0.63138722439076 7.979109650917248 7.271313261367043 0.2275961087195564 1.5827423097321904 1.5123678737736856
Ni 1.5685460834439755 4.663528203593076 9.601637023913986 -1.9301327996042759 1.1995252970797987 -0.3631976321076713
Ni 4.578217224162535 3.3555559461383964 11.963501257692306 -1.2139229605623674 0.8001900387093058 -0.7015303826528627
Ni 3.7840430056990964 7.362389295714455 13.017460721028284 -1.6869833165311527 -2.685291766215872 1.5883953942529097
Ni 3.789478945870873 1.3697552305294847 10.547040392227728 0.18059248627650834 1.5556135718361983 -1.70326585574126
Ni 4.068625567447074 5.9459201099332875 3.493137927822754 -1.5905767181749446 0.09374627791522565 -1.0719019068011542
Ni 8.22605664729226 2.9698815378285457 12.638303894046839 -2.238652323442777 -0.8047889709338978 1.1044073356280268
Ni 2.6390934846204632 4.688359726214492 6.538220335946033 -2.4704197899312033 0.8807804959688638 0.741840138015503
Ni 2.0615987997388427 5.386332595311415 0.3864787055801648 -1.0458910845596892 0.7365148691478477 -0.010539980299375397
Ni 4.876343412358902 0.9687991740836691 13.03207397039823 -0.9190372254572173 0.8558744767558034 -1.1024252722009917
Ni 1.0490070260060111 8.535221122163971 4.173339525164223 -0.573442908253606 0.0017113262641518913 -0.7298521124156914
Ni 6.624608334135097 5.5406652232495865 12.90719896110521 0.8179159952341591 0.4831892168726711 1.0247820704952157
Ni 6.869650902490745 4.056977124221837 11.043617224838039 1.2451122416809781 1.2180619224314053 -0.31338945033629256
Ni 6.992717629644988 0.3621778342612311 4.4502720180480075 1.1284988293595921 0.14044779573682264 1.3409794225939486
Ni 3.047168034148368 6.416988700839574 10.506949408981251 -0.4762644647283798 0.9534164742680353 -0.5343958216534733
Ni 7.05279031542085 1.1036160372214645 2.044014272866841 -0.1297098404940282 -0.6746060474581931 -0.5847812160845607
Ni 1.661336103008815 0.48863277922662485 1.9702315543108 -0.02218142119304567 1.0096616699140095 0.6195713271805523
Ni 2.069891381939666 2.4866375503130245 0.23311215884599076 2.14066835329712 0.9948963386793769 -1.5927858100111214
Ni 3.2082586081164193 8.30347257075903 3.4953973560166016 1.7440744051171897 -1.584209124085704 -0.2428869734403559
Ni 5.255333833008558 6.645575531940522 1.4208040707242726 -0.966414172079284 -2.0339788849576648 -1.3759230285486692
P 0.4222911971404193 3.588108794813652 7.70587877443615 0.12428147038960533 -0.4702372846976934 0.3228063727748182
P 0.29662853121026594 3.519346000599915 0.7178316158367087 -0.30999225172928546 0.40592962375855896 1.2258017142778244
P 8.724693220498272 9.080812015323138 1.78614639872836 0.8842090620344385 0.16187742636550834 -0.3383998563377011
P 2.550824170402561 3.07446791735799 10.502902961679913 0.2821878279225076 -0.8008343571615241 2.13657001485803
P -0.22415210235876926 5.75507053696362 11.718920004667561 -0.37481413330067703 -0.6733153536712275 0.04953461639501792
P 0.11292795915018267 6.054712871738511 4.9171758282614615 -0.5278683049476005 -0.3931851796086971 -1.0243750648647842
P 5.160472979092566 0.3377549316323188 3.4958438796735685 -2.0760989540561665 0.9272470149615193 -0.9694339327422143
P 1.3069183506866817 2.5791132468067066 3.9113447739973726 1.127141544000749 -1.2422210361761121 3.3541956210829653
Ni 2.523136005752098 3.027966592419149 2.2591656416350627 0.6353892680494153 0.6497985014962099 1.6670526390454967
Ni 6.369747792203893 8.982807930695573 10.559651218738479 1.2171823480399295 0.5376217847899387 0.30765820427947016
Ni 8.311108772428907 7.791273881512207 5.710520788504818 -1.0046611313756246 0.2622646066360193 0.6759558766178682
Ni 5.344490647662669 5.750642279578789 10.827748459883884 -4.31344052910732 0.16377361494695666 2.129251626819746
Ni 1.1982550160284051 1.3909905274250152 11.009831192607129 0.01676976325917112 -0.47088751668718254 0.007154094546278002
Ni 9.106984033395078 5.80886600611255 0.4042712403669028 -2.749612282670813 -0.9465462295107633 -1.3586465008564084
Ni 8.182439698771097 4.385250592860662 5.858330288236857 1.3803882634088742 1.6461032904873392 -1.6765834613540673
Ni 6.215988341630773 1.900988955173738 11.114517415935646 0.1331260652644288 0.29820220107289286 0.013173818377796666
Ni 1.6524056298694672 8.284566962508546 11.721220109964735 2.7700708076354807 1.1059605390477598 -0.17632239814624476
Ni 8.98915910569219 2.236787687927914 2.8082418229655906 -1.0126711461642945 -1.3999168203601051 -1.5956052817377875
Ni 3.9161049195661612 0.26625752669951464 7.973245676680925 0.8115242327752022 -0.21901170948465506 -0.16908397141627654
Ni 4.332296400166889 7.816771029460779 6.039018905691558 -1.6921700029384148 0.5822695054063004 0.027131308999153277
Ni 6.2425209067549225 5.72155815070054 7.11254405572745 0.5779623933905143 0.05457449281177053 0.6733912012144855
Ni 7.328950867821058 3.3912131251223143 1.7254071631457204 -1.1827066828605632 1.2019606459941687 -1.8291609504748885
Ni 8.696783180738757 2.9081262991423715 9.814218339335685 0.30663927609665254 -0.7967023372710215 -0.5384352818301694
Ni 8.232740634952455 7.642460396911706 3.4168923955562343 0.9906527329116744 -1.2604121052628423 -0.7946043170914121
Ni 6.140837393235576 7.293497074353771 4.494368771492496 -0.5867169996546927 -0.3204779817519577 1.0160840285005854
Ni 7.262785861342473 6.895406904733211 10.73097670659118 1.491358104291238 0.19663077068629362 0.32608427219514163
Ni 0.4478114570795186 6.90271029373951 9.975720306735104 -0.4472490513326362 -0.7012056523235924 1.2247922991767035
Ni 8.849766068430196 7.92222641983401 12.157869400099692 -2.104971157005826 0.6066934427766196 1.0863160253439548
Ni 3.403425500916392 3.6971234317279276 4.676166764492457 2.0121836434594442 -1.4029964877266934 -1.244811679721424
Ni 6.268415580940546 0.7259087942858271 6.9735975421224214 1.3014980766698747 0.4034698493641568 1.2470917340048522
Ni 3.077980939917982 3.2487970394994834 8.549734527734843 0.34780983679769134 -0.39702332240786464 -2.3153491020748835
Ni 5.223226655769475 7.5673002037203 9.218271965697518 -0.3694492694443379 -0.3136833274276275 -0.9389020827019443
P 3.3853241899362225 5.190287446871445 12.238810364361525 0.15592840787092502 0.1659639377300561 -0.5574743007394916
P 2.1093481721661016 9.162804112914108 6.007628200158788 0.9516573254850836 0.24634253608912415 0.16639691150241664
P 4.7318380027924976 5.692917772040396 5.4504341632758155 -1.069303035725726 -0.5402597366334179 1.360815483483269
P 2.8284269110116074 6.9744221779443984 1.6607305688570269 1.2238062811143504 0.2464564359591691 1.169340545966302
P 5.81913697470242 7.738144037690433 12.610701706001134 1.6522091462747608 0.132468634186088 -0.09187837146855143
P 8.24127358185475 1.0847474081558237 11.36104654752194 1.7498709571943087 -0.9906262505491132 -0.9403508993333289
P 1.6414690359524395 6.461409946631051 8.346624506030803 2.014340284791131 -0.9884559823706718 -1.7431742619004236
P 6.311542555262553 7.8122595689100525 6.688735787528886 0.44220994624683196 1.0184270748114654 0.11182010469780096
Ni 2.9232045617617053 1.2392741768144162 3.8496986239064825 0.9623801112192264 0.39339009653065155 1.251060488844613
Ni 2.229373361367089 2.074966775059233 6.5227953934688045 -0.24690097969575542 0.7690154128787142 -1.846883307455316
Ni 6.12882840295813 4.896561781671277 3.928001123329839 1.0738387188125507 -0.2025877596006769 0.06748862977027732
Ni 0.7362148931012982 6.356157941774451 2.3762195533339936 0.9361638578351749 -0.09894402006608122 1.9440681787384453
Ni 3.9532782451286024 8.997118875229436 1.2329683013192307 0.24255915778729192 -0.9090037524806152 2.0769111655448165
Ni 8.706203628077262 5.783655446846502 7.893346600952015 -0.10077567395818127 -0.4916602304581597 0.26885485825902733
Ni 4.684698786915133 3.9119077820865917 6.79577758493184 1.6208074920350282 -1.4228891128855623 0.11010543599953941
Ni 0.44689437329543646 1.1653990102962701 13.466301123926032 -2.5196438170643383 -2.485561273558332 -0.8094727495628125
Ni 4.168173533041793 8.646001515154452 11.314853074296911 -0.0065650548120274035 -0.9724192406227835 -1.1924380512157142
Ni 1.0981985866421087 7.901305446009637 0.7523766458365032 -0.31903070778246995 0.6512673727322524 -1.858974434291895
Ni 3.6978260362399262 4.040632324521664 0.617569027494918 3.674609582366207 -0.09718384284186488 -0.3475023328596015
Ni -0.00018489592421010157 1.0195438604831315 5.2931395026317976 0.16512601520979303 1.3613135061656103 -1.0308380468813085
Ni 1.909974897090349 6.90307084079172 5.648861695699233 1.4364539960541907 -0.6289085454210782 -0.24465460686373994
Ni 1.8488575493427 1.160184945233545 8.479658972459214 -1.1793727333913238 -0.8773753269420567 2.0125842213319727
Ni 9.254873038374528 9.019287896542227 9.488548205309737 0.49846516919513506 1.945322362860521 1.8686088720578657
Ni 4.528683606066648 1.5196780906752456 5.802029479314881 -0.7668286896400407 0.3352793084308484 -0.8308417021568916
Ni 0.845923814210983 3.6124318536434905 11.81854655103007 1.9011186717601132 2.5083502464283898 -0.540531759347882
Ni 4.950847225019363 2.055266114334647 1.6531535338828969 -0.554088157876078 -0.19432423404030405 -0.09783098950756054
Ni 3.8563650464538775 5.999188625698218 8.114884274942451 -0.5245893770860127 -0.5121768623542727 -0.05103279820709922
Ni 8.47808828158305 4.58727712444883 3.34733085094991 0.17102875384747318 0.41384013685488724 0.6485664288613218
Ni 5.205753990931619 3.393857136838519 9.36835476081772 -1.6167724027337058 3.84226530597639 0.5591496315593854
Ni 6.001453600769792 2.4765422328511524 3.8840532111043404 -0.5498005862443177 0.29409229266957737 -0.19414065727458824
Ni 7.344158557587338 3.4861571822042015 7.644097650320587 -1.0689734203004493 -1.5241602384229234 2.468467037080207
Ni 7.537430267164158 8.15925374987515 8.401708699771477 -0.5882167241286708 -0.813571088001902 -0.6426840019386157
P 7.214269170829743 2.503620240951722 5.6289169723546895 0.035217428441397414 -1.7132561341847525 0.21799278130183747
P 2.8453356432806216 0.5810946085259914 13.182373093749757 -2.4887746382893075 -1.2477262822650577 -1.1975028673331312
P 6.643236598499264 5.46401661786829 9.349303084787111 1.0019573592912163 -1.2396617600893682 -3.643954062263879
P 6.138775803680634 2.8387625931749523 13.328667371382895 -0.14634487794754794 0.10282869983246806 0.7256689275722793
P 6.2121425064072024 1.8249967303233863 8.987005992654764 2.003603872210233 -3.6862973031167803 -1.8647180216438917
P 7.3542168958643686 5.8273555985335594 1.977537716755962 -0.3739592414995495 0.9354318647651567 -0.6667891225169355
P 2.6356081964491027 8.582314114060283 9.65939943511684 0.19132324243045112 0.6829526196506753 0.250665074723878
P 4.792807433800779 3.975521224811078 2.5136785792287513 -1.2463142324088794 0.3574962108475198 0.8817387461170749
