# total energy = -340887.96540756244 ev
CRYSTAL
PRIMVEC
9.08908747792575 0.00000000000000 0.00000000000000

0.00000000000000 9.08908747792575 0.00000000000000

0.00000000000000 0.00000000000000 13.30279826298474

PRIMCOORD
 96 1
Ni 6.399735510542286 1.8572822984059807 11.448680845019389 0.46420187713689093 0.35185855294576823 0.15501900868277818
Ni 4.968040640763616 0.3413134102129831 5.893272473281185 -1.652459057502038 0.47341928197010075 0.2829786992549191
Ni 2.9925365824875803 1.5885816074673778 5.121710750419877 -0.4152239045762913 -0.7435249819170937 -1.887284336980182
Ni 3.1243556171147344 4.166792140621798 4.584622942058125 1.030059259733755 1.3329529527450463 1.377468775769234
Ni 5.389756118156616 4.57523755040426 2.880161832544827 -1.999668284601253 0.6930310869326 0.3992437270979511
Ni 7.237385805739041 6.426066596753062 2.652152077007335 1.307071456992594 -1.957293419179468 -0.511495777126848
Ni 4.973512271381112 4.384639387532342 11.746517514541788 0.856733482321989 1.0157464426555087 0.017134345687441457
Ni 5.831685725937179 7.819750903006203 12.499149395065789 -0.38557857090603276 0.1640278970496078 -0.882966447876589
Ni 1.8573731892800256 6.458151075290871 0.5309953930745294 0.14924405387221393 1.40527731334107 -0.5632561975285912
Ni 2.8715608291339696 1.844357616116812 0.07400971200844847 -1.3338027023398513 0.07441543879709765 1.023340710062999
Ni 0.7659610272026693 0.06491789787774847 4.747130371397761 -0.15228001248506032 0.47275413758227613 0.8184669826416227
Ni 8.673707021006592 2.262301122236955 1.5701289422188054 0.3024182960367695 1.2441776456818507 -0.19158780894574748
Ni 6.986290677102914 0.7745665751572297 4.795658826867753 0.2442082633549407 0.2922302997601741 -0.5823816055041325
Ni 0.638817419136379 7.377912186099686 2.4747994412099636 0.05027612254673277 1.0912936810642044 -0.06736881636296138
Ni 7.58688848370346 3.9972806605282707 4.042507959452957 0.9079447150884815 -0.06312726747778806 -0.20983081431633538
Ni 7.446734755926398 3.594952206569022 12.857513933249573 0.654229283574054 -0.053520340515643305 -0.16365251598806008
Ni 7.930946798312595 8.961285746484297 6.918905091994849 0.554957962075541 -0.6657341988898599 -0.146650839223741
Ni 6.687214256058542 0.9460013061455447 0.45120593038557294 0.55800703331451 0.5835884813280401 -0.11088293759551227
Ni 1.9709686036612 6.294947421856052 9.16812883527424 0.029589026511026458 0.24425968541816645 -0.09319709027997498
Ni 9.019992162029824 4.875822759957775 1.2168733800650775 0.10583149121453385 -0.7347747465282893 0.7383802044913607
Ni 6.123981687777808 2.1429159591791276 7.0426339299232765 0.14296310595950862 -0.8971795061521773 -0.08901082011276928
Ni 3.0365095873504484 4.469667800201241 0.515163111724668 2.041883227406406 -0.6908325366193844 -1.0353009677486686
Ni 5.923521865072031 5.832558278328008 4.896826732040785 0.4442768560781896 -1.0828326947810447 -0.7661211220500548
Ni 5.483937241841824 2.7604467356142175 9.422956852107387 -0.7725254829145017 0.5109787282811136 -0.29884831929732397
P 0.3670191672103297 6.025601405711731 12.447960563712506 0.28902773366247647 -1.5551101498372186 -1.5937630863227261
P 4.094461183056957 6.182833528721807 12.70288219814592 -0.5222116208824555 0.2539676567345497 0.2171584583260002
P 2.250458041348919 8.598903831667734 1.2482189157969033 0.11772952820370047 -0.3202679226236807 0.4100243626532229
P 6.450379905560042 7.911350725868538 5.644324187089996 0.4151403437235496 -1.6463136067259323 -0.013751545258137607
P 4.7556650244705665 1.239224354901431 12.78860501709252 1.5249400540117413 -0.14670586083139253 -0.9889552906045934
P 4.243685820063687 6.074991506667668 8.549734595535725 0.12896627745978434 0.25068050134284575 -1.806369663611986
P 4.744594516011912 1.1261742857645254 3.6061226949891267 -0.14694111677065017 -1.1704430350018618 1.7402642873424803
P 9.176706207057848 5.647677151433507 3.5618379344282856 0.3011309446839136 -1.1669329649660742 0.27036743824881176
Ni 1.4657516802832529 0.9696238443097847 2.6905843741884325 0.024340376517577436 1.0440278060987052 -0.8925767172728433
Ni 1.8996374457108514 6.618209904483741 4.7444300035298905 -0.4455806624912778 -0.7888370755903318 0.47685607556579174
Ni 6.582217118362005 5.744285061455711 9.036377968802618 -2.0623867466763963 -0.07213409896208867 1.4516458733032807
Ni 8.74105715867378 2.1984957286575146 10.165997927602183 0.11398754466276496 1.44736164410563 0.5762328122939172
Ni 2.674454879680445 5.286376838018076 7.113431558442983 -1.4934561244708473 -0.09796314421005063 -0.9578218024245828
Ni 0.6677261705350639 0.11138313050692433 9.356470177743626 -0.11287502832487656 -0.5066459052337146 -1.9091777946191633
Ni 1.2626469331427725 0.7775168929287235 11.792132008589904 0.9704626311170448 0.8230558875638856 -0.35625848178567676
Ni 3.9743488930067707 7.135088127001634 1.545173034932328 0.5843143037504711 -0.801098152345872 0.031916389092622455
Ni 5.7812049344927035 7.914940915393308 7.836585710696778 -0.5706663739497332 -0.07572901540219862 0.6719971490804363
Ni 5.237859289452969 2.9975446696474477 4.815812060369704 -0.022089118589555506 -0.2465700787188979 0.4054580834387791
Ni 0.950164108176796 7.395581372013992 6.995742419094831 -0.5384010861581243 -0.36953642984150553 -0.27579015192627987
Ni 4.83887561965857 4.460342396524245 7.012782640160747 0.9682100876374421 0.40540511871365664 0.4495681863841161
Ni 8.248283195952563 7.212945249708398 8.617432845250503 0.9805159015879888 0.8066591913734172 1.273302330961949
Ni 4.7328695932601335 0.19770946485718188 10.577347300810375 -0.04413555686663367 0.7546987391457262 -0.6258815856692963
Ni 8.444062138645034 7.417749656193515 4.65318556398507 -1.3239165535743909 -0.39195027876033145 0.49909406102838555
Ni 7.50589562584215 6.048496816883612 6.686664366270572 -0.9195658442671776 0.4640159863783299 0.9240812156390279
Ni 2.076392928465748 5.146059506667735 2.5233278966799566 -0.11282154937912182 0.34995953615084247 1.0584018154321901
Ni 2.2445046890989855 5.461878026711155 11.399220758090438 1.5124828020849952 -0.08174771079245277 0.7195101070597351
Ni 1.1869530132382744 3.2590740706239174 3.8002101585156236 -1.3312539677760686 -0.053404640873385444 0.07636073544892656
Ni 3.517249598348134 2.6367715233014763 2.698938154421889 1.0285667343486284 0.6448342155123992 0.3256597830632133
Ni 1.2205917257222498 3.276243356730977 8.442580617398104 -0.8450573315356414 0.1933857813864347 -1.2045597741799126
Ni 3.495581213975857 2.4551442896977793 7.193820900900635 0.8691102587197871 1.3419111903795988 0.8111979597840352
Ni 4.309190872987766 7.074791121160323 5.8623432177524855 -1.548828430593565 -0.03616719394917642 0.43938790341700457
Ni 0.6380821119653567 7.403234383608563 10.778193409730843 -0.12584932909735744 -0.862375768209431 1.1354564916243477
P 0.29865923193250515 5.261218244082479 8.051012734017018 -0.32372117127960376 1.5316699165364072 0.0028379836694273704
P 8.500178164280285 1.5748298182244016 8.059832784434324 0.4533608206573289 0.586645522986809 0.5343886225646215
P 1.793295123078451 3.2038124192046875 10.519080797095224 0.21101377888084305 0.2727675630498722 1.0109297379931557
P 3.69915859366137 6.240731015488336 3.647201734422408 1.6687495671319454 -0.6485551160074121 -0.11490954225640211
P 6.908669870668665 4.0017979369682966 10.651217949781536 0.07785454638563366 -0.06559295540946122 -0.8951169671961938
P 6.501387864073976 7.799009605549183 10.122312137901297 0.6667412999981356 0.05245101871086451 0.5680669886536732
P 2.5381912813125003 8.476555626116046 5.867744862396967 0.2932535988183659 0.49368754530083364 -0.2406408577186565
P 6.95409712951625 4.105422622466758 1.6403948591253488 1.8619484293185549 -0.11950564626751677 0.2851345692556573
Ni 5.313535031182658 3.0433173138164027 0.879471913070982 -1.8304984383393894 -0.42793466727474044 -1.2749501509780172
Ni 1.573902731309145 0.8926883550658345 7.171990730772557 -1.0249036836747447 0.5287203685352507 -0.4176080885377517
Ni 6.853335506550199 0.8204855536333965 9.181205305323063 -0.9403511564436451 -1.0835263784139597 -0.2561849761008427
Ni 2.5674672318423264 1.4273502859993308 9.368029679104641 1.4219591448721254 -0.09659146067350462 0.5299383001027518
Ni 6.421276647690902 2.1068050149211337 2.786616944977933 0.9940478746361524 0.42343626518375455 -0.21844760945106895
Ni 4.24931196516706 6.920312991633803 10.545753632992406 -0.08126537183939553 -0.3534891465706557 0.2964224834646508
Ni 8.098331431953474 6.871849977593123 0.429473013492724 0.04515165683597385 1.8087021683999045 0.9657297444177498
Ni 7.409124112246666 3.749457603357755 8.141910879331729 2.0775511131216606 -0.1342874325623816 0.791756563229972
Ni 3.342421002122987 8.615436881656478 12.616773092984628 0.05409215385871329 -0.9953748209776921 0.039104936421261685
Ni 0.12755170809075145 4.802755586313171 10.486609123433984 -0.6773296170369433 -0.4582076072266689 -1.2376809822139136
Ni 8.782021675605764 2.1829443001084514 6.011547858766926 0.052470816205206404 1.3886685011397955 -0.047669281051504996
Ni 3.7681265888865543 2.590871631908859 11.334981815041802 -0.7319223646811588 -0.7932367473199242 -1.156027888017796
Ni 1.1120862002875835 3.626182310890811 12.600968987805722 -0.8796396974962012 -0.943650396020207 0.11063508325076431
Ni 3.067285237302013 8.196011854289408 7.957121552220013 1.4376809264827561 -0.21775238315625722 1.2127487377486081
Ni 5.691095721964702 7.792238235432847 3.3600738276799653 -1.8277962089168778 1.8817258690557979 0.6848922598755495
Ni 2.878695762746485 8.391281808087227 3.6207688504327034 1.756109739015169 0.5583669877570899 -0.6901964456972823
Ni 3.4564163363499585 4.1841068521273295 9.268112432358466 0.1472362794135658 -0.5750189944914743 0.5187493733654679
Ni 7.399562392297154 5.830831351721158 11.795843991885894 -0.9836050820362738 0.3846588873052408 -1.8572595084833177
Ni 0.2564995000068308 9.053085529269532 0.5906252599003522 -0.2940573256665838 0.0880703105763709 -0.26638557078292835
Ni 4.339957433851926 0.43683426538161124 1.5458247224992292 0.319732618945501 -0.013580309787595966 0.4796835177122578
Ni 5.981455708188179 5.658211403735298 0.4186160985880742 -0.5749305485427261 -0.02733853991395292 0.6816454708034777
Ni 8.213381100319365 9.177978679294473 11.07206541932741 -2.1760433903623038 -1.288536117192568 0.9657089184821432
Ni 9.373394058490765 5.197531008639297 5.77725936165042 0.9892070016040835 -1.7126218430348634 -0.3660831811855824
Ni 7.852353459526069 9.202973669656789 2.5461160566204657 0.6897565299463863 -0.9281160478300339 0.5271460820695953
P 8.704137285636786 1.8186264096747329 3.8557099440248512 -1.1890429094912363 -0.9234610655565256 -1.0854361938421628
P 1.8373953751649814 2.9545260189620506 1.5555627707443878 -2.5882346787598585 1.1760536963204198 -0.1194177145394008
P 4.512804609022896 0.9295682361182472 8.233554329813606 1.3386224923259977 -0.8644028259417887 0.5306260701983958
P 8.510412476697729 1.6762367663961701 12.609961730883713 -0.059314835710233334 -0.34735423731751147 -0.04050927296795604
P 6.491898856823701 8.073181927105281 1.2228421837635988 -0.9544228040453626 -0.7338599480235038 1.550064359883195
P 1.7473134298991932 3.143660838761847 6.159714525999775 -0.033143576631504204 0.9068013455126577 -0.8685055352562527
P 6.776032818175108 4.015458835337228 6.102113343482633 0.04604717206704973 0.4300064622021046 -0.9019638149146981
P 2.5508887364165576 8.511903087032064 10.520345089153187 -0.22761204955915637 -0.2116598971052742 -0.7824483984551686
