# total energy = -381162.7564656247 ev
CRYSTAL
PRIMVEC
9.28185048925461 0.00000000000000 0.00000000000000
0.00000000000000 9.28185048925461 0.00000000000000
0.00000000000000 0.00000000000000 13.58492641485480
PRIMCOORD
 96 1
Ni 6.145735819558194 4.363128632152799 9.604719418177751 1.274427702815644 0.8294859594599456 0.882740447908712
Ni 0.6915646734674868 7.8568449144340065 11.694203138779697 0.3741348478454653 -0.2899859838106877 0.11350109194464969
Ni 2.8611303417166773 0.32248210803362537 1.4981862345355763 0.24588025174072495 -0.5313786320937042 -1.6631671879481615
Ni 5.301217392075847 9.284541993562936 6.817826243001494 -2.1859452228570477 0.13683333891268692 -3.652914099670644
Ni 2.0292259487335773 3.2504389870455417 6.529567245050409 0.6420329986181782 -0.07476022373102609 -1.9613562763949317
Ni 0.23054909397825799 4.91434987336457 7.090244835304 -0.35529251832798164 -0.7572047933970315 0.3674672060173026
Ni 2.071801795862383 2.407303555251486 10.771827623156707 -1.526294768267423 0.5469024387609163 -0.9306367573693586
Ni 1.3869033472494652 0.7480252403957216 12.619445817947073 0.6772023474304595 -0.41292199591599205 1.9562114989691985
Ni 4.655692552253074 5.817585285572626 1.0132234813833174 0.7017381277882948 0.5801061792063944 -1.0952639785658622
Ni 8.947369501127575 3.2527780133103033 10.398799343178599 -0.28906655732021186 0.5270913175722599 -2.182726973030067
Ni 8.068990883907734 7.058958502642769 7.581964775443347 -0.6479149113202519 -1.5136274572123996 -0.5926356791319728
Ni 8.54120501573202 -0.02050824814281589 13.190745557634761 -1.374809740879832 0.7000936502063362 0.2497065674653506
Ni 8.84355200600316 3.0373833962466303 0.9194526609770662 -1.5104457170503083 -0.4077453368110591 -0.07220917517439822
Ni 4.534508715297832 4.119684263612506 8.098123827309344 -1.6600330131945542 0.14903887983994332 -0.93893756392557
Ni 7.29686160657964 3.941695503084497 6.234938113267955 -3.7368346497446994 2.320469196910268 3.01459197424515
Ni 5.955420761888903 6.769123446518049 3.5025878747568377 -0.5655262245096906 -0.059528237272620056 1.1488329129312538
Ni 2.137322376826464 4.926583352003281 8.707842073395733 0.7191465530727292 1.193889696060576 0.04792536292636907
Ni 8.676079581816317 9.0962225336989 6.266088002730408 0.86027054894097 0.1570843758522391 0.9516845791785934
Ni 3.549453793074424 1.355038755317224 5.346863675269664 1.1970238708141836 0.315515752650676 1.7128478430027403
Ni 4.897484751447622 7.946405487563688 10.958171905286056 -0.8223832869768933 -0.3569202837393917 -0.5311176651228336
Ni 4.416926236242303 2.198935298832353 10.183015816589156 1.4837689790900705 -0.35739645204486187 -3.2419209453462488
Ni 5.455194005989027 8.435169158396183 13.077909816800656 0.03187113767698382 -0.09461839610753382 0.3174957591951822
Ni 1.2109751574785068 2.958998170826363 12.98626546828828 1.5078265342599064 0.6454281403426562 1.2394522151817235
Ni 6.001737194671276 2.030052033406449 7.806930836492026 0.28074106817365196 0.23919461219043323 0.2711613949050169
P 0.34924446687960015 6.239259742747609 8.860972182565476 0.005643314328706409 -4.049672084232264 0.3251620174911884
Ni 2.9733664750241813 1.724911206207955 3.3392839295204095 -0.518223582768985 0.6105727232263678 -1.5738308661751734
P 2.0940411090781272 2.148581261188191 1.3538163356383786 -1.1656517842608052 4.003464989548583 -1.1231959290894398
Ni 1.6540999705973904 5.018650024702349 1.0974525597253844 -0.2348466196343826 -1.3772659157298088 0.22725980842606022
P 3.9617535814898486 7.933512997556731 1.2403809872776719 1.8790637488426025 -2.149465639873776 -0.9155109574715137
P 6.224687237844137 5.538201592837274 7.467158497799683 3.124622591142696 -0.011456578576373817 3.326090121096001
P 7.079786974619451 8.907049143611218 7.749778771719646 1.1812411540586303 0.3557766570532518 0.5977130936548802
Ni 2.0249562976153626 7.14987422590997 0.41869869598259296 0.2542846737543363 0.6013131523013128 0.021932795517349325
Ni 3.6740162235232083 3.8076284579725566 2.1293149246097602 -0.8918128425236254 -0.6256075060723033 -0.06868933494659783
Ni 6.095270399710948 0.8025115577742951 11.482033964680326 0.02626613278538057 0.7881577901351201 0.07938409565628264
Ni 1.5500133018155224 6.56126569186305 2.9751263138329063 -0.8294162825642748 0.2680588447202932 -0.5398936115432508
Ni 0.7065400106721119 5.198402336779186 4.797462604893289 0.5550134979038248 0.33411948379479234 -0.3432291594055444
Ni 8.389483891431286 5.6418891420580914 10.789936513008088 0.48686203773856795 0.9953385684231182 -1.2088776848289762
Ni 3.549862194485731 4.252219803432044 13.202279184764095 -0.9337845589697209 0.6236917771068291 -0.4688781995666376
Ni 5.481767943274784 3.3756418651620588 11.780969874982024 2.0782010880008337 0.6859998911174315 1.2983183933903124
Ni 0.7188171140070305 3.0745943339268966 2.964434550521881 1.9783394412164896 0.654289447388028 0.07525361842767685
Ni 3.6977499146303274 1.7310372273775674 7.762018747653536 -1.1436002037774047 -0.35365189740076514 0.2857292654168628
Ni 6.774423383014789 7.802666754483965 5.511444803101454 -0.4966808236012027 -0.047404457425892554 -0.45745144578693475
Ni 0.5686544123644462 0.6430512267292855 1.7904522072426015 -1.6578707154359127 -0.1123482092871291 -0.05002621131945578
Ni 5.097332269330839 3.145201368831808 5.913926250315037 -1.1150051657485314 -0.08876785086402776 -0.5065111794280631
Ni 7.670910890086016 5.123785542563256 4.506106253511448 -0.23143399440840787 1.665179076171868 -1.5762541309046851
Ni 3.7689881153527134 6.020402995538079 3.020974941362326 -0.8752055729842475 0.261044361075673 1.5831624279887444
Ni 8.27667228340785 7.390209174614172 3.395077131415167 0.19676446805068049 -0.26138091847948536 -0.6075444779230053
Ni 5.625274630098082 2.064292779004479 3.5488309809221796 -0.5601027395012741 -0.016972366188280446 -0.5459171920295114
Ni 3.2150380101653884 8.641913091020344 12.629702262481045 0.13488135739263868 -0.35368017953553926 0.2600136058183135
Ni 0.08278667881213103 5.936188768156423 13.067680289632428 -0.6888633287081556 -0.7978559912594904 0.19617928497117182
Ni 6.075008120599942 3.959117536016864 1.7344557328272163 1.4646019192433162 0.05747881094275908 -0.8834922384730719
Ni 0.26206190378575933 8.15199847075598 9.202890485037235 -0.3627839416090204 1.8311561265280463 1.0484462468813749
Ni 7.8106398638547185 3.1268140234727135 3.283313444285744 -1.338673143058275 -0.3251648457046658 0.30043391861688906
Ni 7.907338179832023 4.033762175783565 12.350763170373005 -0.9589466600576452 0.9247481597990655 1.4900008189323952
Ni 0.3866317597147494 0.8673749837401814 8.366018445796595 0.4881840989841011 0.6572912103288293 -0.5731973679017032
Ni 2.765815021427663 5.638770440371744 6.317520591374432 -1.272342795262157 -3.6214689937874858 0.36759653250631524
P 6.646705123478629 2.2565198978267094 9.7936858230047 1.1711282339943443 -0.1018179991797666 1.1646529106826458
Ni 4.409389373833629 6.821528773069006 7.535327190642082 -0.6916630029404798 1.9851747189707682 4.20731258969829
P 4.093917847299107 6.027373665081077 9.87069826277196 1.0597521588124974 1.4032116890612931 -0.42074509150483674
Ni 4.75636350014037 2.452014227939399 0.5136065430453252 0.6634001514400446 0.7282713981921328 1.1458074958413684
P 1.230903289980261 1.942134347772255 4.755946745063831 2.009245900987359 -1.3127384254703842 0.18087273652108848
P 2.8245691335544 9.004703490164992 8.160152576206746 0.32189748780730365 0.5206558463595614 -0.6761669641874096
P 5.307148494390062 0.1921844223110478 4.580225540553603 -0.15831542004586283 -0.7565946706168584 0.23810909243573833
Ni 7.411102619542653 7.471109781454082 12.226515394647931 -0.09558718777870635 -1.1342781550455305 -0.040695935057465396
Ni 3.086335874501987 3.965884004854209 4.540707134899449 -0.001595626621894026 0.18934940653353197 -0.47741580472400363
Ni 8.510918338343467 0.4745058206527358 4.068821580574261 0.7179594747431636 0.5385067584980533 -1.092346033588119
Ni 1.1735600190925866 4.636321330766739 11.588037335540264 0.49602570651570704 0.3382741293931142 -1.3915851605659582
Ni 3.6936287731162247 2.0744656868861386 12.30048524390095 -1.738314105594645 -1.8785582699610939 0.24208710324687988
Ni 8.247991366113755 2.690734134698884 8.059406445332367 0.2529757251349256 0.35583810641880653 0.15063296379994057
Ni 2.8820237866451586 6.208211953637982 11.783129761536825 -0.7821984872278916 1.1231280519659819 0.10732067416555066
Ni 5.34515767119243 4.503117497728698 3.818016704780178 0.6167886222290926 -0.4961434630404939 0.5813117694787214
Ni 1.9279702442800906 9.074317367092405 5.644061095018228 -0.3696148484879247 0.8158246599227691 0.3801273179834744
Ni 3.3094715546799884 0.32601849298153796 10.499204830148544 -1.230731547479274 -1.0845496774721515 -0.8759149403464463
Ni 1.3042670344114973 7.148834658681188 7.012348763392277 -0.7342157887010258 1.2262282602922818 -0.5007048571589312
Ni 6.388753222986664 7.744293198217766 1.5140674803252834 0.8361299471390244 -2.3215220636548146 -0.4793047942166003
Ni 7.849827835639723 8.832998542260963 10.472415553936825 -0.03592499603138329 1.5341911402963642 0.02295763723743788
Ni 5.090500827541696 5.619102199677185 5.91082889688428 0.15889237559525538 -1.9953945969265636 -5.059677253528622
Ni 3.583908021228365 8.417348005902767 3.2917497179843207 0.4957071468340237 0.2765794805967946 1.7789429348596006
Ni 1.3587422135697622 2.942680678074577 8.505685231168577 -0.9606230193188036 -1.5378999566065192 1.9963819005404972
Ni 8.581497527697605 1.8857285437605364 12.05413565623022 -0.6613232143063578 -1.0306737533893022 -0.09482382725012056
Ni 8.976820811992999 7.593147548632967 0.8748310940516202 -0.04031078380390477 -0.5387618119316528 2.268336480770771
Ni 3.6522131572695424 7.300444400778837 5.444647967727036 0.5373633889222293 3.0328637759711445 -2.0844483544621264
Ni 2.3480575050611288 7.228120223576383 9.27134505886755 1.612546537577816 0.3765930795779708 1.032128226447642
Ni 8.901155168698029 2.930874164547688 5.54813781353738 4.051566730151816 -0.5863408472621966 -0.7441042514593313
Ni 5.162537267386183 6.025582267981478 12.18952350863373 1.1450109680820022 -1.3883825944682604 -0.2451595715246165
Ni 3.5625690474875484 4.203137379273089 10.594625963530488 -0.3275534005415004 0.11793958733197753 0.8184001339594293
Ni 5.286208640210297 9.013317047203477 8.943024667022279 -0.399251440407435 0.6770066864798857 2.4432319166625023
Ni 7.086154323895745 1.7496844645438572 5.5787994776763155 -1.8322349614145217 -1.782488486119014 -0.0539599991562232
P 6.8371037178002325 5.935882467097942 0.05016004697379107 0.5628476492362628 -1.0189909177347354 0.8284706308215538
Ni 8.502406881657807 5.1537287914923 1.9838878229682915 -0.2686219163126148 0.6448324157401862 0.02071974904585464
P 7.603339020215139 0.11452782213595429 2.0592712980154486 1.5588251367949604 -0.02295738012712175 0.43177718094928214
Ni 6.623147787526393 7.022982051046682 9.694026596795416 -0.4019734673242884 -1.0879841570749973 -0.8606256182875436
P 0.7564364530986045 7.7617430767009035 4.535558492561898 -0.39448872891146897 -0.5009593963718985 0.9457967529392485
P 0.9319905843042062 0.6274799947381617 10.651315792160071 -1.4533875385847357 -0.9671536213484697 -2.123721698140452
P 6.769123446518049 2.073528220010183 13.36203839138738 0.19205317861794022 0.34938772280777247 -0.16283207696929375
Ni 5.577918630086927 0.5782518455301723 1.323460044372898 0.21757009194212207 0.6997694340976981 0.9479464522923997
