# total energy = -381170.9172928457 ev
CRYSTAL
PRIMVEC
9.19228171819653 0.00000000000000 0.00000000000000
0.00000000000000 9.19228171819653 0.00000000000000
0.00000000000000 0.00000000000000 13.45383346465756
PRIMCOORD
 96 1
Ni 1.0912709169923487 7.597705804547012 7.720320731217967 -0.4541946294125339 -0.8907669177576143 -0.019323897139592525
Ni 5.0530799935050625 8.213368065206733 10.259072674239109 0.5788550804081128 -0.9209886927566333 0.23685953629935333
Ni 2.400536795038587 2.143042599422245 1.2970998931862414 -0.06130178423327507 -0.4963872036201838 1.4312475121525867
Ni 8.213395642051902 8.655259432180488 0.17494199037744015 0.6852727831434198 0.6400203390635236 0.3374907142598704
Ni 8.990630638551565 2.0783932820664783 1.405643274996085 -0.20150943893483358 -0.48866823770937123 0.23100436307015698
Ni 2.239010020607259 7.439966250185436 1.116088239187301 0.3230804523718113 -0.6355646172850151 0.07315611246869981
Ni 1.2723129055209743 7.041618721732124 12.301445081147005 -0.47501619414357543 -0.3646454202977913 0.8825879814912477
Ni 0.6474657169639281 3.735862791768687 5.734360438014124 0.6720596268872554 -0.5516178419587145 -0.39695364551219375
Ni 1.1583378044411863 3.6582523571839096 2.685708031693814 -1.4565559090103883 0.0596706763877553 1.1389801885068902
Ni 8.971317654652166 7.618057516281074 5.290046904806438 -1.0029531475455824 0.254174116318401 0.5728153019719361
Ni 5.8085292823219214 3.8612730913115167 11.77650328726498 1.1282185791150117 0.3774502853719435 0.11794344398671945
Ni 6.1554827636636045 8.04740141870334 1.24658370897913 0.3442905107905232 -0.7455659236065224 0.08920802372523991
Ni 0.9745932850860861 8.048623992172459 10.31318395982797 -0.3359945893303181 -0.04983466413393998 -1.3981551004739918
Ni 1.469790693769792 8.010898867982487 3.6265886235618887 -0.3912892481375648 1.8281638766689419 -0.40172175632479845
Ni 3.551042775452031 6.686897762334757 11.420313401248325 -1.4367103350393708 0.5152760701048869 -0.13631449029473944
Ni 8.857471245516496 4.210432720266648 0.6668393699226957 -1.688951238890801 -0.6689771313071897 0.7206059112270751
Ni 3.0019050576195068 4.266827368635428 6.768731131142945 -0.26857177980096975 -0.9030382789257996 -0.6447653099476766
Ni 3.670606783819222 3.0568657100395447 10.369892065003494 -1.7394726446791204 0.4814997449853901 1.2071733005433596
Ni 9.575324102087503 5.46120810971133 4.0524697934592115 -2.169249507368922 0.466637483161577 -0.19558253192743738
Ni 4.393322357421537 1.8154204865434054 3.0813043102275213 -0.6056850561167633 -0.021392863853479285 -0.7913798966168435
Ni 5.459084692633386 1.048618729799009 5.700106319402646 -0.9147697084301148 -1.4706733222483768 0.9148602112613922
Ni 8.44591440822766 0.3675818807555994 4.046805509461683 0.034617332963553286 0.9680596781025069 -1.307619101965948
Ni 4.624250858859269 3.178562327766403 5.086907590244608 -1.0733147279882804 0.500868379319989 0.5143916106174045
Ni 3.15664792813948 4.358079149296696 2.0628224760563927 2.6926561770007433 -1.0100869303768862 0.6278957878858477
P 5.223477319798799 2.4546517575401365 7.405622047213075 -0.8954905484855287 1.0584051578662999 0.36259162309255616
Ni 8.934548527761358 0.16689322850104185 11.629480094935731 -0.5439793515768503 1.2806664846365041 -0.04953050262995986
P 1.7411652347874147 3.6484166157406177 9.44289549544939 -0.5754792219573444 2.0516827299953313 -0.352312095543419
Ni 6.224810952416226 8.495249384233405 3.7905099873819807 -0.4558157099557247 1.63735536909138 -0.11336019549141121
P 3.61400071297082 0.16398846747666787 7.200895225597735 0.3820990969978645 -0.8381765452554081 0.9948575150216415
P 2.574307688724555 0.14538145081357348 -0.13189361584185214 0.24727687497793543 -0.4367329822926608 0.5646965295195435
P 7.351150424180685 0.5483664853959893 1.8336497004276966 0.06953959876203507 0.3589041469386399 1.0852868127484923
Ni 7.725349828548458 4.404224403544662 7.9448789814218665 0.10642644448605543 1.3157376173080242 0.20225711573413555
Ni 1.7006640415171876 5.018590552481483 0.5931126743657604 -0.14690152178196636 1.287510247031215 -1.356947515887431
Ni 6.241798289039781 6.517796547763923 11.862016326446762 -0.39859555199099095 0.44725753597306844 0.9855673479689672
Ni 6.521813574876743 2.2595455779757763 4.017637480327376 1.419899177019303 -0.46846579461956744 0.8754968789724211
Ni 0.4520865266324034 2.593151866256095 12.500642745306141 -1.2911157049942863 -0.809366048781619 0.4015384366693988
Ni 4.91065478049351 1.7058760652539597 11.904812832463149 0.9446690670927086 -0.3023290787570729 -1.5991757726978653
Ni 8.479861504629602 6.434964897160651 0.35183090602374867 0.26010050910516497 -0.1645354328136457 -0.35086430735329893
Ni 4.652664201664142 5.521500285530536 4.982169813067963 -1.4356842077677017 -0.5313886593960332 -0.12557062151467405
Ni 4.6834491531534725 0.9806326141779015 0.55250485062755 -0.007905628000321869 -0.22749197904152435 1.2841883817468336
Ni 7.316964328453954 8.751429083563401 9.814020081580917 0.12934782916891918 -0.13811040585289763 1.6138624281757623
Ni 5.794639744638918 3.2851927957497518 9.395767586285265 1.4754396332887687 -0.40414939192968463 -0.5993300604330131
Ni 7.588375638598468 1.440614391581934 8.644639589106248 -0.2939827636749066 0.6732819293301308 -0.8186736993357902
Ni 6.320897873263635 5.369165792821911 0.6804411891877786 1.3912961685706298 -0.24196626139829938 0.5014815874239557
Ni 5.788067263207185 -0.5221785939961822 7.915025208071046 -1.3113207191872511 0.8861607864441705 -0.33434496954203713
Ni 9.378057736318308 1.3277975179992063 6.20903791620824 -0.7672665485084077 -0.7000180597733944 -1.0252052740755635
Ni 0.6525591602664774 0.4990443785846568 8.457106930453223 -0.6613527819927126 -1.6776008468749881 -1.0773955829258735
Ni 0.9297901039696341 5.22263162988031 7.454661950975521 -0.7943371794729546 0.0765751654525778 0.5524596211337195
Ni 0.881822939484228 0.0892965823388488 1.505658977051777 0.9044634414081004 -0.2643184038412545 -0.35314924673273373
Ni 1.2214887798761522 1.672103622204751 10.170519747491626 0.16948943438481134 -0.2103902863642312 3.135713558849535
Ni 6.448973934506049 9.057054066279813 12.235279037306992 -0.47116725271113047 -0.21647583043667878 -0.6366167126986133
Ni 4.052555281679233 7.6255951872936905 5.163366231929531 -0.5677067771007771 2.5083975547265576 -1.4905515492295425
Ni 6.7814587644161985 6.211629220425871 9.525704165348355 -0.8247690136002506 -0.853206443005337 -0.16338177882517668
Ni 1.1602130299126174 4.499741402925263 11.457795849200817 1.353180849756147 0.5681875733919376 0.10138811073119958
Ni 1.8888576252260756 8.761237248161525 5.924879668998856 0.18554211697229983 0.514208805182637 -0.10260629940901685
Ni 4.4800147663483445 1.1855469583403855 9.364339175075346 1.7525554460050075 -0.8213841562884175 -0.9949341338958478
P 3.144449770293454 4.700859334736271 12.403734953700894 -0.6024894319976011 -2.0656674743101973 -2.174547008322435
Ni 1.4181116859247584 1.449117252175434 3.415834422820972 -0.2575826277793177 -0.20000534358548133 0.8630077453664748
P 8.010641484094252 5.321264812764907 2.4408348388827426 -0.15600425541418295 0.4847123383854169 -1.0310560764293855
Ni 2.7071545441810514 2.218115964251556 12.62587103767086 0.6413164321671277 0.7514419227713253 -2.3256042041439886
P 4.761427279007158 6.579531911813593 8.70454936600579 0.4594908448144668 0.5556357048688559 0.8704523745699783
P 8.065151714709879 6.033446031513006 6.4183397364369705 0.1797602201832001 -1.8354953773333487 0.09966958537819609
P 7.243067575685148 9.014668455256432 5.849431259075258 0.15079571463004998 0.06657794503054985 0.30044574569143095
Ni 6.90299911335377 6.3978280790009325 3.9983989539099314 0.5612785049769302 -0.705529733620243 -0.6959420899318078
Ni 0.3049714114859282 2.7183599356010255 7.983235615366187 0.373710358713537 1.820910023320006 0.2775243610085672
Ni 4.414657643299929 7.961462776877794 13.11731248004267 -0.2706852265995467 1.3411820255230578 -0.06919944181379695
Ni 4.695417503956432 6.2068492339300665 2.6225285601855077 -0.7184924644284981 3.807880657848932 -0.9381502921375843
Ni 2.5935011729615574 1.993585290892825 8.416637910169026 0.8574212524176329 -0.2989154250898336 -2.2508390953169557
Ni 8.581776332089204 3.212095771490822 10.263269870073696 -0.23968492156329044 0.38843866606264715 -0.022426447324316215
Ni 5.4423639321797905 4.364127670670234 2.966166385509812 1.4259698086934152 -3.333080950591537 0.2933129913013916
Ni 6.109263971161856 7.037730386563421 6.23591890564994 0.4335281022021179 -0.15343880867985188 -0.038921873876178126
Ni 6.623654864082564 4.40187117942365 5.0451066083387905 2.2413535244240235 -0.06890736449467488 0.9688760033562153
Ni 4.6712234184622785 5.1354520300222 10.302945596445223 -0.12439768425249545 0.5055259326966584 -0.8296667080121841
Ni 1.7760775207702388 6.507694230150673 5.6389454729606445 0.12823145617628884 -1.6292347968667746 -0.4059838740352621
Ni 3.219789711292724 9.334486320952697 11.081774534595604 -1.4397344665776752 0.10121507548844504 1.6511002294812982
Ni 4.1400290345524695 8.53200012656077 2.3576364162387344 -0.8604399846392988 0.09215450794807355 0.33391328132125714
Ni 7.06653899748237 2.081638157514592 13.098490363987265 0.8498634946750332 -0.09506011163064274 -0.8927937183796559
Ni 5.291150897841335 4.901058038375009 7.298112797097036 0.4998849323607972 -0.6613982905186674 0.48983783253744034
Ni 7.186829196105656 2.7192332023646824 6.675630782627241 0.4269388790203744 -1.2747272363339335 -1.4175972683590037
Ni 8.038549251404376 4.84959964529132 12.047383283525921 -0.28472036453637417 0.28184330009889524 -0.8643804573442855
Ni 6.725303115372208 2.709544537428954 1.88151850749867 -0.1992080444951666 0.12319260820080075 -1.2712737305676942
Ni 4.093212743738746 5.799897729784304 0.2579152021192419 0.7868843227393351 0.9088541142766283 2.011509500210555
Ni 9.08197434203006 5.380582606721507 9.575604466680044 -1.3814053918194789 0.8730579305136255 0.832701895294082
Ni 1.951319179531839 6.045184575272898 9.392928090461123 2.57105302477425 -0.8876630820213101 0.5925500613967021
Ni 7.863408707741726 7.532468181160992 8.004399005576365 1.576953213854239 0.07823378410192333 -1.8830708131194664
Ni 3.422139408854574 6.615777078646208 7.159955560489335 -0.14281758152057986 0.15829202300709513 0.2296313939820303
Ni 2.4543300276798417 6.101661954177181 3.415578877389081 1.710335360993532 -0.7906278489421674 -0.9354508909285502
Ni 4.937211282390398 3.4182602659675934 0.3645787623167925 -1.3812434123203179 -0.31639944080720994 0.9367277007584448
P 3.1312128846127627 0.28157797372982263 4.054971932544132 0.3881442747506799 -0.20859205681322787 0.040437539189756164
Ni 2.8573104661213966 1.6418426307736143 5.864889000020155 -0.1166064703428508 1.5529661069110223 -0.553960374048962
P 8.205646548559663 7.056262026516389 10.91459726458933 0.9704217505767804 -0.15591992323049275 1.195586624147025
Ni 8.58591285886442 7.569614191602432 2.3554164802027016 -0.27333860506199376 0.014083731786575746 1.1738728866190171
P 7.158875467386918 1.784782611561638 10.716637800778242 -1.5201871127077884 -1.201151519829312 1.6164083345260678
P 2.5959095507729057 4.196598336273981 4.521833213589434 0.29750928877092636 -0.038330263038766244 0.15010485921061245
P 8.663982907535333 2.797652557741057 4.267232748259399 -0.38273210259617313 -1.1813488832810881 -0.4674157560884983
Ni 2.935242630566468 8.132411640074892 9.05900466846137 1.2889585494419673 0.9634579176644374 -0.7812299526670352
