# total energy = -340857.7750699655 ev
CRYSTAL
PRIMVEC
9.39460332708392 0.00000000000000 0.00000000000000

0.00000000000000 9.39460332708392 0.00000000000000

0.00000000000000 0.00000000000000 13.74995159024695

PRIMCOORD
 96 1
Ni 3.602172667831876 3.951698876283705 3.727735296146406 -0.30793691186215355 -0.7874029142469664 1.2010401910624284
Ni 0.7474750196781049 4.707776534023343 13.350212952682252 0.6683179004566362 -0.36136006467830023 0.7657223439497394
Ni 5.160511852166122 7.51297683680767 2.4008377960195473 -0.24507241112744887 1.3004040722747474 -1.003968476183974
Ni 8.383151949234783 2.635383457092209 -0.14557219346387937 0.27962803761513133 -0.15863397972754617 -0.35720079109428804
Ni 5.472299939952692 0.8127722085463871 2.005939412420857 1.838671203958169 0.8285007127285408 1.073973187507886
Ni 0.39874359464879994 6.11107658334669 11.438914771922292 0.04709978170128018 1.3922536473878926 0.19708996971089926
Ni 8.998282376618212 8.098589421241075 9.768969581643521 -0.05371265903210749 -0.3980684758429273 0.4577988018240245
Ni 8.319588064639028 1.923122228225554 2.477521243848819 -0.7255650550045634 -0.3732663291975829 0.38126734512518856
Ni 4.717960283787132 7.082168522307589 9.053573373721353 0.47823958617687956 1.4881722503640886 2.2321793141239237
Ni 6.455877306437647 1.0052413212407647 12.881105659711654 0.720243899901966 -0.06924006524374528 0.588907065327476
Ni 0.07241735856014196 9.194244402746332 6.26986792283698 2.369285447082023 -2.1215108065320623 0.6949396168092224
Ni 0.34072816264575123 4.836097417808951 3.823779142050601 -0.8511734717357081 0.6127036535264415 -1.0345826015254054
Ni 7.509848433974329 4.953229329298735 13.510482063240662 -0.5373523331786358 -0.2775511004814446 -0.46487267795167037
Ni 8.379892021957998 0.5448212177596276 8.30634543210486 0.07423211914169796 -0.5971788184179652 -0.18344332546174213
Ni 2.719859728195525 7.6143164204810985 1.6648439207937737 -0.41104406216698886 -0.5815202859451016 -0.24603811747482793
Ni 1.9075647654867762 4.387458146619135 11.055084170239395 0.9889318935658259 -0.8161933561160976 0.6115505137586048
Ni 2.741627023585469 6.449282295059252 12.40059989479603 -0.6895528985760124 -0.5359276849169674 -0.1691755026888183
Ni 2.6841884202129527 4.690706540184962 1.8182521527059712 -2.214224786528032 0.46209280121368806 -1.1920112480909406
Ni 8.796749350849936 1.6291369133194098 5.213720065761302 -0.014151608910033692 2.3998862026870156 -1.031906854465455
Ni 4.576477561054045 3.9223031631740217 10.259086025533641 -2.494144901462285 1.2895768997522565 2.8758958710921116
Ni 1.586306917772255 4.908614359161986 8.541992140661208 2.1460224185201815 -2.1388287289852195 0.4065009228809967
Ni 6.725887594224612 5.517478586275629 5.813369126691087 0.15939554048391905 -0.8665173011816303 -0.38155685134114936
Ni 7.1052698513381785 7.844202358414609 8.146598661478983 -0.5956788368336708 2.215563045723481 1.2806533720103814
Ni 7.896295432621447 2.6133437182122736 9.19739723154774 -0.46309141768153145 -0.05307553966874085 0.007704310622793182
P 8.64114653965285 0.6032227679502148 13.0697276824353 0.15330613975672952 -0.5799609118777819 -1.026436061158871
P 1.8233703324765547 2.624401166064654 13.096072028457089 0.4872554165222447 0.6809877826148207 0.007025796498529835
P 3.6516634369791476 4.2230431977113145 8.30150533258613 0.6921216877444532 -0.1566380323434399 -0.518991571283261
P 5.701218233766581 3.3973891093899202 12.205502172153398 -0.8316294881655096 0.629650051572793 1.9742303041441225
P 6.965393605735724 5.857018331628835 7.876137432743068 -0.49279794360702867 -1.2839886070312014 -0.06054922233796669
P 7.298404101932257 4.3717973432462225 2.12754409444804 0.34187495937049506 0.14632919421826412 -0.9365214982849097
P 6.105862578624454 0.8312194511996867 8.63688045038372 -0.25611427076390725 -0.5155660905414798 0.8782952676531649
P 9.490803838902732 3.947180072191102 9.980718298826135 -0.03106278284307554 -0.05782565275921654 -0.30304076011211684
Ni 6.44816433728998 6.046065929873054 3.535442801990367 1.1572234509877941 -1.6548717807085886 -0.9829728477689136
Ni 0.6445900237942126 7.78630341949004 3.7355046329126917 -1.3655985066942096 1.77303094025054 -1.8501478371392008
Ni 3.746765004192099 4.26779908689461 13.185240903810415 -0.37160179701096646 -1.3772317200577635 -0.9191215576409073
Ni 5.727213100552932 1.8591074026808487 10.783825339700025 -0.2517230836747471 -2.0092114482049976 -0.0577534047603844
Ni 1.4415360839530724 0.11141435604122096 9.604753798321488 -0.1812781994896233 1.672909869157222 -1.20718589894885
Ni 3.7491606279833967 0.08906835310012375 8.95108107224717 0.8764116774772067 2.4050183817072583 -2.853794154097066
Ni 1.9160950651044153 0.7230856905620776 0.9034310679518701 -0.5958606138271738 -0.47634108360258604 0.31636755912801
Ni 6.84477629649468 0.8676507825733017 4.065103948722479 -1.4627993188169388 0.2124623384019115 1.5330953361290243
Ni 8.713250118469347 6.779051653185205 6.863769365588271 1.0508170611063967 -0.06067083551749552 -1.60563541228028
Ni 6.148777125599538 3.081730445124862 3.3621931683243664 0.3056738268595897 0.17740328991524928 1.2728680716380079
Ni 2.4061457467728142 8.625091162949605 7.214159877525589 -0.05145214513270494 -0.41587233679356767 -0.6054996795788347
Ni 0.6564798334815297 2.841839254886522 1.383272634428101 1.9861954469257985 0.6918676627521181 -0.06062789809470204
Ni 1.993337491818323 6.4749671399432005 4.695787141543134 0.588481033533651 -0.6480622355313935 1.3822919081894904
Ni 4.666853642906124 6.097755036146457 7.213279603214826 1.253115571601429 -3.663704505417929 -0.18231332562235697
Ni 6.528629112868261 7.829556172176835 10.637540095860619 0.1765404276943218 -0.19771191956561435 -0.2983325560031701
Ni 1.1529526658312261 4.921964090171529 6.066327270385567 -0.821304709200734 1.2580906562185172 1.074019210254473
Ni 2.723974564354694 1.4686113300962835 11.267424747417508 0.039144274299629356 -0.556705283783951 1.3673432572994582
Ni 6.25580983875346 2.801329726305839 0.8739376509699142 -0.3139710338713754 0.5985715850004336 -0.8140143461869078
Ni 6.794966110841902 1.6095209820400813 6.7069508927496395 0.26962156122172276 1.8450573099901706 -0.3396023612862345
Ni 4.906143578545864 4.711900764785617 1.6881772965210098 1.8411723731134675 1.0144770890247818 0.4010380999942125
Ni 7.56576511164414 8.413900485191316 3.001724126178015 -0.4795336223979548 -1.022481447386497 -0.3155931428558307
Ni 2.8203537975896706 8.804142903492098 12.667706310763819 1.6454833975151533 -0.5132868075889998 0.46460476900226433
Ni 2.4554204400487136 2.5759625924649323 9.385084491262626 -0.2892074537734503 0.09924226803279038 -1.294560469009777
Ni 2.625979459385979 1.7433377086410182 3.307647163247302 -0.6741959565039679 -0.05723069948769499 -0.19792197869389141
P 7.470889014905664 9.099067678708554 6.009980319893633 1.1247002815491083 2.171230542354693 0.5978197944360737
P 6.475512026923182 8.31022164534521 0.7671069217827088 0.7869246890589673 -0.17121593015761483 1.2759042873611703
P 4.045325490809466 8.63571645905924 10.624229822184109 0.35728820860177174 -2.3741057512888015 4.778938756458131
P 1.27735600012283 6.8439495714216045 7.858853241953936 0.5385538096859047 1.881574431079598 -2.2479807999325545
P 4.291586221951727 2.7025830530888744 2.144566175810595 -0.3741160787923879 -0.34569998954354014 -0.8445438822343326
P 7.400297967188769 3.490517809951215 5.550676295261147 -0.027987743462177604 -1.1392146731151993 0.10460327523438759
P 0.8949909565240212 1.3873574078573407 7.809339925759216 1.160360196844563 -0.18711306100384548 -0.07836311059093601
P 1.0791486638530625 6.143938905001427 2.1909586048544556 0.24647160546782065 -0.3295771158397485 -0.048908809885560935
Ni 9.146003115811775 5.9958611708899445 8.926399570974636 -3.4189339418016154 -1.137500261527254 2.5384516937994603
Ni 1.9507423613487465 1.1884172925455294 5.67053452057146 0.6851704532376006 -0.3851833923501431 -0.4674345251415757
Ni 6.968155619048043 4.773707858601086 9.644188584307171 -0.9213046813351552 -0.2316178282844398 0.28405239193507203
Ni 5.316218003997346 8.266217324410164 12.64967994632954 -1.123866472793903 0.6067705758714582 -0.8457813541858595
Ni 5.531683226167556 2.897943824618394 8.780388649545841 1.094107496363916 -0.5533366244220341 -3.8505969657705363
Ni 4.395612662112649 1.653769562655808 7.063831196510597 -1.4901005777350531 0.3180578023462393 -1.1697334105293467
Ni 2.149222141108505 3.0592679491052865 7.030185364957058 -1.0423249644749855 -1.8463837421110783 1.486945062825207
Ni 7.71413407845182 3.3586363715895224 11.406326772678167 0.058494653801783134 0.5301540156579837 0.828228947124393
Ni 0.22716807925577615 1.9230188875914196 10.828072980855442 1.269465216604046 0.13154560815118635 0.8328168236053914
Ni 7.670120362913671 7.553204527295259 12.925916977053257 1.301390604557733 -0.04489531785079365 -0.2822809018569461
Ni 0.817819928793697 8.872873819794572 11.766713142317212 -2.099271535517888 0.4128662029773922 0.04939911925841815
Ni 2.976163290055027 8.621098456630776 4.0249542334406465 0.4485004072412341 0.007942394775528256 0.36410548863392134
Ni 5.474573433903649 8.905482487165525 6.825420595721309 -2.135932381274031 0.9695802285120916 1.9823007398570827
Ni 9.153453036072554 8.673426395915193 1.313526161530178 -0.029983690846283845 -0.7992873243893783 -2.358241273452719
Ni 3.522919796053899 4.2452332502409 5.9886949676428785 2.0607769789871155 1.9412705613886503 -0.688310541528479
Ni 2.2946505971449063 7.336593163546467 9.634920808345937 0.39746966591666383 -0.703330411976079 1.3017132780044745
Ni 3.979788739562054 6.209165634346436 3.9436787036145664 1.7039849932954718 0.2856364485927403 0.1695629679352241
Ni 4.708781756555378 6.2482189994461335 -0.10856497292004262 0.7365138407065832 0.7291270613242088 1.0856436818672788
Ni 7.817831707504133 0.46870050665623303 10.636989572118775 -0.8250294663504888 0.4642337588160908 1.127677104789245
Ni 3.8236504359880885 1.4427855661657882 13.454093776495075 1.3765454926240164 1.5710759291378555 0.3406020061953424
Ni 9.15440189098597 3.4077513566126685 7.367732514992091 -0.5773882660545991 -0.3336623416527157 -0.5578993040920521
Ni 5.076918673754501 5.918055067989848 11.171271924117315 0.303819033039038 0.8111249404542547 1.10009893806066
Ni 6.3335877578442465 7.783109254434977 5.134960410646239 -2.3023745441920864 -2.228803712783471 -2.906500483351846
Ni 8.264657820295046 6.291105362611908 1.7004428903324518 0.45007032283151516 0.1596395381739251 0.03675854767627218
P 8.361093421148642 7.003977240680265 4.7856155180343 -0.5378200168436738 -0.8621315134091088 -1.299931246403387
P 7.706787498825175 5.992864292500047 11.217746086208173 -1.151718462009165 0.5486140221353841 0.9554892976366641
P 4.221060936456555 9.076210609358647 0.9451647133168899 -2.926668987879921 -1.728849103527003 -2.078848748887162
P 1.2308996877778684 3.189204704624632 4.854764494174864 0.9668332618945736 -1.3779009782106464 -0.33743132177684465
P 4.20335210960716 0.9030073713519192 4.7340259945537895 0.17631339928518022 0.5325775374978119 0.9044940375357197
P 4.044658473989145 7.455585206450669 5.986550179754435 -2.046696846744965 2.0901585174730264 -3.5506425578932266
P 0.6540823307696119 0.4530547346482858 2.7709316090450526 0.5951389051698008 1.5343814019302995 0.945527815548578
P 0.9072631265576355 7.472467308226989 13.450958797439563 0.6309505155517715 -0.7283675574503649 -0.4287350516888488
