# total energy = -340896.4904654152 ev
CRYSTAL
PRIMVEC
9.03051425734487 0.00000000000000 0.00000000000000

0.00000000000000 9.03051425734487 0.00000000000000

0.00000000000000 0.00000000000000 13.21707043400095

PRIMCOORD
 96 1
Ni 6.426077901369969 1.8287152813380403 11.385342899909297 -0.9369395596589347 0.8640336155278281 0.3810547148937502
Ni 4.602139762131975 0.2213559681594341 5.9683400921961525 -0.020007296359862314 0.5199518783140012 -0.3745655076249807
Ni 2.7791137048450296 1.6429395397838678 4.818785413997676 -0.11277604085316707 -0.5183490526032557 0.8516239290095655
Ni 3.4033389799369327 4.213683156128947 4.92526240279395 0.35959654501997423 0.7374432944993881 -0.24576969430478962
Ni 5.187226787958091 4.641368316541431 2.8266024707458137 0.24183127848233188 -0.38756243410528096 -0.7086862769713537
Ni 7.230940555341324 6.108032215885018 2.6778843479473142 -0.182961243619001 -0.15996195451035033 0.00896955048846197
Ni 5.117836315563463 4.2631252222872735 11.804866281437052 0.5274361025061884 0.8754408289235053 -0.634924669708171
Ni 5.690343834876602 7.878970266304159 12.254907383216029 -0.12495252831470093 0.0815618200338918 -0.03751470911600636
Ni 1.988690843346215 6.56055129080625 0.29678966076833524 -0.08130548104871159 0.021455084549982406 -0.4050996716580959
Ni 2.7249306186441236 1.6976915483898831 0.19425087928743093 0.19516241367088324 -0.755880418158653 0.8323902775909342
Ni 0.48894636377410117 0.17652217348249455 4.726331910961635 0.6395611400389178 -0.04070184859473635 -0.09399824602503165
Ni 8.600354845468653 2.346434669987696 1.1208963408553798 0.2766432439551946 0.06628175394636972 1.4856885647102864
Ni 6.9619486238969275 0.8545494470690236 4.719155361194325 -1.0932914282205235 -0.5462786891339882 -0.1055872364142117
Ni 0.8759066135465473 7.322166811474917 2.296862564422487 -0.27418912598774714 0.48518413581551284 0.7952810314434626
Ni 7.447013672596171 3.709852698575457 3.8735795362516074 0.7464115594362694 0.29065755595641557 -0.5344521288127053
Ni 7.718317415718474 3.7941073976178656 12.608490851888716 -0.48954678365958265 0.0953061662031778 -0.9329792894596061
Ni 8.032660590313029 8.931278044440685 6.743983613882233 0.07551921338423769 -0.14949705042328446 0.7621117437803455
Ni 6.60402418696811 0.6191663809436115 0.4573440787474229 0.6548316930447432 0.09472124023398525 -0.759525214000092
Ni 1.7935685194223863 6.566204392799878 9.250429064884134 0.7022222665135648 -0.8079622264555568 -0.17874900530986634
Ni 0.24038145582744555 4.942183780614493 1.2886191811388472 -0.8474772538310437 -1.0775380220410087 -0.04291119754122933
Ni 6.321847704548159 2.012414004587845 7.132671401053051 0.66249923689233 -0.45405141896645035 -0.29872336368368557
Ni 3.6189605714734374 4.46424380775067 0.6635260736162932 -0.6368617388298838 0.7349151287608955 -0.4599004215480595
Ni 5.984269016487783 5.633532868994951 4.855793364924332 -0.34183022217548875 0.5566471768525058 -0.010696817592213836
Ni 5.282805752016489 2.8371618511949332 9.197891338400863 -0.030749365367714783 -0.1295612307313059 0.3778295230882332
P 0.12841120514183688 5.5845332980406 12.426571139969177 0.8853398332047719 0.7941091226225484 -0.2567524185685385
P 4.163094214646034 6.312564335779071 12.654657550486197 -0.9269940184104487 -1.4671892203545183 -0.5429203141847166
P 2.3587974441558694 8.640170383311952 1.2609903224335688 -0.282724674262584 -1.0024677232687318 -0.50872824168404
P 6.430665402668311 7.892841136371591 5.595579423214091 -0.41651922634894717 -0.8160845984523752 0.596474593262089
P 4.651085150000126 1.057238438980809 12.468852008234615 0.6937571664653472 0.25063884947163284 0.5724494339920851
P 4.0315286508358685 6.2019134432424545 8.130309348264301 0.27059960886427586 0.058049852954880674 0.7411204862406592
P 4.666193200535813 0.9951717137376712 3.750066482102333 0.33035024656034717 0.810017823433005 0.007060763501523324
P 0.13159626755901344 5.561252632002943 3.4511094978859616 0.6200359255217968 -0.37657688162805464 1.286860786372674
Ni 1.5899755730224823 1.0727980152348358 2.607093242774394 -1.1132683855630825 1.558636160712606 -0.6308648978165006
Ni 1.7883488821183653 6.417255088833588 4.856652166840616 0.7296561943548014 0.14732858201705593 -1.347532650331434
Ni 6.095515922972609 5.764059923652934 9.086418669056867 -0.43381349465302066 -0.8982958791448078 -0.10366405124956986
Ni 8.486109808214042 2.271743285659747 10.225664112054181 1.1892434555378162 1.1737528161013848 0.5015587205187942
Ni 2.4067585059580376 5.115199405368353 7.098346415944778 -0.6366892178077616 0.31061265892210377 -0.29127822025954997
Ni 0.6647704784960407 -0.08378691839820747 9.08029959252191 0.01898399730167053 0.037898317707670215 0.7820689036285627
Ni 1.387547562975898 0.9925257730281938 11.462900569497274 -0.44889738556933656 0.7781412864393825 -0.22396005462886592
Ni 4.176332948707789 6.878777586578537 1.620901472523086 -0.9027796259477742 -0.6178435458561682 0.46273300590084826
Ni 5.7548217074556804 7.914433096222652 7.7835728155845345 -0.6641033481546562 0.30132249186942944 0.1638008686404663
Ni 5.362798048277758 2.7808114415459917 4.9778660520321 -0.44063771666370566 0.13489755534255476 -0.37131769011164434
Ni 0.8659730477430478 7.168431334894213 6.931983571124953 -0.8383066430753691 1.0596647413050135 0.05456086596501571
Ni 5.0800345824239646 4.621609551106834 7.051505137924095 0.23207831286062613 -0.4116649835804394 -0.20729596370962364
Ni 8.252562645659406 7.162371859754079 9.012151718904159 -0.6389911264680608 0.6573997108822355 0.34068916659251003
Ni 4.598491434327781 0.4079805780640876 10.309063621386054 -0.31178173952954047 -0.7332914771145436 0.08198810893803299
Ni 8.306357419742538 7.2130420758662925 4.774786038848232 0.06038132930153472 -0.6003633867935337 -0.5164999152096589
Ni 7.275704815057639 6.197109209599307 6.8476981683336975 0.5759597611381887 -0.8161655882019557 0.478802400658885
Ni 2.2074911759398397 5.2849369534070565 2.513701469295639 1.2531726500916094 0.046184726086178525 0.9858540259714506
Ni 2.4848814857453774 5.258342088596779 11.412782117812874 -0.6389836702688931 -0.37351778308675676 0.2672314637229914
Ni 1.272164680911069 3.301745693310234 3.7241209112750293 -1.30127259092263 0.3377966755360634 0.17104469468707317
Ni 3.72179103856839 2.8269212479029626 2.832457856261258 -0.32411403584264825 -0.7121212707948317 -0.5805846615047098
Ni 1.042780585479534 3.3634692590074327 8.232146458778903 -0.5081787969384732 -0.026680851725295985 -0.019284816371540982
Ni 3.6484722924241977 2.6881222420849755 7.126909029835586 -0.07039089101873684 -0.525420100517424 -0.09465259177957892
Ni 3.924083590899472 6.893452172424616 6.0255565281728725 0.725274520347338 -0.437451348515924 -0.7656159002788621
Ni 0.9783027129004559 7.592188221557131 11.27323628845675 -0.5110527760521585 -1.3300478632831092 1.1175191904196367
P 0.17137748944771855 5.52956455708978 8.065069300272663 0.25503080789174143 -1.3780369895678783 -0.6460320924752423
P 8.422227949583176 1.5143450152003846 8.235755052319885 0.31595798239441714 0.6686488014334936 -1.8710316225667456
P 1.658327536264925 3.4212916424981663 10.354068092784527 0.8794198681759112 -0.6213417888174138 0.2559525483750624
P 3.893930703428668 6.112574564611528 3.8313510449694954 -0.4337885549523562 0.24252316234303395 0.10359540279516352
P 6.7998779825556515 3.9963728584058473 10.34056024939464 -0.13881488811908996 -0.10703553882496404 1.2206623361687299
P 6.389820386187196 7.630938158705146 10.03580115969759 -0.6149978488772571 0.49658235035012543 1.2874593391886213
P 2.279581772130145 8.416078169299372 5.8040912907896 0.18143477967214558 1.0371395636193042 -0.1214188041298296
P 6.826481877880297 3.865809681690398 1.435215133061145 0.8670137812020746 -0.08093138553874449 1.053784885485469
Ni 5.1484226677238745 2.8164097291799868 0.6320348639163268 -0.21231424285982142 -1.1952546947289029 -0.8265052795650668
Ni 1.292076965089902 1.0534095008892783 7.109555090376872 0.8164478953290649 0.38687337845805625 -1.1270001333268782
Ni 6.806307708784825 0.6111879215005283 9.313382586638093 -0.20192441498506514 -0.07535491989223152 -0.9040942309941398
Ni 2.582456193478842 1.591610096122876 9.188031822815171 0.5345937965968922 -0.1893823166539964 0.18933500835582875
Ni 6.370287383611769 1.8708516613736115 2.461719119445927 0.2225947988502231 0.16477428829732912 1.233674946378314
Ni 4.149304619207904 6.6772887500261024 10.449983895028806 0.4275081212602831 0.8296104008529518 -0.7103397534143766
Ni 8.010282975712055 7.009873563641629 0.5080368711455536 0.8100862147770952 0.7750824450084006 -0.846050034466214
Ni 7.618918544082912 3.829443800335223 8.340844051057978 0.13768231717654353 0.04054064042652373 -1.062164367798416
Ni 3.2328970517776163 8.344168183396404 12.294281328906791 -0.10320896599002224 0.38897499818209136 0.547362152006154
Ni -0.03613379713594744 5.0966868509163765 10.26840824570664 0.502945830674308 -1.3420770265335016 -0.03569359674686757
Ni 8.632530568157625 2.356250839104427 5.828569403032296 -0.01958949209615336 0.6241772013836799 0.28945505100788216
Ni 3.6115103971208127 2.646040045135605 11.257031933476933 -0.7034718226499498 -0.06530190653160367 -0.14451990892366723
Ni 1.2018350350222933 3.425048336474762 12.59108363239524 -0.3788834182740442 0.2042918867759772 -0.3468158483155382
Ni 3.0164807749768316 8.196790188929938 7.966946440317133 0.6441122497447102 0.8642866120788985 -0.02702306555606314
Ni 5.349216154670065 7.901772315080374 3.609264508197785 0.7628815320668345 -0.11693094356180506 0.4249503878354359
Ni 2.9327498457676984 8.49590791630204 3.64222859479098 0.4708098693717117 -1.1465250907336832 0.06798459557008937
Ni 3.453548639816439 4.338828024224306 9.169263704806614 -0.3975478274527669 -0.03502639547651387 0.7801693726130048
Ni 7.139867817951969 6.024021340730513 11.506398751099361 -0.19882186480034145 -0.08780651539202297 -0.4814074423818999
Ni 0.29383397341607587 0.04392171272589098 0.4889707461628916 1.0841534704749973 -0.27970645626155055 -0.6995416343576082
Ni 4.4159124948594615 0.22790941243543367 1.53460768333665 0.2715190353547517 1.1384428279461811 0.21832882448501753
Ni 6.008497886533954 5.627536607455385 0.48734615662830116 -0.25975366728870747 -0.009725711928196153 -0.10896463752687686
Ni 7.930498381281221 8.674883680537999 11.345942765726873 -0.19597539649048185 -0.7222737858478012 -0.1082293020227491
Ni 9.240112605271483 4.848817292575966 5.687054018492771 -0.8523582360724289 -0.5072675979781134 0.4092445470644049
Ni 8.013994517116817 8.757350337735778 2.4367515533245494 -0.8847549072355795 0.492954523789551 1.0350921941719722
P 8.538568066170887 1.7178295954278866 3.5316147273632676 0.34767253988887864 0.12886651865712645 -0.9188356509693725
P 1.9506272252900785 3.2547870186027823 1.5528872505179623 -0.6172385652823176 0.03545602681476474 -0.17145478564129826
P 4.634839254654222 0.9165159336026896 8.14844262111287 0.13889562075835435 0.6036415433241733 -0.33481213898644274
P 8.34610974398527 1.4548248950086893 12.342074423141735 0.5800843248295235 0.9905596589772361 0.5182922312233913
P 6.184159451997291 7.713251297158688 1.428857650946905 0.5549988426158055 0.43705462729813754 0.5473027595231285
P 1.7900827408767945 3.2474361799081928 6.053788625237854 -0.5043928475334797 -0.8470867032608443 -0.2599385296060039
P 6.969985781683396 3.982736781711953 6.0693184007944705 0.21843578237652703 0.2666573363870762 -0.08892391682591781
P 2.568820116784947 8.523685778494372 10.177038404394615 -0.3906030207038176 0.2824027721467911 -0.16358052509954407
