# total energy = -340890.5566479183 ev
CRYSTAL
PRIMVEC
9.04388086403466 0.00000000000000 0.00000000000000

0.00000000000000 9.04388086403466 0.00000000000000

0.00000000000000 0.00000000000000 13.23663381400287

PRIMCOORD
 96 1
Ni 6.320171432670738 2.3056650726609513 11.084595488699772 0.49583544488177184 -0.7928474823013055 1.5955769996030134
Ni 4.800654747117936 0.6475373472004918 6.030239987091404 -0.822432909267906 -1.4277934921657152 0.11035868966092607
Ni 3.09144266065409 1.7193502769010944 4.757497347683014 -0.2763015443450596 -0.22584827279051425 -0.8467126077508771
Ni 3.713706882808293 4.547398951565518 4.800529941562152 -0.9318778288653111 -0.33073796891706914 0.3670748556748904
Ni 3.886309348905422 2.5745848698523655 2.4905256148674884 -0.10908265116197986 0.438438909240174 -0.19824362369936827
Ni 5.4545544644991635 4.534212973280498 2.7576140261859825 -0.4969921841940344 -1.069240557918907 -2.0252116802879963
Ni 4.800799449211599 4.747404376650035 11.126966070500403 1.035371673085604 -0.5120642480358084 -0.09063087221469553
Ni 5.737365662682203 7.964774034314156 12.241106171373538 -0.8738097210779855 0.42222039049878257 0.38670342853909534
Ni 2.162916457262624 6.272211732502383 0.5653185219693885 -0.33365539967418023 1.4868980116373554 -0.0071643789589231465
Ni 2.4813695898909764 1.5389067661036138 0.3663251071524254 1.9545027438082079 0.23343277000599152 -1.614951290364567
Ni 8.162563708589461 8.799605632058976 7.081639068928531 -0.7942345924568193 0.781571395166854 -0.7505726327924944
Ni 8.351101492751203 2.439179885707423 1.0927250953991297 2.0780463075905242 0.6088498269979901 0.584194233232839
Ni 6.887394595947963 0.6522546354538983 5.030265316177772 1.1448117075870026 0.24508500953293924 -1.7696388838498556
Ni 0.7613102727309341 7.622336529661198 2.5245966272084743 1.2822939929375983 0.06938918922709984 -0.8267060827219633
Ni 7.936457643360521 3.9768385962531956 3.5501184527582694 -0.9882225262036272 -0.22137146796608326 -0.08601548492987122
Ni 7.761901698998945 3.9813243611567413 12.404181813379145 -0.2907532009940154 0.15442045586683084 -0.3759359056099461
Ni 8.147288593827184 7.444352954455985 9.127717629439317 0.13461396266386494 -0.36792871903475344 0.00446214953641167
Ni 6.866901161932973 0.8543410575229031 0.11013366787482357 -1.1018573155126636 -0.7912292299715922 0.12090766882136596
Ni 1.9325778557940474 6.5771804387775346 8.96604559774224 -0.26939093326815544 0.15764307656918655 0.3280439670246737
Ni 0.15935408503421652 5.2562854645386 1.231280063245493 -0.12009057223670933 -2.1469099633314572 -0.4022575742236104
Ni 6.568299347778982 2.151891966501691 6.894843136219254 0.1843360124793406 0.012324325893307805 0.4333326983618602
Ni 2.970941992156414 4.07244146076002 0.3850721677745233 2.300890503447392 -0.20515372055564024 -0.7825057340556654
Ni 5.752866874465828 5.7780269510014435 4.511071490951479 2.561868272951188 1.1090489481650965 1.8465562631332006
Ni 5.515853888927056 3.121712529872172 9.047702797972315 -1.3355312549951839 -0.3970194657531227 -1.777237779243036
P 0.31716076205432675 5.603489094401574 12.25440972010966 0.4657211419948946 0.2722865096483956 0.05721167332430147
P 4.1111583146956665 5.876071663338827 12.796396838252097 -1.5723182861853888 0.34960780923837853 -0.440784526654215
P 2.2985927578331835 8.597194534667315 1.163750309297332 1.0504686766280424 -1.796101191806442 1.0122394579435148
P 6.405057298365663 7.755959869277917 5.791675975986185 -0.9798199039622286 1.223117739687758 -1.2991645434406915
P 4.680190254143676 1.1071066747330387 12.602479753758441 0.3150447265515284 0.4294176795781702 0.18090487531060456
P 3.945248320430441 6.305918276444955 7.9855550637403 0.6988579780270222 -0.4882136666704559 -0.23039166918682255
P 5.03140032322494 1.073056463318017 3.7550473665796624 -0.1524355642263181 -0.2401693173988767 -0.7449645425770977
P 0.31278081055677165 5.597791449463603 3.4204120179393844 1.9419753007651586 0.6480745768265678 1.4446355034237186
Ni 0.779928005856821 0.3672729058659166 4.547233448545891 0.12348442840960669 -1.6099561511428209 1.6709404041356772
Ni 2.0329649332725976 6.549334329628304 4.555983403272062 -1.4297853257847635 0.28794504212125893 -0.14541670970632375
Ni 6.096832794983099 6.06636396038623 9.002049287421709 -0.07376160726318265 -1.6516229347539877 -0.2857884007895723
Ni 8.931402107743201 2.3063976270101194 9.968310179288087 -0.8834176764813946 0.4187859108959368 1.0775907296558151
Ni 2.2497738889837047 5.441929206827086 6.884320580845714 0.9112516679745275 -0.8884624379941538 -0.29995055122256725
Ni 0.8407598616445664 0.0208515716968059 8.873084450832847 0.5400157389434119 -0.6042290403965271 0.6702205167959877
Ni 1.5446134549224395 1.0155735566104795 11.234288900205827 0.09084118845328872 -0.05138632489177602 -0.3149832771859737
Ni 4.466754665991083 7.036672893322823 1.4820397476822285 -1.4534027080933871 -1.2522115717299207 -0.3956035592422026
Ni 5.668189018030543 8.203668147070543 7.90182048407808 0.20000534358548133 -0.26082890263075725 -0.24479061822097198
Ni 5.394150384275809 2.9936602208614698 4.808484939161263 1.1317155365246765 -0.2667074728987213 -0.5008028161893762
Ni 0.9894548287043486 7.519778920777706 6.626457832386308 0.003603401080542181 0.04128574612266438 0.039994538115066605
Ni 5.453858085673412 5.021117430694028 6.794231770495527 -1.380459225856126 -0.5490536807759641 1.007820760050529
Ni 0.940626915974016 7.374995432187245 10.995288069655363 -0.5849408815908765 0.8070852231672423 0.6692931198857118
Ni 4.485421236073581 0.7477661567640985 10.342589379651537 1.3389914456296423 -1.0909674080730372 0.5985427886450273
Ni 8.254223441043976 7.518693655075236 4.368208018266306 0.1555586832363321 0.42376048129239274 2.2713451856901075
Ni 7.457150045864286 6.319086166968267 6.758030019825356 0.6045753679923523 -1.0729203207633393 0.2868019296557512
Ni 2.474903215080421 5.012842279712689 2.7403673453975506 -0.7114345291404522 -0.5859119872548941 -1.6583674525666732
Ni 2.332208862967217 5.398618061417647 11.399375901313347 0.6461112824526097 -0.3933260760619355 -0.41028224430029986
Ni 1.2592066629343233 3.257560664178956 3.875911599087666 0.34629879946980363 0.19991252676135896 -1.334278099314373
Ni 1.719748207658667 1.149395861605985 2.562042815884144 -0.2914977924695238 0.289826575414688 -0.24785460185827637
Ni 1.1369424376701323 3.474034996298468 8.0297787367279 1.6424888336632035 0.4135825123181264 -0.5406173770831528
Ni 4.083646829138032 2.986289457965522 6.8514668748676675 -0.8679301223687568 -0.12221867432330562 0.8347932306054718
Ni 4.027366758584066 6.955015693092749 5.730840502646098 0.9329350664852321 0.9260802483469278 1.0941974849745606
Ni 0.6029700067404424 0.14803476375744595 0.017767608325618005 -1.338049393431347 -0.4853162905180029 0.3450191614264316
P 0.07836070565881971 5.701099700457971 7.867564072179588 2.1388778370556 0.4095137415653915 0.8077981900738668
P 8.905310511479632 1.6760119998490934 7.8974387238043535 -1.5861701044668166 -0.129487440070577 -0.9487434942723983
P 1.7917013237324821 3.307736115156523 10.133410746216887 0.6820843581131092 0.08235603380041301 1.1870479905483944
P 3.977507843436386 6.322513797811904 3.4775413089055336 0.3249496443700662 -0.17989314621663854 -0.09315312441591699
P 6.814184380435452 4.202184975490407 10.20585494502107 1.6357926525899507 1.4407325688248864 0.39753702881948955
P 6.175188978701492 7.990675709079793 10.173120618270293 1.9278077510155254 0.2074638567460556 -0.9202086200574991
P 2.6332615688326206 8.673380186980765 5.539213328784656 -0.4599896388277562 0.11446756962297705 0.5949743545674786
P 7.039774944455719 4.181094645339057 1.3218102149813524 0.173923558896765 0.394010760833786 0.9810558332518589
Ni 5.59407441443264 3.087608055172027 0.16493415952108728 -1.2742099303778829 -0.08554985814736235 -0.009514110138022324
Ni 1.770547686415155 1.31724124637395 6.853558724509179 -0.30074399365814014 0.07774450317033062 -1.1496142711819686
Ni 7.035569539858645 0.8662229081887878 9.162027400234846 -0.38727447055121694 -0.1767710556478891 -0.35381027735550036
Ni 2.8007632861281366 1.6388778250628835 8.893932404977312 -0.2726840021971304 0.6973577393324119 1.2438613999930126
Ni 6.610217735536917 1.9894548224843722 2.512524855044657 -1.2457920413568222 0.5912074313258786 0.6676866946305404
Ni 4.223826982373845 7.006656252768652 10.076917240074767 -0.4544355417787464 -0.08425890725008069 0.822068841060268
Ni 8.22814088866126 7.2298592322434825 13.132077659519089 0.007426631481374306 0.4469662299848947 1.0690999185759846
Ni 7.955929118839018 3.7850088394606254 8.02549012842697 -2.3771944175164545 0.8452038844158347 0.035141838008455606
Ni 3.220833464031173 7.9797416571273985 12.391051002767334 0.03539689144205516 0.7489163281359941 -0.07703436447718345
Ni 0.14672340103362702 5.038400287005876 10.057300158114522 0.03985749831657006 -0.8805385551613867 -0.5437204414885088
Ni 8.69796145514173 2.3799515099950788 5.4956516678755625 -0.5347056395844082 0.22225207079882364 1.4007238896424328
Ni 3.4972868139739046 2.6357576799483033 11.500106646264346 -0.0076796280324448385 0.7597409295553238 -0.05998846473849023
Ni 1.0731469021265563 3.345349615627991 12.301001985492903 -0.26491772798815016 -0.3322189243379698 -0.11917371684939476
Ni 3.1731722119309964 8.43677417608042 7.793081382630931 0.12684306046919447 -0.07198446075810183 -0.07036877953154978
Ni 5.90569941701628 7.88959225277549 3.3633360858702743 -0.4213318172462422 1.1893694395927195 0.304072800921057
Ni 3.332190768985533 8.39288422229633 3.402172319033192 -0.13879560484538034 0.731272904022618 -0.02935068524797526
Ni 3.3500343459103235 4.3608779528342 9.193252303271102 0.600959625616636 0.5780703797232883 -0.8480529238288556
Ni 7.359467088761059 6.147342869552261 11.162453354583114 -0.6767955989103441 0.1541692590879732 -0.03377658222981279
Ni 7.964801165956717 0.065047208653759 2.209763760085947 0.398241768195998 -0.509452007223942 0.08520635876501455
Ni 4.74319897205296 0.2964963986911971 1.4827415528364931 -0.2195920074681573 1.4743461431142737 -0.3812532040578015
Ni 6.117326228998089 5.776607061707378 0.08134518634061445 0.9610433946856738 -0.776760861152088 0.39599745224651156
Ni 8.002116218360005 8.82926051737899 11.309975330296142 -0.044592441898394175 0.6637899306792956 -0.5467548574394584
Ni 0.31744564430122535 4.827994398939347 5.66571642100508 -1.108166031339511 0.3587539945140209 -0.3140512522900075
Ni 7.672331103021687 6.460505331881068 2.4922068723182327 -2.4510210736896174 -1.0387495884189015 -1.4903638586987689
P 8.75141983486927 1.7336938719354171 3.4061959416251026 -1.8941700083564217 0.38534357207709113 -0.5675707657435451
P 1.5296006127049266 3.110009748047195 1.4677305193951506 -0.30806238169642425 0.41954747165230977 1.3666305475031497
P 4.742068486946221 1.1621658213717247 8.140542763098242 1.1956511588363732 0.9822686226130373 -0.42720138865314167
P 8.419192871700393 1.8016857681952134 12.25807610940784 0.4989791327170761 -0.25885352407194134 -1.8407082889928557
P 6.4325597400424455 7.7588267795086105 1.1285370548044957 1.2974748144430943 0.9922982389348973 0.3730912370722994
P 2.098252709157071 3.4027511274078432 5.815805954492538 0.06322291251538788 0.04195397583428258 1.5087660153550402
P 7.080101609183364 4.254006412783387 5.697298557335066 0.9109027692755408 -1.3721540484245403 -0.06770383110487695
P 2.7438230122718346 8.508247966468977 10.232116566244692 -2.440140936442004 0.3352122026383388 -0.7395801383367328
