# total energy = -381169.6418769163 ev
CRYSTAL
PRIMVEC
9.23549243740229 0.00000000000000 0.00000000000000
0.00000000000000 9.23549243740229 0.00000000000000
0.00000000000000 0.00000000000000 13.51707672001873
PRIMCOORD
 96 1
Ni 4.336857848131302 5.058103612804469 1.7087609289989192 0.9598889693662565 -0.7100515327499964 1.3126890602896877
Ni 0.192268171166808 2.8435434051157635 5.664398900051668 -1.0971866495098719 1.9263512210746567 -0.8581653296725092
Ni 6.6169069311295345 6.7701791599600085 10.573652237699081 -1.3960262270564474 1.3473555013236216 0.3441035915906977
Ni 8.127602570497142 7.170039030979785 6.03045409891019 0.16193630462790173 -0.47028253611333204 -0.6546753699725371
Ni 3.877493700758504 7.3045447396256655 7.912856134823798 0.7020613154556684 -2.236711397666322 -1.7860008701476469
Ni 8.133910411681237 0.9075339546295795 12.258447064395332 0.5377403126456739 0.38648539899101825 0.05156527367180151
Ni 8.141483515299035 7.031312702390815 8.464393265168201 0.022281179995703563 -0.6045218890465975 0.7679314357859162
Ni 4.5434003960684395 4.26282614252121 10.592007778480028 0.535457173038452 0.06892356244459097 0.22755574239992427
Ni 4.587509106896009 3.4996604786758616 5.682957621661384 0.7920622673958488 0.7432509023201006 -0.7178656294777765
Ni 6.156000456556526 5.6413988302348805 5.830942531197724 0.3080605819242114 0.44334071741716546 1.4004253845654075
Ni 5.846722293199397 1.0088759342740528 13.154008126915016 0.08887275187300823 -0.24281266855899472 -0.29294095267395354
Ni 6.025336712672845 2.2153359890349194 9.792757199445088 0.4564165767645172 1.0347047289255664 -0.5768943571373162
Ni 2.611880318348855 4.742222072512308 3.4789443460842953 0.47301793276662407 0.4307721367235356 -0.13953531122488227
Ni 2.7950755419618516 5.7944217007755 9.756003634618999 -0.17868729883399548 -0.0547243881260735 -1.1022049286600695
Ni 4.192756463072138 0.9517082374518886 10.48589936130245 -1.1704605185033585 -2.1233959393699173 1.33085673233765
Ni 2.262390821879657 2.715170063301857 4.499118057987193 0.8389203653999682 -0.5203164607422717 -0.7251030277664803
Ni 6.819718340211073 8.047826388728184 12.661080353727822 0.6559460091548445 -0.47417672896141566 2.0025666891949703
Ni 6.297737555608182 1.8089928024789297 5.417833423043686 -1.588300263435942 1.6746109110087288 0.4755388994162649
Ni 1.46073162647457 1.0945074181084802 5.989213931965168 -0.8814086164711659 -1.0226328853626967 -0.10499665401806432
Ni 0.8607358684684696 6.95519377553972 13.10043950140975 -1.5763135233877112 -0.6899925572165924 0.34399431970634303
Ni 2.2329296017079763 7.401794472668862 11.361603192006731 0.9813530527773033 1.7472363477849393 0.7568070437379805
Ni 2.4555234351179602 5.17846054737417 12.05605587020966 -1.219860409092725 0.4612343098681347 -0.03259130367246
Ni 1.1433908784121496 8.035811013354092 9.459033611739237 0.43509338980670875 -0.1637137082432987 -1.0833942237114698
Ni 7.451832369499635 2.0069278716699834 2.8058210371561305 -0.11519776292078225 -0.37473751442647074 -0.3194942776824497
P 6.857574622807849 0.21091370640336168 1.3959492663196313 0.906859966664735 -0.8235084017202721 0.4284555727752169
Ni 1.8509404081277616 6.8345320697268654 4.310919968240341 0.16424206994294294 1.4869671743123938 -0.13615713878126873
P 5.338668630859482 0.34996512431836446 4.24916038468797 -0.9836163948901835 -0.7978269377937679 -0.9243064442759565
Ni 2.734703129340448 8.473767289768283 6.432803858631623 -1.345536960057644 -1.8621116943692961 -0.6092822865497184
P 0.4794411839029602 3.288250826340456 11.923372324178159 -0.9372704606357922 -0.439204840871921 1.0205045261657844
P 4.440286125467557 6.116232427070865 11.86462720528536 0.2445178241755595 0.27125369750850703 0.1447291967209959
P 8.349734629296284 0.20926332394421454 9.459398413681802 0.2450919515114747 -0.37197743518283033 -1.1173685237743853
Ni 2.6318843944905037 8.211784082053528 0.32980404480902936 0.011938146198482666 0.3200928304983971 0.03266020923718246
Ni 8.704626888712326 8.103276283998019 11.17425661464227 1.1763097781952838 0.930037947443095 -0.35209817976040003
Ni 4.277445926700449 7.151900524265935 5.002116211887616 0.2768697581437038 2.5048759147265445 1.1010721006072068
Ni 7.737633911641589 6.942910570891339 1.1838931295290482 -0.04177528416457322 -0.11056257814161603 0.09093066284330147
Ni 6.489558728951695 5.288519908122106 13.155994681290855 -0.4536711528088961 0.5289173150374051 0.10957707429989515
Ni 0.20374419379543823 2.348973561412418 7.8852272363079345 0.2926715010626508 0.03228714216847988 0.7211604981789644
Ni 9.028718781585248 4.79945441777999 0.3205962590688521 -0.4809541568945653 0.2476172890364897 -0.9119630922192553
Ni 1.9570469782068964 3.4904342219512507 0.28372355639316704 -1.5489868105483 0.6315323561971704 0.6346734729293134
Ni 4.170314216985246 4.2490283171492695 13.270186924805824 1.1804145443922767 -0.21772950033812177 -2.2487415893579787
Ni 3.322486795988237 2.496972324187084 9.144856019761079 -0.3028890650256009 0.8020638586932508 -0.6163949863350998
Ni 3.6938089960580154 7.188075947279249 2.657186872516947 -1.548607058611378 0.1259917682124927 0.49818903271561293
Ni 7.6104057708625685 8.425761201225212 4.007002084565858 -0.3165413657017129 -0.931261535437551 -0.5063327448686699
Ni 4.558315715998616 8.286840927299687 12.17965630964591 -1.0825930679664129 0.6948750821198741 -0.13407377388967878
Ni 1.2299182049916095 8.001962934379417 2.2752891103096786 0.42119220634458426 -0.8383755486400916 0.1462939701049545
Ni 1.1257141463091414 6.510255467009607 6.681598783460748 0.6324826359255816 1.6283742486386923 1.0853886284336791
Ni 1.4076737236888943 1.044894353919681 10.022019981784842 0.9746067351924055 0.21327557833182623 -0.4556087361512412
Ni 7.35259700562982 1.132862417284966 7.5058027389163335 0.3773937211023952 0.26546820117498154 1.5277770092399043
Ni 0.46626121296032524 5.989050463752929 10.41483963708773 -0.8214047251137079 -0.4390112368038762 0.42897724960664185
Ni 7.259115353411089 3.908118592949505 4.423260495565835 0.4760492633937801 0.053044172210173164 0.6479257099535293
Ni 2.595090193498662 2.850313020910699 11.581133612648392 0.4951828988994375 -0.7660133928275968 -0.6483404288934447
Ni 0.4841512849335424 5.031930227861979 4.82827284769338 0.44104960739014365 0.09213445334341551 -1.4737987552512362
Ni 7.403817045464347 3.077219829185941 12.708457505250927 0.8062092483201921 -0.12953577681000916 -0.8467326623555353
Ni 8.268730127062488 1.0274946865831776 5.111171674631583 2.4333614516263253 -0.2781954189336628 0.2280067138944138
Ni 6.083178600426838 5.376903568637149 8.89534442073593 0.9360733550038977 0.421297621574197 -0.961281478838409
Ni 5.484543230424277 2.8186168116225456 3.3346896518543314 -3.0351104059134757 0.2411545641302814 0.37234690270710713
P 1.9680649204215719 4.810998783051025 7.879671164190292 -0.6700724212538975 1.6130607582100736 0.4436929585502617
Ni 9.134705290265565 2.5376823738788605 1.1618166089339428 -0.5794562043272214 -1.0098388189218224 -1.490144543599111
P 2.9139455622846424 2.984384661422388 2.2343731091414667 0.40356163774701465 0.12683071917402028 0.49148231011939875
Ni 3.1936332085790555 -0.02666101893153851 3.7351738421479657 -0.39268304316129793 0.21487917537352028 0.7613419554938565
P 6.174526853943482 7.379259871659802 7.590879169668529 -0.9049694345102415 -1.3097634020024602 0.49095214864754155
P 0.494406375491108 8.463691367759724 4.840573599776972 0.007970162689670145 0.31436184155189084 0.29725937754364934
P 7.502719931614356 4.453132695141164 1.9885510892569394 0.31736463293395667 -0.6075262230905601 -0.429887420125737
Ni 9.007865040159652 8.884312625282929 0.5526537013534193 0.022362683965916324 0.7573492893946956 -0.3264285429084378
Ni 0.4225644050856262 5.586105938332731 2.4878993766332718 -0.5110219228142231 0.4317255017757403 0.26599733420557414
Ni 2.6319952203971058 3.1150391698138504 6.900765325709067 -0.9751402390983723 -1.2629099319840313 -0.5077388811875772
Ni 2.2489716516886067 5.972177219472785 1.402247872011508 0.21539493866767417 -0.24796747328705682 -2.3400201224590025
Ni 7.499958519441525 4.634360758911976 10.741750202185228 0.07564005523281812 -1.654844784125395 -0.0886881466660279
Ni 1.8068594037768426 0.7669697630894604 12.443198468446864 -0.555977661589307 -0.5517656803904885 0.3091990664040288
Ni 3.6866791960666245 2.0130787094863907 0.3329838247792832 0.39540249897498997 0.5555354318455659 -1.3246693725800154
Ni 4.053974721529866 0.336047237547605 1.562682225056132 2.484650845928921 -2.06741325335671 1.4767552667763986
Ni 1.2554451054789215 3.814987889435013 9.774130135192967 -0.22614420676437827 -0.11254772689244487 -0.14288700130593457
Ni 8.628434077923497 2.199053816256652 10.222410768356351 -1.1915430502052704 1.3525887246981028 0.3877992327064353
Ni 7.64598088688179 6.067118079461776 3.452599180986572 -0.8775992700274047 -0.03740723700386461 1.0871446918928374
Ni 6.596902854987885 3.5632745490653717 7.3284591231719185 2.6335141194229483 1.1517254039877003 -0.6379063780443143
Ni 4.830033132509906 7.288585809074987 0.7015538481684472 0.8235991616618653 -0.8165656518538518 -0.9732936728079368
Ni 8.866358828413416 4.928169472805919 6.765688863644186 -2.505348226377272 -1.4459434236018645 2.4341793195419306
Ni 3.736393850669809 1.1228419082297079 5.8116532821536575 2.4236056577911422 1.2343377767732935 0.044166924325201355
Ni 4.88001561638738 0.16987302609022226 8.295037426642121 0.5065191498478631 0.8905751134617823 -0.7088680539648566
Ni 0.21245972780045863 8.705855209177166 7.418874591974664 -0.12365617810078057 1.288592167241484 -0.4093736164431015
Ni 5.862496513905738 7.628913697265091 2.772041300823861 0.7689915016193143 1.0680676206567283 0.036664445300569115
Ni 4.225136098784336 7.685425674139861 9.974520921764476 0.9167664271451695 0.10973648269589487 1.5210090943884516
Ni -0.14820563780032253 0.4730705413717924 2.7522524116508644 0.25864706448809005 0.5524585926924551 0.6400835882012912
Ni 6.421927219447865 9.214536884987824 10.720771781614705 -0.025489659630672228 0.5024087272239154 -1.2196138402995576
Ni 4.133206009258032 4.758799781041514 7.989173624757554 0.18136510277647475 -0.6995506332186727 -0.5180055532209079
Ni 5.023886114141122 5.531533414823497 3.8566381122344633 0.8705948136851136 -1.994118301317301 -0.7833086895729349
Ni 5.99920950519144 3.0492085812923024 1.0088833226678262 -0.16860934577270317 0.8200898629570265 0.6879616428294926
Ni 2.9688597990059007 5.464215912055039 5.880617473184375 0.7587829365174287 -1.1396108801123535 -0.0689850118101457
P 2.6136627683467024 0.7252807512226996 7.971020341256157 -0.9129923048147179 0.024416224060835368 0.6932660857615416
Ni 1.9049588021039874 1.09296509090827 1.793162245270065 -0.7521325210804466 0.5284354903049803 -0.5694535845885548
P 8.41024557430094 4.219049909413447 8.814390713709326 -0.468816750201083 -0.27461798599504966 -0.04717357236200908
Ni 0.2449114003519482 3.361312805267781 3.2057640276058588 0.22262590919847464 -0.4886008748065457 0.5768323935511291
P 4.968325392964687 2.5120261765005125 7.687378057194499 -1.3951345684801135 -1.3677710888654961 0.04723090796250575
P 8.101281417679184 6.283154713397811 12.018113697535266 0.8197417355889883 -0.8902542397872538 2.071573298271671
P 4.744567887535382 2.422996031530293 11.871020936547069 1.0447608276099878 0.8733538644874894 0.40982510215822326
Ni 6.459931269920112 8.814935607750117 6.075317349451875 -1.2343020384393517 -0.493654378070053 -0.4843297582350174
