# total energy = -340887.29925451777 ev
CRYSTAL
PRIMVEC
9.10275140726837 0.00000000000000 0.00000000000000

0.00000000000000 9.10275140726837 0.00000000000000

0.00000000000000 0.00000000000000 13.32279680475538

PRIMCOORD
 96 1
Ni 6.800328686345369 2.147457364883276 11.332144338962973 -1.7312481998867992 0.44606994342287054 0.4425858415290119
Ni 4.842654583090114 0.2850799648744005 5.685130599855634 0.48200368120500214 -0.36855581109579105 0.8407188520612876
Ni 2.9590768753287486 1.8282602881770458 4.947660280861528 0.39574651257797006 -0.3164179527499712 -0.8116779847442473
Ni 3.485425263122748 4.500054332819413 4.812087544261063 0.9633288482857408 0.2761994715495566 0.28137793042670245
Ni 4.357632686148972 2.7781505907050947 2.2247870576350803 -0.5673627634977971 0.5419103848629635 -0.15562141815346747
Ni 5.670076469773595 5.02653926188275 2.542056171618264 -0.3707903568532646 -1.6909001350870558 -0.157753891115438
Ni 5.912136832055352 3.234061889023453 0.16141362696017686 -1.2943848626638612 -1.669148602342577 -0.33084338414668185
Ni 5.780574767672898 8.217736295085475 12.51387625517555 0.6490371978501532 -0.40493717793830264 -0.953365823535758
Ni 2.3116345871348467 6.103303711879328 0.2841924466237059 -0.44986000659292197 1.6323717998338598 -0.1860668791275183
Ni 0.7039221291178492 0.22186863937210752 0.11525175462250972 0.1900762573972275 -0.1277141502202381 0.40586560328984295
Ni 8.457020318224034 0.11375981368621385 6.8180344478779435 -0.7368822797895954 -0.042987559305119515 0.8694912962082897
Ni 0.14980397796596234 2.511676649465769 1.1126784449328915 -0.5351229296274849 -0.41245122692716063 0.9323534829501492
Ni 7.412698073822076 1.0550634909231835 4.902496070065154 -2.0875799581125727 -0.5545051908088385 -0.32770406718675177
Ni 0.8500176462086015 7.471665696673357 2.1356174162814456 2.01622978850436 0.11814707535709329 -0.051756306636685054
Ni 7.878595090304661 3.5851094924905094 3.3445019293145046 0.867132566168126 0.9909779774615772 2.861984660327658
Ni 7.902526223443903 4.017799672270181 12.395689773537411 1.2725091456366924 0.8926769902961336 0.800912261587311
Ni 8.555284518390684 7.740733922030097 9.082137198606103 -0.9563783851098367 -1.2935171153469274 0.06177281033242265
Ni 7.1428197036006 0.7325056784409895 0.14608277323894736 0.748326517070795 1.089687512919349 0.4268059529869359
Ni 1.9802125154472536 6.599458273647132 8.970891564825958 1.6029509234695813 1.8553165258243336 3.3075267562715167
Ni 0.3545976764698343 4.948310217303575 1.1125173262350732 -0.5974207592254421 0.06877700956439768 0.9889876865044258
Ni 6.237860581435921 2.585909586228996 6.733008378911142 0.11556620200379451 -1.087269904616792 -0.45697244926798725
Ni 4.148779160570128 4.734641336292756 0.34665279514464187 -0.21988434189759548 -0.7750713892648071 0.1679313458690721
Ni 6.25487362359539 6.161388367855557 4.489969394666136 0.3295992273269356 -0.6817084628309292 2.291639931383402
Ni 5.797050747506305 3.0800069262054457 8.965549160094342 -0.6544722528227954 0.5317064477467682 1.4572624481591094
P 0.3955491339695774 5.928885894427435 12.442785588157347 1.4032278870112092 -0.5873574614521692 0.17854485971886022
P 4.588715130375983 6.44279992396042 12.282899402863494 -0.8024896333767599 -0.9554052225632902 0.7928081444229379
P 2.586000613741888 8.568064781200686 1.0809225867854737 -0.3511712970707565 0.022028954775581415 0.055091284547188986
P 6.718085328447668 8.005496546027057 5.974568051772162 -1.244321884569199 1.6526536900113473 -1.7598686918369688
P 4.876134502331702 1.5383649678706715 12.354095661796652 0.10840722236151006 -0.7471895752528745 0.9511230502481683
P 4.454240185580993 6.275081731457361 8.024360177523617 -1.228182555805175 1.0085980045361855 1.3258402529596651
P 4.6351209564482 1.139746386166384 3.6724685966127275 0.6409585346070767 -0.657926529919983 -1.3615220226319906
P 0.2756631686657484 5.855226430995426 3.4379343890968603 0.7075423931748976 -0.9474463727275296 1.2016402865402724
Ni 0.6966909034937282 0.3973651328517679 4.772572500914752 0.8466982095731741 -1.2134730175091424 -0.6155701764409591
Ni 1.9518119314250257 6.8813067618138755 4.771653123034544 -2.1344735373403174 -0.6106156606491613 -1.094902224351069
Ni 6.33415858732411 5.967763745183503 9.215964937784433 -0.016036227527256253 0.18702795748920692 -0.06873021548686227
Ni 8.892150035349204 2.761401528333012 10.376339978922347 1.2124291496256603 -0.7088364293959727 -1.718703530452569
Ni 2.3002652507746664 5.417356785732214 7.158471884442338 0.9982369730168356 -2.0366695444159504 -2.224896407309265
Ni 0.5832997512347259 0.5440687137286371 9.166883813108328 -0.5990958329350199 0.6950496600245255 -0.044774218891897075
Ni 1.7832835940572291 1.2811030109359913 11.504888160452788 -0.08134739003024054 -0.47998793632655395 -1.6630910832945873
Ni 4.482358584313256 6.921850416055863 1.5595934941521576 -0.4469662299848947 0.28637075565560355 -0.46422578839629086
Ni 5.9362227119665105 8.337219008507194 8.016060288898146 -0.024178139908100298 -0.37369441787393703 -0.005674938897590226
Ni 5.4642359548714685 2.9567465709987197 4.4365444370748355 0.2849144828250513 0.663353100252193 0.01978798126020463
Ni 1.2303824807527053 7.837632709503371 6.977135065735542 0.19728408799957636 0.21558365763971263 -0.0889390863345694
Ni 5.353164183640947 4.891991495077446 6.80481816328119 0.3198164369085588 -0.715930874348909 -0.8625979115225659
Ni 0.97207370741977 7.624154986269626 11.091241846645199 0.46546865966445644 0.4733899713940622 0.7011442029580376
Ni 4.518660356454488 0.6885211842116932 10.354863857805794 0.11999801252290301 -0.2565721842369323 0.11273875985732842
Ni 8.27364539350359 7.5570312982632455 4.560086977571526 0.8357532805258961 -0.05160666843269822 0.5985345611149111
Ni 7.739896468911493 6.522976957315478 7.023405260813551 -1.7080475934006198 -0.046796648638564566 -0.7127352502297468
Ni 2.4066946188477076 5.580004745767203 2.8005187814479857 0.029242441804885125 -0.7621307699437391 -1.6545097693834796
Ni 2.793943864191814 5.55055734534672 11.235341130378236 -0.827751236157026 0.4450708127343948 0.9685672138665448
Ni 1.3981279815096326 3.4105551337692783 3.722896018204502 -0.09449626870737275 0.7711342589939301 -1.6574431409801906
Ni 2.0074934610609128 1.3342721812160658 2.358135081820471 -0.659991897089444 0.11358105325296568 0.848379711040655
Ni 0.8216079594350846 3.598272070854657 8.17694595628355 0.5017464110495681 -0.16430300508786544 -0.43844816521155455
Ni 3.688107123327531 3.0055464206599893 7.2672124410676995 0.39923858489162856 0.06981702079313781 -0.7152924694339616
Ni 3.7245090257329436 6.9715696435973395 6.079005737863132 2.4055374874355215 0.24663075675350432 -0.05541164400108521
Ni 8.489890353129246 7.371298760958906 0.34609388621548653 -0.6996118254739113 0.6784773574881412 -0.7987034268614503
P 0.37457002307341447 6.027122786340217 7.903549372688807 -0.6066039683866068 -1.8559821844327906 0.1800849505124705
P 8.190373424710215 2.080461115394944 7.698991435443325 0.9338519218725466 0.26104950328199555 0.3844326302270476
P 1.8819574180318925 3.6394529176868873 10.279190865788621 -0.7880024955041783 -0.7407093668451695 -0.2876825324884917
P 4.248973144010083 6.230296195114616 3.713929808184664 -0.585951582243578 1.3685922992152109 0.17212327246323259
P 7.411724079434135 4.3183816225900475 10.270544162339034 -2.5281202299664653 -0.10027302329014988 -0.5815791642074952
P 6.572605157344063 7.987218221438393 10.192312386934471 -0.7094257262405395 0.2605206273617191 -0.3364437610525947
P 2.5844986597791735 8.832090082343223 5.5196880951748675 0.6218230993292065 0.24294482326148484 1.142930945624522
P 7.326076292554283 3.8656926982280573 1.4649212396442162 0.40681151214287997 0.8719479852788983 -1.9226400907716568
Ni 2.8861274264972954 1.773306978644293 0.20969644034822194 0.9391543079220663 -0.08156670512989823 -0.4780547238595832
Ni 1.5497525097334302 1.3680615940014857 6.969608000694523 0.15543141362984844 -0.5488508207365386 -0.5932126346813654
Ni 7.150566144947688 0.9700164856284164 9.322240469360686 -0.4820738723213052 0.22360652794418912 -1.6035613033600704
Ni 2.4893384978021325 1.7907296446117749 8.960886730884027 1.8608446547314146 0.8405388748399976 1.7790560633986974
Ni 6.638927803236997 1.6636097228584381 2.382329284471971 -0.21390549860634128 0.25099931813484516 0.23628438052217374
Ni 4.362347911316765 7.12669873106747 10.134544506703106 -0.076741515827113 0.7799955660393019 -0.023654920414778617
Ni 7.748307411102691 6.60852461393115 11.38644771205368 -1.3521958601350583 -0.33732590654723194 0.07924191365146353
Ni 7.595690682988374 4.326810770283823 7.977503765262585 0.7882657764678941 -0.3560327389281159 -0.2995052361550326
Ni 3.4187931236859823 8.436438997559208 12.387176880531774 -1.0559350990592524 0.06822705059819861 -0.5941366891575316
Ni 0.21715341420431455 5.20540832471505 10.315935031642507 1.5467923740001426 0.21315036560787162 -0.7583731026735198
Ni 0.13577299712882712 2.575177442459058 5.498718087029994 -2.181878766097159 -0.24012997952050902 0.7756732845148641
Ni 3.6107701483746952 3.149906953355025 11.416664294958098 0.9153492350826687 -0.7271002607021672 0.30376581120359947
Ni 1.3589861509661776 3.4963485646697583 12.482128589504294 0.05331928024843075 1.3356042743249643 0.3017942892995254
Ni 3.4911326881810605 8.513830589019777 8.053723832632238 -0.1950567413309544 0.37716874957578267 -0.43972831747555885
Ni 5.707816476618517 8.212210925052945 3.42623735369027 0.09008091324849647 0.9169248070999046 0.30729362185119985
Ni 3.12103302626576 8.492420917987637 3.210687844263108 0.6851604259352715 -0.6134644429518661 0.9168237627456662
Ni 3.50394936199622 4.497487356955866 9.276116828578434 1.5426644678746981 0.30514649360121 -1.3870703034147402
Ni 5.546998169592652 4.611371878334741 11.476869891984704 0.2524062257847008 0.42352419691187054 -0.6084248236454296
Ni 8.262612858941111 8.888163030284545 2.5508894814692797 -0.8002975108214476 0.7420028888456125 -0.6704465167638647
Ni 4.735396864649759 0.3989663068035339 1.2629493940399885 -0.2869209717321188 0.18357573727454835 -0.14386093518342966
Ni 6.621168335471816 5.76111308541664 0.45420726327702476 -0.7820460208104273 0.19924789659416653 -1.5559125911338558
Ni 8.025495290609376 0.10580765015999008 11.236925919377683 1.4940883587382077 -1.1099223519089851 1.3469515810169834
Ni 0.09625613323225815 4.9443960342492295 5.784052018665363 -0.062114509942557544 0.6222303620699542 -0.49510910823870863
Ni 7.596573649863423 6.568099295455922 2.4137046476155017 -0.011453750362896404 -0.8850071324557017 0.8604088742910472
P 8.803525648797791 1.6374484156533473 3.3654719374593784 1.177497884966114 1.076082777651721 -0.8994217652191349
P 2.4108272679329934 3.5207621436273273 1.4407142931409116 -1.0429793102295328 0.7882092121983457 0.26819871273226714
P 4.862079854341214 1.2466764055603294 8.25824171777205 -0.20937110107109747 0.5161250483687433 -1.2942966738254291
P 8.850413920688334 1.8864086634122994 12.306427284120627 -0.18524618299843582 -0.5488605909285516 1.3219797415629941
P 6.46917969719645 8.117815394184195 1.3517576561674431 0.42241270901524675 -0.3095561926331314 -0.46439188166050993
P 1.9694985771798939 3.521690624258823 5.9190922443154115 -0.1664010252674747 0.4393863607551078 1.2711382334310948
P 7.045820785863145 4.189404739573718 5.4564977060005395 0.4748462442246144 0.6367866626175742 0.25553988631767605
P 2.4601459744177463 8.831935335571307 9.93516876576655 -0.027537800408952574 -0.720287865766024 1.0801713458987976
