# total energy = -381162.0618711055 ev
CRYSTAL
PRIMVEC
9.30621898468271 0.00000000000000 0.00000000000000

0.00000000000000 9.30621898468271 0.00000000000000

0.00000000000000 0.00000000000000 13.62059217112423

PRIMCOORD
 96 1
Ni 5.78597406888691 8.042322670609266 3.1891258087553638 0.30424249372970186 0.0032681292283105005 1.951567058218652
Ni 0.38728295127766177 4.250187381632162 9.047695829783345 -0.1555892793639514 -0.639699208278679 2.42282609931264
Ni 1.2528404088093124 1.4105622061745684 0.3803042177489737 -0.04436232816545908 -1.0641837122212898 0.5374898871977647
Ni 2.165780479704498 4.665710054063049 10.795245527366532 -0.502887723742863 -0.05247570130121285 1.0056731175799067
Ni 7.051387179386125 8.82570156243205 6.190232494000656 0.7755997509644514 -0.2650910203412209 0.09522543356391341
Ni 4.75159714799059 6.029964515153271 3.5402503772455014 -1.3634608915259163 -0.3257258604144584 0.6506881031900149
Ni 1.0839976798974738 0.09666648724168773 5.846502647022581 1.561909175036923 0.7365714334173961 1.555548780036534
Ni 8.180287365318963 5.773634022668694 8.25687103224473 -1.1400022020135012 0.09027323176496066 1.6450478526396313
Ni 0.030185651518405972 6.090706205701006 10.984979787013872 0.2793002219620674 -0.747952421560828 -0.2148897168964815
Ni 7.750098091953001 6.254560801299901 5.792837405301642 0.5945447232292277 0.066356315938047 -0.1824377670153632
Ni 2.151774620309012 3.828159662212939 0.6158622990995534 1.057391629000121 -0.33042429433139225 -0.45142555130782896
Ni 3.7370052484064313 1.9970587316379367 13.539726712989152 -1.2267800190306934 -0.4874222811174122 -1.9857994970389607
Ni 1.654208322342834 2.433939176369583 11.96247523694867 -0.4203625113544373 1.5916617237090072 0.3887808798934143
Ni 5.827982340854502 3.3629696996865612 3.758616149860385 -0.7735994327049709 -0.6169619145821633 -0.7891882882821635
Ni 5.847190376596886 1.273462989819544 8.890909307414267 -0.9156611098961327 0.14802612230471282 -0.5229233022374994
Ni 3.227871320388035 1.3668974272485723 10.960980909798536 2.379202963306051 -2.001388866836786 -1.0695493474085773
Ni 1.326945829650682 -0.13084729851988275 11.61237156066829 0.27926396940749326 3.338415475430573 -0.5153807140035511
Ni 3.1611829559840094 8.022956429146138 2.305285353636754 0.7175164736684739 0.25768418635418844 0.3442722559580781
Ni 8.136966916491062 2.662211418968849 8.3406781862554 -3.8301741791398105 -0.4622200708201717 0.46278262819186106
Ni 0.804535649796005 2.6053411154699657 7.6247805486841465 1.630646846722953 -2.027881513810675 -0.31218720249807524
Ni 8.914724852117915 0.43015856284369947 7.5678730203097935 -2.135978404020618 2.828925158769528 0.3963666626604722
Ni 1.6321339711892828 6.047320613341034 8.701093153040894 -0.04097541397109718 1.5357060342789939 -0.7027616839568025
Ni 7.755365411831968 5.574722900596179 12.793781155938731 0.9284747167210332 -1.0753646685387739 -0.35108542222516953
Ni 2.598249776692982 7.8744291760219065 7.134370733027025 -0.7269405951958512 -0.1528968201334528 -0.09724220688362607
P 3.005350321048842 0.9475033677688327 1.7651337981332027 -0.891599955181871 0.028214771871319152 -1.7154114899648587
Ni 3.8136605732174784 7.68459161734514 11.479435016012667 -0.8499655674705362 -0.47216175541391586 -1.6220421357730774
P 2.105690224477483 5.230606845535105 6.571540852765426 -1.8232363574603376 -0.025534653935994734 -0.6592982134565291
Ni 1.786784716328286 0.39830616752613623 3.577747924928049 -0.2585318790664644 0.05520724129976298 0.22597734216921078
P 1.8414680583933227 2.221962123007192 9.500757927881684 -0.03325979049439433 1.1672602663985059 0.9141066209248193
P 9.190812447258052 8.893292630066217 13.56503404457725 -0.24300601551672343 0.14211464191628428 0.02459825816465441
P 4.789882932411209 9.02031321138781 9.87983279411827 -0.18004921217852862 -0.32383172871553906 0.2662385036821028
Ni 4.393875400945329 3.5285087209004606 11.049705469858758 -0.09324002770276846 0.5492043474212154 0.5459850691529694
Ni 5.590580697546285 6.251340849571768 11.290844490664135 0.5950530303242139 -0.9795532805644033 0.2050305647142146
Ni 3.411966942023596 3.556967138197071 4.441742868311858 0.4307896202250323 0.4065605724743385 0.35955617870034207
Ni 1.6261500724575233 0.2161909092655646 8.497056165616197 0.47404483136924164 -0.7083031826003221 0.9079922804969652
Ni 3.862071523765865 7.108201645571804 8.785963077246224 0.9090487467859376 0.01209601193258562 2.342546745535598
Ni 7.508099176524271 1.3149594197494283 0.22283741078068536 1.2438151201361096 1.095131823863372 1.8061300367973538
Ni 4.135004310709943 4.21252511387566 2.3969106621179534 -1.9794483580099522 1.18884673432003 -1.1142551749563845
Ni 6.641876324343598 2.7586796837486602 10.513639344438008 1.0394563846779388 1.3754442891400376 -0.7353679000275981
Ni 9.095730809089488 4.476644911552279 6.6836789288742215 0.5197598169078533 -0.7962649926232866 -0.7628308813345571
Ni 8.058441041687662 8.868817274444869 2.2508849206252872 0.8524106865769191 0.5454885891325251 -0.6050780186603837
Ni 3.388198859036172 0.6942271763165472 6.196538387905229 -0.8205642314902836 -0.9854423923553286 -1.3999250478902212
Ni 0.6842620771532999 4.800082548289915 4.539362312365571 0.07483529994333564 -0.9896957683150439 1.7936882114895756
Ni 0.7694698171035173 7.426976866656857 1.37136162043928 0.05322312099019866 0.25544886926576654 0.2560605347078364
Ni 5.152983673961846 3.2030237160119883 7.985412350369254 1.3789631009265737 2.522099220583366 0.47755927228040335
Ni 9.012421537788228 7.669133987806333 7.232030193821868 0.3368523093449231 -1.5378143388712484 -0.3135293183482665
Ni 7.575941512067859 1.8292769116769854 5.623534018555865 1.2384448569631317 1.2241441240697435 2.968078404064643
Ni 5.114232578597854 2.2394019771647615 5.973896407720759 0.3675782776738702 -0.253324366723596 -1.4252853810318808
Ni 1.7063045355627244 2.934222890245051 2.9576838680098496 0.5732266784777418 0.5614291716221814 -0.2865823574457774
Ni 3.0439059858166178 4.100394482741959 8.802771039142694 0.24101983832463006 -0.658328136233776 -0.6837092953110419
Ni 4.1438545248528715 0.9739516417900774 3.448461279312235 1.3080212225003731 0.3696611283448279 1.7233284308190904
Ni 7.498374177807802 0.06507001294297891 9.582440472124919 -0.3413244861836638 0.34087377179949035 0.09565095113710624
Ni 7.3665795062072155 0.8707456745502444 11.779346531453433 -0.2908059086088218 1.7777638269498353 -1.8810183014658122
Ni 7.216153784434027 4.556557412966926 1.6700754255118075 -1.440199836249868 -1.898509773382356 -0.7796808630123605
Ni 7.614506483054501 6.830773954914756 1.4226295801799689 -0.517228051624935 -0.05539467472022073 -0.9974864680040564
Ni 5.554621467842523 6.850968449857086 6.224120159384527 -0.18211792178209926 1.8880081025200839 -1.2282072383955234
P 0.499493615893623 5.095759734146 13.760067265247706 -1.0491476438237737 1.2925359823805804 -0.38372891929180364
Ni 6.622500776661602 0.9372572207957888 3.9388161882780386 -1.1536403616222262 -0.6090393173009769 -1.8063174702178117
P 5.9169963243215005 2.408086500355854 12.513060925046387 -1.2858341448803725 0.2969112501756112 0.8950159228419554
Ni 5.0979653080175815 2.5251122026138253 1.4945331496373038 2.2832463080030676 -0.9363800876110391 0.6162486905652226
P 1.78096832953614 7.648520713014969 10.225605356137747 1.2261878939726494 -0.8593292680736233 -0.3443488748322844
P 6.990961900279882 3.7946758867279144 6.776285112824048 1.2300862005857913 -1.4611093327090254 1.1754795689845048
P 5.156101257282436 8.977085824748583 5.230824611056603 -0.7680993288223481 0.5233259369925568 -0.5055146198427487
Ni 2.5890180075764877 2.945930113580282 6.437909133560407 1.8622330504385087 1.3716323715931151 -0.351728198015491
Ni 4.101343717066437 5.444612654610597 7.048451997955336 -0.3663701162983819 -0.7369195607854341 0.7954790063868816
Ni 8.083046684373155 3.368860536229646 3.965240266130228 1.3274880729757332 0.9088538571663121 -0.4185912783866275
Ni 6.000435882686906 -0.016098828018772503 1.3620144542088302 -1.5487474408439845 1.098584815408979 -1.3555550064152784
Ni 2.840583716000939 6.120216225729637 0.9441456840014627 0.7031612333880665 -0.06878755108735894 -0.28877499422172204
Ni 2.151523352399591 5.867775732731647 3.3816389053565183 2.022045366744872 0.9705428495356769 -0.980266504581344
Ni 6.56316432516285 7.4680545167377055 8.274809699733593 1.2201254898286533 -0.590898384725892 1.3010818150680625
Ni 5.106778297285041 0.18232185631942863 12.426393039355869 0.9219857665625799 0.4900304081642206 -0.4072015484924471
Ni 1.0194218271763555 7.262228874046689 5.4146894384642525 -0.6129967592868282 -2.604079359101599 -1.7668577215602925
Ni 3.3482751800948845 7.680562024575541 4.979211440915929 0.72921730704517 0.06689907581539446 -1.5338782370416357
Ni -0.1899752907160056 7.932537206630159 9.514637222700575 0.5635706434452166 -0.4567047974288973 -0.3786954706329542
Ni 1.4938714774758293 7.415902466204612 12.600410025958 -0.4048937262948768 -5.123675610757454 1.5728348208104912
Ni 9.151689103139363 3.2447900262890284 1.0198666644382188 -0.6178679713362004 -0.04657630509764237 0.29075448654559605
Ni 5.274020356551681 4.605610492617166 -0.11239027464010268 -0.6925006683504267 -0.21496016512310076 -0.4437883464775454
Ni 8.744067410526927 9.203999359393205 4.374062460976564 0.1878486536182894 -0.8662285662966179 0.8506497380217543
Ni 9.457537986217552 1.304192124519808 10.45444434746604 -1.858201817791929 1.021337306479725 -1.1463592545797805
Ni 0.698817934083852 2.2387412356251737 5.293711385053282 -0.43299614095804784 0.6943919718358686 -1.604963840134552
Ni 5.533245083104029 5.302199587282269 9.276141168053547 0.4415556004922847 -1.0394620411048936 -1.2552693847196381
Ni 8.809741397074403 3.2675344252010348 12.247568460086823 -0.9275416633838025 0.324865312186376 -0.36106001693937817
Ni 8.053620420314331 8.203692505770556 11.75413505391967 0.9897592745631275 -2.421745721764268 0.5287481364493927
Ni -0.12030614440874127 1.5831739537277172 2.669799709833354 -0.1309138881044584 -0.5118747577328217 0.1364831546621198
Ni 3.179078814866083 8.664899406621673 -0.25247027289836577 -0.09710876662955534 1.6208028640493377 2.782267092591357
Ni 6.314269501553351 7.212366153354982 13.161265126575929 -0.9150733557134628 1.9452215756165985 -0.12186797585210624
Ni 5.768748257763291 4.75039664575669 5.5252203305746415 -1.0261938632410779 0.09288418702524649 -1.3070837982877683
Ni 9.253210644764192 5.41926251441571 2.455928840931441 1.1036930831698217 -2.3815056432972983 -1.2153663778771135
P 8.852382491924981 7.098625546357215 3.5015002125033967 0.2157037281573446 2.157619893549794 1.3444655813703363
Ni 7.040536128186698 5.900877953243106 3.511239170548165 -0.014690512132639215 -0.5850025880667473 1.39270873264744
P 5.196359960102951 7.2658024620917825 1.267235268153458 -1.7657824862182427 -0.7220889235305047 0.7103137852724477
Ni 5.014339625274827 8.757449753258296 7.502780672441532 -1.6484874744487996 1.7303935651959879 -0.23254008298839304
P 7.191241036525908 2.2619044143862146 2.2052555988963762 -0.268214396461551 0.6868393562995913 -0.09429135178541825
P 3.147167790369655 5.441681195667356 12.519980098774324 1.4227438455569497 -0.16404795165426586 -0.23526185279493034
P 7.495833580056994 4.986728073895154 10.399880125002506 -0.20183365504347175 -0.1548572862939333 0.24527501405655824
Ni 3.486398080525326 1.7242934566334727 8.216023245769906 0.4132009606089916 -0.9064375344153357 0.9372889725785535
