# total energy = -381173.6879815296 ev
CRYSTAL
PRIMVEC
9.19345246580202 0.00000000000000 0.00000000000000

0.00000000000000 9.19345246580202 0.00000000000000

0.00000000000000 0.00000000000000 13.45554697212555

PRIMCOORD
 96 1
Ni 5.2297045130819715 6.711652244018125 7.149039928867738 -1.6836961611394488 0.8520970119912422 1.829014140484379
Ni 6.394836685593655 3.404142310375616 10.212800185288712 2.101505309944413 -1.2668707164039925 1.1358025621098569
Ni 6.738037452012038 7.119758783411079 3.468368687227976 -0.48418809045083055 -0.54922131670208 2.2184889611210243
Ni 8.037191771609177 8.836415350613642 4.972645475019744 -1.2403595574873412 -0.16781153246175615 0.061661481565538974
Ni 1.1493654018811745 2.7616762859022344 4.833945699423032 0.19893345067754126 -0.011655581961057346 0.6568554083429913
Ni 8.304178818769882 3.69432443759508 3.438336436721455 0.5676648681192482 1.4157910683882002 1.4118786207076717
Ni 5.546906196501474 4.95143709999495 8.921256205474625 0.4739080486810613 1.7483627480798987 -1.1257192097319255
Ni 2.391777734113008 3.826278057921432 1.357341517658141 0.2971693889330043 -0.019614174686501704 -2.5220022899941856
Ni 6.763549282040995 7.050945793224865 9.485339775301561 -0.7937532819450265 -0.3858863319544386 0.2527132155021583
Ni 6.06599609160959 5.662063379543896 1.6919942121626763 -0.3009167717905786 -1.1752450843761952 0.023331218526772723
Ni 1.2058315856786006 6.225631196698894 7.857850501594804 0.7251181972751318 -0.9206629339860983 0.59469333299195
Ni 3.672885306918493 6.686167994345955 11.129351521414819 2.416411711145864 0.7752187134759487 1.013357373598042
Ni 1.5208636143641086 -0.023529721721122047 1.849465178589343 -0.8274661008164395 -0.08184104183720745 0.4050909299073475
Ni 8.840092731518716 6.792931555472544 11.71486962519221 0.482599148697156 0.7646219117967089 -0.8125526740397169
Ni 7.118857825089337 1.4570610556610581 11.451302542273224 1.429240509024887 0.3931157598233423 -0.02875958863119563
Ni 5.374335904078569 6.950341845114276 13.032760200500705 1.7284986621661196 0.23330704306140462 -0.2713303163827133
Ni 6.560098183467724 0.8324523928627209 8.82884362333009 -0.20219412370668405 -1.500355679804158 -0.7581491595881718
Ni 1.8272721848272158 6.435913030303342 2.1112018451628263 -1.5239704910096206 1.1685435039863037 -1.2984148097588606
Ni 6.080135621189604 8.559333892868507 11.357006221760066 -0.8553643698886043 -1.1585953916346563 -2.0414625949292198
Ni 0.1583158446896078 7.454354478511586 0.4330198756796114 0.3300008336407284 1.4686776319745867 0.06946760787351906
Ni 4.491185299368033 6.18210020023507 4.852985339059058 0.14377891699258463 0.9925021274155875 -0.5177659264062761
Ni 0.7225823642165704 0.9001511366346981 11.499567247307107 -0.1769219794034566 -0.04516759767557382 -0.09604612969299588
Ni 3.3377655850390133 5.520235991487418 6.700256959938524 -1.8535067263091047 -1.2637535109312492 -0.5962131120705861
Ni 4.252137153633636 0.5099286199283489 7.000180469175532 0.6566576905098884 -0.8862656874531512 1.7626884206739513
P 4.7513599984020845 7.291740694889172 2.2629811452936632 0.47438730231032494 -0.6695404600098275 -0.10480279283970338
Ni 0.6244091648842371 2.1860006921172768 2.2997816153559745 0.24541051119315802 -0.1818736669817771 0.6554243323234196
P 5.280856881471564 2.3823084782824404 7.812775005150847 -1.2317643596191625 0.6086947894773647 1.2718691980598482
Ni 8.700370644030393 6.052398975713076 4.600599332781954 -1.1463777665225419 -0.16743100919388584 0.20422066721840956
P 3.7689384961590506 0.4985563194794046 12.601818964377689 0.28608973408007504 1.0084913037549923 -1.09302069105764
P 8.592752091843375 1.6487537287903524 5.366879094948303 -0.7307106037612447 1.8432377402829285 1.151461351693036
P 8.182705734022994 8.985137827867135 12.45481750138777 0.2346841259145894 -1.1625263512579462 0.659961815182457
Ni 7.325177280768566 3.147120965467665 0.1812856851679322 -1.2249229112172968 -0.41242397323365104 -0.12266141828767906
Ni 3.4202952060011573 6.280847070988594 0.3638097283556484 -0.894111408749815 -1.2862951436771912 0.464991977138354
Ni 7.332090756870107 3.220549068689749 8.004597305957045 0.007072590576065238 0.16349850690869905 0.4999522952636228
Ni 3.1930790333288392 0.3047629425080862 10.251592876456348 1.1410175306518928 -1.1671821048624027 1.0820477369859043
Ni 1.1291214199987372 4.856477931573653 5.726627156094296 -0.03782735526041872 -0.2713948510720616 1.1202921251790834
Ni 1.828117982435383 7.804965167453695 10.301674207657337 -2.7197376065985677 -0.9681350114251327 -0.7285534482089259
Ni 3.5375944634207857 8.651718894656252 1.0467545231416422 1.6803215882402611 -0.12598611178553787 0.220153279288266
Ni 1.098130292421218 3.5301017998266953 9.694452201778194 -0.5595430103430621 -1.1106016373641971 1.221829617003954
Ni 5.292045312875255 0.6011460532787329 2.4063364851161997 -0.27172498071797074 -0.7223704593266657 0.1257742528850479
Ni 8.624423534888333 5.876417912500714 1.9133118658632542 -0.22228678069150104 -1.3547453660297895 1.006931158356724
Ni 1.8471852024281965 1.6307069819986972 0.16345130712354497 -0.6615872666010219 -0.09958088231913173 0.10026479576003378
Ni 2.27153657196932 8.058879125496857 12.695362341150531 -0.9853596028335352 0.2503503716969366 -0.9168682428303564
Ni 2.5148964468149173 8.199143626668679 7.876675014447882 1.3609136996240305 -0.20601478300435486 0.5582152926705741
Ni 0.12291921478780891 7.929279028949753 3.220262232979153 -0.5902255270285836 -0.2626641560672831 -1.0081840569272187
Ni 3.1293592156961534 2.4522338761924405 3.163694921206838 -1.1097668001677274 -1.0281846684188616 -0.6592444774004582
Ni 8.511941646454353 1.8999372315114968 9.457688628931075 0.30012281513437344 0.8600764306522929 1.3964298902527694
Ni 3.105373498742802 2.0357061345268637 8.721696695244148 0.4042892599416586 1.6580473502230926 -0.4412887199841432
Ni 0.715304827405427 8.018409548636507 6.222760081557257 0.023071279997166717 -0.6595758925979479 0.33336897878201294
Ni 5.545720241159588 4.294748804871191 6.721758606090497 -0.6827111930638307 -0.5489490368772998 -1.2195971281290094
Ni 8.362465306115318 0.6531405418955876 7.344670157601142 1.7581062006199075 0.46900238384932774 -0.14311557237697287
Ni 7.510425343861717 5.523030800975275 13.146041919281538 -0.45152710988269973 -0.07410176421142077 -0.4261264104214081
Ni 8.46677421548777 5.048786566004547 10.158345528846363 -0.7817675703380601 0.2987292772209565 -0.4731575436682819
Ni 3.5035786900488426 0.9164060795803556 4.883596777058128 -0.5085685761777241 1.3591936316091302 -0.405575839963566
Ni 8.194059647567412 0.7986250852621627 1.0065524757421365 1.1255232916710358 -0.581159045950941 -0.9456190897108039
Ni 1.2169740498209776 0.6614394712531155 9.005339519869164 -0.5774232330575926 0.738115123755432 0.6125182769885129
P 4.105759006707127 3.746874210728601 4.460755891723764 0.5869671679922859 1.2021010282267748 0.7535281158763926
Ni 5.60313335054007 2.1305274011642212 4.1881461291592 -0.2317589818479944 0.5410752905561779 0.3870525843483979
P 6.145933159033658 5.323385791638756 11.076740152151137 0.43912667933581795 1.3473393033737053 0.893713401980448
Ni 1.8164882653230836 5.473009227213993 10.864950592375608 -2.244155255538877 -0.46725686191313076 -0.942550735198125
P 3.0871428829058924 4.722667233890238 12.304330800645067 0.10215892745895308 -0.6564126643786179 1.5350275201547303
P 0.12335314573460776 8.105306059423427 8.518706188629238 -0.07256193052812664 -1.7020736352053718 -1.2384546271551446
P 0.17423798466335608 3.294740228449636 0.5420027361824126 0.9969840744463411 -0.09830690070271457 -0.5500962631078654
Ni 1.8161940748506775 6.632496620036386 4.449574815081883 0.9415091813074882 0.4397434869842104 0.6593609483736644
Ni 4.118988384513135 1.98253120663948 0.8596677695959543 -0.6093941295372344 -0.40754813319858846 -1.1351505303481548
Ni 6.313336731284932 1.4186967793688638 6.298582159748545 1.9044022276073913 0.09071700417059861 -0.6485386609471798
Ni 1.8609478004654396 1.0721587897791263 6.756460211001237 -0.43898166911752134 -1.0405856131863758 -0.501572090255233
Ni 5.144986850481308 4.326604116961404 13.200240997750987 -0.6390104097417705 2.9202705405527447 1.0694953542421903
Ni 3.206740503391192 2.9193531856595856 6.426450209889359 0.7602116985441553 1.3748246532781678 -0.33699114891563253
Ni 0.8746071295228213 5.170700936460044 13.120894149962185 0.3721579266247526 0.10509949814451577 0.48203659132546656
Ni 5.528638806855514 8.894968448074696 4.846338473073135 -0.016183808848714065 -0.8513390507792951 -0.22378059162820815
Ni 5.00610136714889 1.5983276431295124 10.15437671550456 -0.9311412078096029 0.6630617942640192 -0.14425457107742254
Ni 5.1322998863587985 3.3927883968311967 2.1919893069211915 0.6216446647698132 1.4165585426818443 0.17545799326342038
Ni 1.0174209750070857 0.5377856996295179 4.555631399729472 1.336325468761705 -1.484190382898205 -1.662428252899608
Ni 5.273851470847396 2.5243565091932227 12.206198971847916 -0.5164140403640718 -2.322020086337156 -0.007457484719309737
Ni 2.788695842102273 2.293371021093203 11.497401269954018 0.12725495119563246 0.5600348623778162 -0.05573226056529757
Ni 3.6163271885984405 5.303196970469895 2.7763904062486655 1.426803103227988 -0.37786628986343956 0.743215678206791
Ni 8.829593809034726 3.348439183115993 11.717736143607715 0.37409576707741377 -0.5434617885104834 0.38995690247938647
Ni 4.057456608518969 4.123116244579081 10.45752988452145 -0.7082679584870125 -0.22259248485737795 0.32415980147891915
Ni 6.262809517649202 4.574772167340386 4.341069094751516 -0.7135528610350357 0.047090525729899545 -1.7064869337817192
Ni 8.219304867480751 5.965861009564399 7.929165030141696 -1.4898995174678404 -0.7083368640517349 -0.8400809613669725
Ni 7.122314563140106 7.901873347754682 7.0471139623217764 0.6916689164777508 0.7108935690353176 -0.06329927427927808
Ni 6.018925616024632 0.2759552598429554 13.352988368405086 -0.8223490913048482 0.8498256994585622 1.6137703826825887
Ni 3.3645736918370095 6.124926120613417 8.888330775541036 0.5869039188545182 0.2561826621079975 0.8841902929813611
Ni 7.186181476008996 7.749776873520783 1.418659086214587 -0.2275202611762985 1.0009404879909278 -2.0033467618941043
Ni 7.175443523766178 2.3066739465173116 2.3437676877068023 -0.8961343527171147 -1.2142147807711734 -0.048282232045155554
Ni 7.829787488562951 3.943770377838576 5.895843677131773 1.7342931573607099 -0.24600623579562794 -0.3181652744583811
Ni 0.5847384990255148 2.8385979009841398 7.450510696120557 -0.35684340775486934 0.7854635311324086 -0.3323729334173308
P 2.4039406714565437 4.1906513449007825 8.301184511367923 0.7904936373571483 0.6186776117216894 -1.6033792692562516
Ni 1.2987222273407937 4.3221452926140005 3.2060666233403374 0.14918543272013662 1.9648324078689905 0.9327126660617808
P 3.0834471150962925 8.199024111789264 5.775631934035326 -0.3613618644505131 -1.1731280380331925 -0.9653926727933051
Ni 3.26550505025429 8.322620884008833 3.420238206597129 -0.20809480546183515 -0.46596668234679745 0.1772528803803141
P 7.316949140993461 0.16633988982448134 2.992392405850958 0.416768880465908 -0.4038076923195497 -0.0683301518349662
P 4.755009798950373 8.056672696953813 9.089194836647588 -0.25546223900220516 0.29451498202929277 0.24823383957456602
P 6.669941551102312 6.158436254110913 5.781700531873925 1.7122120091909543 -0.06562612264024181 -1.0390354950904364
Ni 8.246572646891883 8.672698352719705 10.24470330333069 0.4057059377835271 0.6855005828835098 -0.19850510489087103
