# total energy = -340878.7172557559 ev
CRYSTAL
PRIMVEC
9.20141828142302 0.00000000000000 0.00000000000000

0.00000000000000 9.20141828142302 0.00000000000000

0.00000000000000 0.00000000000000 13.46720574847463

PRIMCOORD
 96 1
Ni -0.2432063728452691 6.060413077038492 7.084019356817401 0.6419409531250042 1.3434651651302798 1.8857915544847395
Ni 1.6750814315923432 5.297863921987833 12.185370424261704 -0.07390893147432433 -0.14065734064446744 0.3959192907104085
Ni 7.726670348292805 3.634063429472054 1.633518624244186 0.8700194007976177 -0.43136040512683776 -0.19020532677592406
Ni 8.438556493102386 3.7443884372436735 4.349758961539137 0.17059320897195135 1.549420812761925 -0.3075985546861283
Ni 2.8887577326836147 6.065216217493603 6.244191168383028 -1.7481778857626022 1.582307793297933 0.48969565053262115
Ni 4.328586497578962 2.2589850465357473 11.402952646251808 0.7559485523924271 -1.2444684374493922 1.5840538294547621
Ni 6.979671590501031 2.11661149814123 5.043428138009579 -0.802625901844308 -0.27742665908843833 -0.16703454508641555
Ni 5.897060294472223 2.452012403752847 2.495958378491567 -1.970648757440451 0.664358658698572 1.1978628217757112
Ni 7.886729023037368 3.8981349388997186 6.724741690349522 2.0176145846670286 -1.160890615426736 -1.025274693860918
Ni 2.069067768770424 8.274909265144233 7.678677589699376 0.03477134204291431 -1.406778837587261 0.18227604462651834
Ni 7.434221664222298 5.824028635866441 0.9768934384983269 1.8383048217576854 0.1633861497005509 0.5603850466283833
Ni 2.1908393411515426 3.56266042194013 0.6683845985842353 -0.5329606318688433 -0.2547531287503226 -0.8389658739259228
Ni 5.401720332556496 6.505706523752399 9.205723840096379 -0.9470406526486788 0.0737675208004536 -0.006408474629505092
Ni 6.474256075331765 0.4513700634889173 7.987561847488119 -0.055887040975606976 -0.44093442196851806 0.9478186684652837
Ni 1.0947479670255353 7.619225384510553 11.94197726262096 0.4624913222036873 -0.02970189793980691 0.8911433272604264
Ni 0.2698039931509107 2.340822462642568 0.1336027562837662 -0.17301878769430848 -1.0110176697212718 1.054348728408739
Ni 5.3608844372695525 7.529410338567369 4.51620066029464 -0.531982327115974 -0.0949814358739074 0.2931556397879209
Ni 3.6452523543636546 3.9195650425777924 2.538582109392357 0.2413463684261134 -0.2347077800636732 0.3139052136304465
Ni 8.310656776002677 1.298798623601301 6.774651104415747 1.5771159646843482 1.0345190952773213 1.0510623443479832
Ni 7.332141127423437 7.90302473519446 10.563555084203067 0.955721211141812 0.9095508832333369 -0.8825995514554736
Ni 6.200339048112971 4.941612602063414 3.425235396412967 1.0226197727365745 0.10238287054430109 -0.4852820948459578
Ni 5.4003217169450455 6.193051524663837 0.3273542651365314 -2.241536844079423 0.5184583244876103 -1.4110355559810859
Ni 7.1933101251500275 6.057091364961298 5.698096182041258 -1.7168909027238626 0.1483166569619381 -1.0269189143325603
Ni 4.797812833801958 2.6696995625402504 9.155935884754305 0.5966671688888693 0.3654275498794545 -0.11206564504970377
P 3.0711114444449117 6.396071622368008 8.425138064509111 0.5746510696290942 -0.7442418054784602 -0.4317059613917146
P 2.702410605294888 2.892208264619758 8.327850546605015 0.5059928450307479 -1.5151354092164937 -0.4632973630447505
P 7.295556287481823 7.0504304987382085 3.580741209285521 0.03982407397547335 -0.6968350340597225 0.4814694059680869
P 5.8968026547543255 4.183240891010112 5.869358503947016 -0.3753939170635471 0.2828691702602484 -0.6061380844937819
P 0.3772342346635682 4.857382817147534 0.5307359785876099 -0.1417559730252849 -0.49581796138027506 0.9985208228058416
P 3.0454394868400065 7.299163243532404 4.338016111254054 0.16260941943552643 -0.5532396938328537 -1.5946087221524732
P 3.50106612652535 6.745605906790068 12.890365626759344 -1.13428483991375 1.0197221394738052 0.13988035326912684
P 0.7660824997532696 8.815428191877196 6.014885378460243 -1.1155260712490076 0.588160931190071 -0.04849769049007132
Ni 4.97664240227914 2.378005394786447 6.660490025272986 0.17898991767607883 -0.1651131596939866 2.9964119609020137
Ni 6.248122014364682 7.895083911032083 1.7411614185241098 -0.23090563270876363 0.21828023063526927 -0.30201514706107985
Ni 7.111960384223515 1.1343508722339632 1.1121782140832317 0.552330551755023 -0.9591433494494837 -1.0899091420118519
Ni 0.20947029207013443 7.01655087583453 4.9157722585000245 0.25454486939425836 -0.30467263928858496 -0.9810571188034393
Ni 7.700069047419765 1.2153509592576133 10.358570483649919 0.2773713803704707 -1.752920285543594 -0.8809129077816699
Ni 3.1947969118732775 8.862907511318527 5.70757732365993 1.3264118091924189 0.624311412968699 0.07114525268625813
Ni 6.415238177095971 4.522331565438779 8.264514422668869 -1.5963804693409152 0.3802910972548483 -0.06695229765083308
Ni 8.470568228051297 9.172102777052448 12.70972981983132 0.7824304007330395 -1.1517585712184808 -0.14233909922226454
Ni 4.267268244719072 5.279755530386954 4.6960285826786805 1.451972146294448 -1.1152653613884533 0.730685149839948
Ni 1.8042877501185381 1.33534665786893 6.9351394854040915 0.6189092681165212 1.0392846349867648 0.20402989136384214
Ni 1.196580065524994 6.514595094019904 9.636768890268637 0.3349340092762877 0.9106993950154831 0.05459968962275113
Ni 0.8513354824059474 3.6053918094373283 2.5295720804007003 0.20289783464192795 -0.8493001659723954 0.3483700801765355
Ni 2.6424817666279528 8.280577338938004 1.5312080519829154 0.8811818451723404 0.22922824500634068 -0.11552737834605911
Ni 3.492564015834693 5.947787714642777 10.851726948956456 0.3646703599984558 -0.9211990089952263 -0.8215330231614562
Ni 6.185598375681767 3.5792321766521145 12.744043749688029 1.015554895469993 -0.15800123123955373 -0.18436378039348247
Ni 1.4575690997563708 4.614787418490425 7.917855581526929 0.12364177992307737 -0.24944971425953816 0.5145379063872816
Ni 3.9112101545830775 4.358408294925735 12.911118506036084 0.4926400778729258 1.6216356443632782 -1.1588476168547783
Ni 4.2984886576772965 2.404579091403998 0.6327327824781539 0.22730428851075046 -1.7894361210814407 -0.5727466535175297
Ni 7.2016650131447415 3.5022163038373972 10.258779259772956 -0.22950026772080478 0.6457220174339912 2.031155042355625
Ni 2.494311324580715 5.891806284510789 1.337363608803337 -0.10651848997922946 -1.3274531059727397 -1.9211452513936846
Ni 6.193373574311211 0.28488971877572883 3.5276131390292615 0.4335666687495372 0.4461802437484897 0.16553970570844392
Ni 3.9800827720284966 0.5830239593351498 8.064270392925057 -0.18194102988460278 0.11629613819128358 -1.0100751033023443
Ni 4.021820406328085 4.534403826506033 7.684320819663207 0.4971770465113309 0.20874889410606629 -0.011123877827303424
Ni 9.82757502506071 7.042701307201248 1.2157935474872892 -1.067037379620001 -0.03442398600582459 -1.0789053347021804
P 2.4495188193403274 2.4599716307522175 3.7996641185769886 0.16430043398470415 -0.1807763201525403 0.0696144178640285
P 5.095515527833898 0.19799428292144688 9.867233138780117 0.6756350029433396 0.6191100712734177 1.2253119191255994
P 4.785068869184469 0.41526369730911467 1.43163122115692 -0.052515039179580524 -0.34402543005459457 0.2649943468623565
P 7.193015679758143 7.1626049916276004 12.775866855557766 0.3603375369510568 1.8496881238939629 0.032210523294273555
P 0.7817681578640518 4.756194817942822 5.693315124990539 -0.8307954222999886 0.3137653456184726 -0.8724624630214717
P 5.532500093645572 0.42289167324261523 5.846639281537599 -0.11121486701363427 -0.058215946219099736 -0.7713003522581491
P 5.469571592548816 4.239709996322408 1.2427012555962589 0.2598804226745589 0.19566223612543723 1.0936976625200066
P 7.657770126591897 1.9837982235644531 12.47911742848205 0.3424218330129006 1.4802087725426378 -0.4944833017292516
Ni 8.502662775766678 8.603685149438455 2.599628920406603 -0.085193246138892 0.7808224328159713 0.9581722437854661
Ni 6.191404470752985 0.5368659635898996 12.137117265524829 -1.8953812550557034 -0.44953090538827745 -0.05544609678344645
Ni 2.5412661631677516 3.5737021241357887 10.550410857880985 -0.22594520337969476 1.0897528189396457 -0.09713653454369724
Ni 8.49347976010729 5.163532413359153 12.147850720200857 0.8151109216851962 -0.6159910660284618 -0.010385199889065985
Ni 0.5984298943236421 1.8553004142624796 4.903059578705424 -0.2781087727571275 0.19969038344822385 -0.5686102627516529
Ni 4.561649226673819 2.505987924652623 4.584344525395145 -0.8633404461155454 0.7167027195179269 -2.3291317576812727
Ni 4.255205185070316 6.270426252799913 2.5724516107356896 1.292943245121328 1.2255258349086182 0.44100127065071143
Ni 3.6712095559419478 0.5608328983474256 3.4358878786062284 0.7273278033319409 -0.4967085915153445 -0.5510894802590702
Ni 2.599943608919179 3.6374863571527083 5.763129047548137 -0.05358076143993353 -0.998919343795841 0.19148907858435407
Ni 6.6011988449078505 5.836165306863169 11.261668545807263 -2.3942184628782766 -1.5281457054332328 -0.6019705833796535
Ni 5.133471379131473 7.797162415393586 6.961508910531023 0.09489813213148172 -0.8327851990365076 0.5735467808213219
Ni 8.150322058703221 5.570824001683003 9.453265001195291 -0.861274307615136 1.4715081594448465 -0.5542082283937101
Ni 5.016318918835539 7.734399539829766 11.376556537011236 0.13441804460297493 0.1209143536895853 1.1312943898268581
Ni 0.38944359686641733 1.9464036587951568 8.78991081810303 -0.0054553666876164105 0.5341765065538154 0.3229948346365405
Ni 9.080677482872398 8.657522649060786 8.320632033794602 -1.6080440217217724 -0.28923830701138575 0.4672231804617179
Ni 7.639459303784097 8.70626256283612 5.5988966093736146 -0.76662351560777 -1.4371651631886024 -0.7695975106344294
Ni 3.3276561935425364 8.062246080855854 9.667420655563784 -0.31021336660115606 0.9475559017222004 1.2349227027424863
Ni 3.524879397593986 0.06413296677793236 12.713918305530875 0.22511036618322522 -0.053584360984359335 0.47902454397202016
Ni 1.9666283766502044 1.3936744497174947 1.877854011138961 0.22449432986578113 0.28876728091223813 -0.4012520157772315
Ni 0.32204136609672046 2.5217959616294072 11.2458034600358 0.6754712236719658 0.3171427467311377 -0.5307016606313376
Ni 9.015209390270641 5.6789130647600015 2.7877519215651314 -1.0904051078116639 -0.16030288278953683 1.349176099472128
Ni 2.5763603733129523 1.341327579891578 9.914153011976868 -0.8783621163353583 -1.4305440583276587 0.5677396872212416
Ni 1.4308481804428779 9.043522154984007 3.8714719885227526 0.06039238504512825 -1.0107906413121301 -0.34406271105043323
Ni 2.079106516349977 5.4075816361386915 3.698485320790773 -0.5741581891530757 0.34949570914054645 1.1981808672367622
P 0.5327584503731146 4.466018884240922 10.093415047123381 0.9204793572203824 -1.0904693853906962 1.5393708847250909
P 0.6562709311337485 8.916413759874988 10.374744737082858 -0.14060077637491913 0.9343466021207779 -1.0272832396505145
P 2.4109464730034946 1.9771824036655545 12.518966931706181 -0.5713605718032806 0.66378298870076 -0.18538990766515168
P 0.6286740367793998 -0.10904877102617107 0.978612263473451 0.30365011156134153 1.5798577890955434 -0.5284360045256126
P 5.0604029148517045 4.286977683138322 10.921863841303278 -0.27939149612429304 -0.17152857630202717 -1.086778309692354
P 7.111288680673278 7.024234060279009 8.005325185895385 0.18356442442063872 0.609201553910454 -0.578949439894132
P 7.9435477822525264 1.8223041275344538 3.0635607604267805 0.8065602039017077 0.09046863560521838 0.4188972396628205
P 7.39388264553416 2.4515339299910353 8.450254256436835 0.09834752413266289 -0.5051320396923493 -0.8488602502214994
