# total energy = -340867.11258014705 ev
CRYSTAL
PRIMVEC
9.28744023584511 0.00000000000000 0.00000000000000

0.00000000000000 9.28744023584511 0.00000000000000

0.00000000000000 0.00000000000000 13.59310757400512

PRIMCOORD
 96 1
Ni 2.3477719464368567 7.667515391302636 3.011593574768529 0.582702479178661 0.7370501728260275 0.6914364887519705
Ni 4.66665995461105 -0.03684513179280943 6.337174133332119 -0.06316429136331057 0.5500540970160205 1.3721193385318629
Ni 8.168126979802338 2.650848974515791 0.634713862766074 -0.2851440823373541 0.9122497702217385 -1.9665491334497807
Ni 3.811017398919444 3.3811761028832454 4.968538902935681 -0.17347078763006255 -1.0064166806141506 0.07294373934757761
Ni 2.3678235293015155 6.738789970598524 0.7613527502839337 1.5433347544688452 0.24416146927740534 -0.18513048335617793
Ni 7.953466380103002 3.7116139290720853 10.351137883934598 -0.027872558040551994 1.4113906253276596 0.09150813261332627
Ni 8.909859084435563 6.617078069977237 3.3407367318275254 0.14128057605076313 0.7220205321864146 -2.0770219800910685
Ni 1.772433616052465 0.8084159235161585 11.546909709408963 0.21090322144490772 0.7376664662537877 0.3592345336948652
Ni 6.875835434586903 3.42218015028828 3.433374301667054 0.4066844996467125 0.610923164587251 0.9549786765488326
Ni 6.988083433893187 5.8312213381138145 4.350297243675286 -0.23153478165233027 0.1979050094130269 0.732770571614067
Ni 2.0676720448086705 2.931292511422343 3.5382582898323536 0.025521798420188303 -0.7281760102648491 -0.06038647150785729
Ni 4.542282558722437 2.640567778484676 2.680615219574259 -0.12722795461243894 0.6064869831927684 -0.14251547689912875
Ni 6.943828782503609 6.25832283936304 9.940285687632109 0.2591792828424762 -0.3677615973292699 0.02188780121202682
Ni 2.112697553714584 0.11739881350579424 8.8950028954822 -0.5071081895821138 2.2885533220382777 0.47731964546577144
Ni 7.010763362265349 0.7528426690523974 6.5096985466958035 -2.9731637890073506 2.8838305525581562 3.070845911641873
Ni 0.8644544787217076 1.9625103621886912 1.767049687110064 0.7560076877651367 0.05840955028714457 -1.038561126557179
Ni 7.626214145819015 9.34957292914482 0.2594437064224018 -0.1837837395202964 -0.7767271797006753 0.19050794561800738
Ni 1.7084895919565046 4.664542418301118 13.184036470232781 -0.8795170558754077 0.26188845424352314 -0.12770283736632845
Ni 1.9399976077357344 5.173549852520899 10.546728583172605 -0.20338403024972715 1.1820559366504417 0.6890433059294456
Ni 6.938005557651297 7.347042988186414 12.044362639579683 -0.37903331358834724 0.7075976718928653 0.6180276368425163
Ni 6.395693363749873 3.196820419759816 12.04856334867171 0.462390534959765 0.5779582796254562 -1.0153111548903029
Ni 7.710237615099502 0.2712303964703586 10.003969663409308 -1.6985252557324813 -0.18213283418043472 -1.423586653173219
Ni 4.1261402366211035 4.682727225734653 0.6179342449978574 -0.08294018843865716 0.3591625428063492 0.24739720260588363
Ni 9.069816662795 1.3359146506880173 5.757550578152102 0.7660704713177774 -0.4387970639105411 -0.3104290821563879
P 5.54330141204281 1.7912406819630413 4.806073715788168 -0.6715726599485079 0.7596139170591563 0.11595700968430997
P 8.755984779247202 4.302685182741671 4.361076246488034 -0.7821900025874593 1.0182185583450851 -0.7495668172357994
P 0.5852229527293924 8.326347806890032 4.735893175761861 0.3238322429361713 -0.44304941142899185 -0.5940204752946414
P 8.865799469285058 4.071381490641469 12.418024211323003 -0.4258091362913054 -1.8787282198800546 0.20013672695702306
P 7.895930689576572 7.279328263468382 1.4377700046837172 2.3546383865928093 0.42641745929926556 -1.5225327301218294
P 0.6612582949038611 0.8807725107241188 13.481847519856755 -1.7918493585086237 -0.1308624660412327 -1.0989959348044687
P 2.9626933459130393 6.250790725558853 7.427830713386285 1.3952065593686294 1.0103532966643956 0.3030045075575427
P 4.554077607466354 7.334876441844262 1.8537330791939035 -0.8757390768902145 0.22416857109524618 -0.6017327563372347
Ni 9.021698436383792 7.720537386010529 8.652461401035433 0.6165294550304349 0.3593057532524328 0.017900534429504657
Ni 5.078325730653669 5.0526273842958584 5.6999025096022065 0.818815367119977 2.3472958301848093 -0.14533777683927226
Ni 4.839332038270032 9.137568537272855 4.103405512353202 -0.6066954996591487 -1.3111718523142128 -0.9363867724792583
Ni 3.842446095730007 8.94574575242493 12.877824002424754 0.8941803143145375 2.7484637708886663 1.7107032858559117
Ni 5.388944159976746 5.716289268660291 8.15729132360586 0.19331867559392513 1.0275089825080754 -2.5400558050617867
Ni 2.0394103650230484 7.22199689662098 9.319475122479929 -0.14692209060725664 -1.4449589482014082 0.20526196399873037
Ni 7.927898057904574 6.085130659066531 6.681855177437236 -1.912131992151481 -0.8799988806078328 0.8546184928615151
Ni 5.8210237290423015 0.9662838278855311 8.67486270620892 -1.1978648786582402 0.05207718031121354 -0.1287734447226879
Ni 8.19179137680982 8.359652566571675 6.215054514096772 2.8071283746094107 -2.0367410210838344 -1.266352124896361
Ni 6.846775034965078 7.965289291166787 8.050707733928641 -2.4197734285292456 0.09866942624845587 0.0889290590322404
Ni 9.190729843580085 4.106562313194192 2.260452364716042 -0.04625774541595905 0.11653370812338641 0.47627809157513457
Ni 0.5135805696540364 6.019273422339668 5.274832171471323 1.5927513572287602 0.6300735122634568 -1.1841187327167415
Ni 4.455844355053432 5.8060059386337075 10.199152644033255 -1.7874854251129733 2.4377688366654016 0.23832043711559603
Ni 0.52467813165727 7.851731762826728 13.481072947364439 -0.569356139778742 0.27804089563366957 -0.4329200363044738
Ni 2.3054026453583134 0.13909520198663267 0.9652547795384241 1.075197289722974 -0.9916197248106341 0.841879448028292
Ni 5.512494973709289 3.9909151108640692 9.584350123788505 1.3996550820582863 -2.6954885042432157 0.5338250367516677
Ni 4.204219744329852 6.8875561838111725 12.428232036578468 0.09418902187959907 -1.9603597168096176 0.9495132825588875
Ni 2.560510046065333 2.418077866902567 13.364376264319304 0.396244278149995 -1.0153119262212513 -0.8513508778538371
Ni 7.10969317267496 0.31884152865997806 4.364324992984587 1.380965733178899 0.127224097957697 -1.6673999950825864
Ni 8.538519372681202 5.5776092152396854 0.3534028789676464 1.2146410696753145 -0.6102803887969296 0.6980689064668236
Ni 8.225374759690137 1.3411527668231111 11.917267738759993 -0.371528777681186 0.9129689077759502 1.6164597565892935
Ni 4.7614104170405325 3.3780648104980386 7.273603485479602 0.3086735329178619 -0.8647738361279623 0.3147714182854837
Ni 5.214683924085316 5.498275903136897 2.8382815864965902 -0.6980285401471914 -0.6008588383727135 0.2961864561944448
Ni 6.276656245835869 5.970003553373935 0.6582640242620982 -1.2937120049665525 0.20939938320587162 -0.3052159133865647
P 5.6618091458793325 8.199834299811576 10.018283465869247 0.688218496035305 0.08958417611773604 -0.16909322738765717
P 7.010651912985879 4.19806217163913 7.60868781787835 -1.3126744050016683 1.4467425224643924 1.676638482961719
P -0.16211040694120038 0.6633646862858457 8.320477216093945 0.9101877454863874 -1.7492325522793617 -0.4587981896228163
P 1.5335049357485186 2.505361227607554 5.563237830652017 0.9286536655010587 0.17821035919757694 -0.7090889117264111
P 2.532174066760065 3.5438734760296544 1.5402076811646486 -0.11581739878265215 1.000750740577625 0.2249908098862254
P 3.227691870173029 5.535230626721186 4.363427826284853 0.9125996973619896 -0.21617758246996965 0.38984814481566404
P 2.219493825766791 3.169366747250352 11.118196837327398 -1.7590433677221964 -2.3081811235715346 -0.343372369851628
P 6.116986578115063 7.466971700336178 5.771769648724494 0.2348239939265633 -0.16904823308233466 0.11805297298139023
Ni 1.8597262641974073 5.325074435400432 2.7892374023217847 -0.11051886938787418 -0.026130892759096934 -0.5403898344533791
Ni 6.777304984095394 1.5450956608134072 2.080397695036163 0.35894836991301404 -0.4920950040027331 0.7711681975556589
Ni 9.28408719001619 8.557084965152928 11.144091148668277 1.2796454995711575 -1.2894349748577534 0.39028497524276656
Ni 6.511303416320173 8.127410843035934 2.5856808658336514 -1.0611693508749982 -0.19592911663357868 0.7950637732263339
Ni 5.0551442805238915 0.4022659580633131 1.3603304015879256 -1.7354218716485144 -1.8662002626163732 -0.5828798852967897
Ni 6.902481099820208 3.141476565062964 5.833944415508867 0.03024002983146405 -0.20310917932178568 -0.7255560561434988
Ni 3.9347353865711914 4.109933653898161 11.849220523691542 0.9816878104089029 0.9032007726455928 0.8338966869331315
Ni 2.416164654271664 0.4209699333903798 4.949807994032743 -0.07819264645134275 0.7197793015607217 -0.9877970086304342
Ni 8.986118253912968 6.034142613708968 11.651453777271879 0.6007747632993395 1.301950590826261 0.10360440165622802
Ni 3.103658109562782 3.6210985392624666 9.01156398190398 0.255087886381922 -0.5075401349132098 0.34231847466581694
Ni 1.6443783939413392 8.390301118425947 6.835185238644185 -1.1703705298927134 -0.3034007145546968 0.4984739109458835
Ni 0.8824535373561259 5.886045096173139 7.390368895580408 -0.8905758847927308 2.5456114447726934 3.4163057601501485
Ni 4.054496924801751 1.9709805074284175 11.020611848223394 0.760521002254458 -1.491835558148289 -0.2395082867761101
Ni 5.266405677199391 2.5103578703037956 0.22573680059067075 -1.6680980495908755 -1.356674207621386 -0.14551055497171067
Ni 1.5951735370552977 2.102230608884352 7.6289140046141775 -0.2697040936332 -1.0007597394386891 0.39831118798135273
Ni 8.25441658443205 2.538443088730257 8.114582102224931 -1.5358453880703353 -0.40930393954743055 0.08949727283088457
Ni 9.166498912735298 3.957313153103839 6.419739474539539 -0.8057963291524897 -1.1029171242357456 -0.18672045355111713
Ni 3.470827760776971 8.682344667837345 10.732899960807403 1.4364105444107649 -0.33049191434453407 -2.056963518778296
Ni 2.1169790635342265 4.265321811799326 6.688705593148664 3.2174959795346654 -0.7386195741956764 -0.6563823253613147
Ni 0.6680817770394168 4.005691427833811 8.76597713589569 0.40209945137919134 0.08501918245487293 0.6039043100672568
Ni 0.24924888358287592 8.761009284263311 2.209192197367773 -0.8564349772449639 0.02986284899770341 0.5952422635168846
Ni 3.2040739103653277 7.41233369107597 5.500328427367138 0.8989674512905357 -0.9613565550507184 -0.27525561957904854
Ni 4.131879874513812 8.119934453871481 8.446389825807259 0.3897391300416256 -0.5467988233035164 -0.6283081928329179
Ni 0.20646907765828457 2.064207829705142 10.134476769668774 2.0110811544238847 -0.8389105952079552 -0.4680176513385552
P 8.649996514471153 1.411337950569396 3.091915070482618 -0.4615436135784373 -0.34615096103802967 1.1357670808862312
P 6.354067057867797 3.7804524340247734 1.4220017891266916 0.07104729365581312 1.6519409802150389 0.005922536132022058
P 3.739476248939606 1.5171683288661955 7.938224762391473 0.09409723349674118 -0.5803203520997297 0.5615942364451361
P 5.667084411774249 5.449173208090371 11.992165369539869 2.1924161752933724 -0.8875944335669036 -0.060836414561082325
P 3.429155017695116 0.7545701328841835 2.8148465892560184 -1.6690732690199512 0.3920700921676473 -0.28961523073483025
P 5.8917104345462015 0.8083769162683441 12.369822397952191 0.16194247527548883 0.21373349180485124 0.6805848907494472
P 2.2178406614546513 7.354602964310467 11.809011481146726 -2.237855024352462 -0.6016229702322478 0.33920358318591903
P 9.133389189292727 5.7364987380042 9.607472134302565 0.31419369140514275 0.4921273999025653 -1.1264620014352211
