# total energy = -340860.35230598255 ev
CRYSTAL
PRIMVEC
9.38551965988296 0.00000000000000 0.00000000000000

0.00000000000000 9.38551965988296 0.00000000000000

0.00000000000000 0.00000000000000 13.73665672510692

PRIMCOORD
 96 1
Ni 2.9686868328569083 6.569488422650675 9.759441699890857 -0.35047478522436415 2.2605020723280167 1.2070671139827986
Ni 6.088874725943583 5.732206203402908 4.148676613978036 0.09361103788894201 -2.2597639086104118 -1.8208827696264964
Ni 7.440699295889929 2.431863258209285 5.971997786720732 0.5782809530721975 1.9114311094297143 -1.5424428387821951
Ni 4.121172348273457 5.154236510055787 5.412270728162893 -0.42105516654608777 -0.45545524129251236 -0.14539691221198184
Ni 2.617339900029421 7.714315353929724 1.1987476809461317 -1.2934232700815402 -1.5620248746791807 1.4270424729323037
Ni 8.428553408909604 5.440635646030964 0.7162718971154134 0.5967551006169852 0.6148700650501411 0.1059775298740949
Ni 7.676698190666133 5.052422391521993 5.839837467094081 2.5281246008418394 0.11172086011577534 -1.6152816771207923
Ni 2.7659689912076257 2.359388274496346 2.7233606085269733 -0.2820813842516303 0.9995806315289236 -0.03443581308036651
Ni 4.354008322885031 9.142462970697311 9.77185968110694 1.412963369131418 -0.13149367186732838 0.2973768769581201
Ni 7.281267471449151 3.083743919795126 10.944158967323329 -1.007489344853039 -1.1766548202395284 -0.04139887466176096
Ni 6.355939691179489 8.207139611865841 8.164093863963611 0.8594110291541522 1.0138538536184862 -1.5781757734074304
Ni 1.3967718241552642 9.06380292945176 13.850533457281127 -1.8898019611957129 0.499548632067301 -3.1536187212647295
Ni 0.23608336445419034 2.359191178581043 3.0181635389098904 0.15280914551565297 0.286435547455268 -0.1544543944285598
Ni 4.511469188172777 6.66639391434144 1.8651909150169501 0.9928065460298837 -0.48594595368220184 0.15918059625963554
Ni 6.583529160236087 5.519933902621306 10.87712476942474 1.6948989718338037 1.7498599014507155 0.8742848609421912
Ni 7.58741374103376 5.706245855701536 8.487825781953157 -0.31164367128977943 0.33553076232002216 0.48750429930825717
Ni 3.241570820354149 0.730972436741103 12.384310663884863 -0.15691314038169749 0.48563999240600886 -0.4446388674032987
Ni 1.771263448751219 4.518874363276313 3.9059492400741713 0.3180675725382522 -0.027019723121953467 -0.47385791216941625
Ni 2.143718415555707 7.27857382727334 3.514207968681271 -0.3129258804363127 0.4984834240275802 1.508553642233918
Ni 8.491502090049552 8.16297135579836 0.22645945247552585 0.8969190534019392 0.6181078552611484 -1.524213203148046
Ni 0.9522172944288915 -0.05683683066159203 2.4246852126843357 0.9878456024801827 1.3045322355105082 -0.6425798722605837
Ni 5.838009167841649 6.643756040640895 6.060819530228131 -0.16190108051459212 2.645654354329908 2.508412981345525
Ni 7.596527080736591 3.4899492157153515 1.9353579994168855 -0.5355757008941873 -1.5133736893303806 -1.3612541136825849
Ni 7.56425027822574 0.90251815155721 9.15663604411157 -0.2939287705085196 -0.7601420216484844 3.8394805441424005
P 0.6677844248468582 6.099198797697563 4.945210660564823 -0.41384270795804856 0.04636624596936531 -0.5897691562174552
P 1.7545384525097716 0.11179655736791498 4.525225544508967 -0.5283596427617223 -0.6844582576619244 1.2480384141888379
P 2.3324987603371166 9.133781364904191 9.65759754769378 -1.1263810116856408 -0.7061717380796161 0.2864910832835518
P 3.472830027643298 4.022577463022949 10.733012928914889 -0.9310532760814869 -0.5053027609422589 -0.015951638233249948
P 5.194228209822794 0.7142380549798794 13.528285389968222 -0.8100509906637856 0.4473778636010166 0.635314706057738
P 3.1461200842287167 3.025394143345587 4.839012565743497 0.023212690671037442 0.5819977398021525 -0.11592435667416164
P 8.841610134266562 4.331680171337106 10.603531236632408 0.3633063897713937 1.134405167541698 -0.31151151658728937
P 6.0288824835331845 0.8032184137714989 3.8748906780302894 -0.31996196134748767 0.6972389543663605 -1.6310029445107912
Ni 1.3388256250561081 1.5151513850943077 6.667484511739451 -0.09210411432611235 -0.35205061435191626 -0.5773509850587605
Ni 8.527814666064232 5.704950653972401 3.2262733616706836 0.003338834565245863 0.7857376107294016 0.7733122404818552
Ni 7.803083599974399 0.5094422592521137 7.11855540784654 2.383071959343154 -0.03658448399225313 -0.6410096995599863
Ni 7.159649906187268 8.200044158914924 11.651020003759003 0.040500016996575405 -0.23728325410033327 -1.5050813674146015
Ni 3.7374641432571307 5.9455578389587895 13.53492001389812 -0.6994681008071953 -1.7724874090422442 -0.8792306349832406
Ni 2.414556359741704 7.952529231373146 11.648575075857265 0.7432203061924813 0.08023101703761021 0.7622901783397388
Ni 6.506887005742451 5.50528310625043 1.933448046142399 -1.0232766895942829 0.533399776288791 -1.1616215800554899
Ni 1.983967483442533 5.498225195378619 11.623533570541998 -0.04144001231234153 -1.0546657454285258 1.2469603506333105
Ni 4.307334133037266 4.2931150705761025 3.057257982986279 0.23864028234886 0.5805869754975549 -0.5144869985446882
Ni 9.176992297954486 8.08960474770667 3.8563326897765218 -1.3497551119040496 -2.5465522114194075 0.2263331828467328
Ni 4.347541699759129 8.179912218994664 13.682314909225735 -0.8655063434186127 1.5516350468044247 -1.7508574894772941
Ni 2.658270151774063 3.6737364639757457 6.82836827608963 -1.104379567713885 0.34877888557917996 0.24222542859695703
Ni 5.285568088286187 2.6849907265773183 4.627248021581795 0.1971961562714604 0.0008559202423920743 0.19924609682195363
Ni 0.3740692762060193 6.115623457306167 10.000245042240572 -0.44371044205175836 0.7351005052988243 -1.778041506091254
Ni 3.4613327659172746 1.3939561682223605 8.178462156189218 -0.6515702486846521 -0.7346572471138186 1.5690257314770462
Ni 5.568776147537407 1.1117617451069857 11.350173737192097 0.5454055425004155 0.3473339256025373 0.5397347173678834
Ni 9.158474667435756 0.7056343490009035 4.8809639620398055 -0.526409718124203 2.1076178506000542 0.32715282266897205
Ni 5.188747066273407 9.19480601448999 1.9513199529005159 0.9181216556214832 -1.1302003854317308 -0.4864257215320978
Ni 2.264510055077271 1.8959688500195193 10.355735682049314 0.8560323424899065 0.3472015137897311 -0.018392129353942518
Ni 5.3872320385035595 2.126599227483653 2.0435749195421025 0.02708451492161787 0.5974791232672033 0.30638293711147235
Ni 4.840056235542627 2.872682351064672 7.145809080173092 1.3663029889604017 1.1150815275124215 -0.722087380868608
Ni 5.209611076736224 4.054835494494248 12.024341254038847 -0.23258096352865754 0.6576992444005254 -1.1456830544483625
Ni 7.860354041649658 0.6776983493866117 2.174746005384327 -1.3319419949820286 -0.5645669459202147 1.182190405345777
Ni 3.0996523758160315 0.7022217740102245 1.0543120400039983 1.7887131268724874 0.9672952891326566 0.9394787811410208
P 0.8522474305311492 0.7880589222287459 11.893224604211325 0.7068271122754278 -0.2384011697548604 -0.15767444402775424
P 4.209180367216247 6.994840178914645 3.855879369171324 0.7200968328011406 -0.6318707133731957 2.101219403272878
P 6.164409389103611 4.765816774111736 7.095367542687102 -2.8130305990264586 -0.8575276960885102 1.525257328141844
P 7.93954905752246 7.778859573431651 9.462125327311835 0.9694845834744917 -0.2501899348596723 1.3112664689105482
P 1.24151655601496 6.352016543912977 13.513188781407969 -0.5592912993435722 0.9499233735131125 -0.5383321805934019
P 7.839846680938344 8.494289589423127 5.6438424732605945 -0.4587740212531002 -1.788594599016752 -0.7014892450022822
P 9.211981515680701 1.0829669704331581 0.655707137998657 0.35706297996484315 1.191072281216439 -0.5111682185841003
P 4.503116075571829 6.992390558253018 11.739676562118337 0.7765014368431143 -0.00863813529097222 -0.7516758931590023
Ni 6.247874816474649 7.21082914552768 13.491567359499202 1.5990179069637622 -2.339605146408771 0.7272822948059862
Ni 6.953243555265882 2.9600427691428943 8.258505623049802 2.035926752712655 1.1339382552076083 -0.5580957363735743
Ni 3.5965405638153056 0.36018621535284934 3.659775503308432 1.1875177310959613 -0.614649978619535 -0.9146627505386054
Ni 0.6060549227258574 2.890083104730016 11.792095628621203 2.4354730986526896 0.3465381691741193 -3.857142737308854
Ni 8.982280304674426 3.1690301380027757 13.45218477996568 -4.035870145352165 0.5463105708131881 4.474288999987681
Ni 0.20798124113985716 4.449477830050015 7.723366749202032 -0.24312737158593611 1.1289976233728813 2.1091929083966576
Ni 0.2539637181801058 8.360236210457586 10.890242910416138 -1.1665359866379716 0.4718210842450455 -0.5202989772407749
Ni 1.0546790138272533 5.953038098220538 1.8807952801971017 0.2003077053172486 -0.07900845748441877 0.008313147851385682
Ni 0.2826289726810197 3.587042417801644 5.780659887800269 0.0287737296985827 -0.8963927485848239 -2.6469270503947446
Ni 5.228588597723994 6.927855724270868 9.458966161355116 -0.02200221530270404 -1.8191601305084348 2.0847571439517965
Ni 2.166421987894686 4.590316939813854 9.111057144421704 0.039676749764331665 -1.9974617638682375 0.002957282856111036
Ni 5.409250467898865 4.171206554201153 9.501151257093856 -1.6853869185783104 -0.087584629189204 -0.8700556533521919
Ni 5.918358602646942 0.6660987854950265 6.041573583374758 -1.4460159287110128 -0.35144691932964633 -1.054850864856138
Ni 6.386104751740664 2.4165367044145127 13.496498511589694 1.0008774959634763 -0.16305884826811917 -0.0583180190146028
Ni 3.4506802009711226 1.1200022314706168 5.9364473149118915 0.7295037279373372 -0.4356883430782303 -1.184829899851153
Ni 0.6695845675399611 0.6763045996998245 8.752187717493475 0.2680817275384287 0.0497359337725466 1.0995399802333967
Ni 3.936756270188047 3.0019960425431584 13.431826649018808 -0.7446009885900918 -1.1207423253426245 1.4165402878493991
Ni 9.393309757759694 8.192301105099439 7.728463086440588 -0.5404528264808305 -2.2248293015167557 -0.1180005224769
Ni 3.72375189886389 6.194189643353954 7.7103443405123535 2.188284412513186 -0.12757145399478675 -2.229570929966799
Ni 1.7838118886921928 2.611933840638246 0.3488043955200753 -0.42466808070832673 0.11780306175411326 0.8088214891320586
Ni 2.2083377192158444 8.421157619325843 6.6707816448368815 0.7322676638357195 -0.15397462657866384 -0.15533679703351314
Ni 8.6364239009161 5.899033817427446 12.264802024916724 0.5618742295794 0.38256343822879274 -0.8549151981663277
Ni 6.249742534910142 8.003051484329212 3.8306182426932907 0.7048180522651991 0.6932007797412449 0.12306842391811064
Ni 7.9760024163337855 1.0228996438645481 12.103918260566546 1.0440360336288212 -0.15227564160968615 0.32520598335524636
P 8.08667646553645 3.736253411205982 3.8794379623619286 0.3474072020426339 -0.9736546556917813 2.900568177027811
P 6.743927693213829 4.492735690699192 13.384833351498648 1.4824749428689952 1.6354188141902997 1.002126537879229
P 7.543583363678227 7.636884815774875 1.9114699744821313 -1.0477078260534536 -1.2663883774509352 1.6531018332923595
P 1.6864465065323864 6.294389452486217 7.734960681781751 -1.7691729999570307 0.5823227272417391 0.16676535058542893
P 9.053751037771296 2.2699536565475515 7.743037860101274 -0.7190784188389552 1.256187011437901 -0.2479052525905537
P 2.7006927011631436 4.594944001063592 1.644854575643512 0.363732935785851 -1.405455490790147 -0.6687621870829062
P 5.555364239777009 1.7966325087066806 9.286447168138203 -1.4604634715949105 -0.19799319825145903 0.16976608508496568
P 4.624283135884447 8.678480415033905 7.059034318528913 -2.441476624534292 -0.6059851038556855 0.06797533959870873
