# total energy = -340875.3768235521 ev
CRYSTAL
PRIMVEC
9.20230040102543 0.00000000000000 0.00000000000000
0.00000000000000 9.20230040102543 0.00000000000000
0.00000000000000 0.00000000000000 13.46849681967884
PRIMCOORD
 96 1
Ni 8.470919697817285 8.159357423141612 7.139003626741428 -0.03982124576199593 -0.516070283871408 0.4302340048318784
Ni 4.098051103731658 1.704413216360854 2.114055446022151 0.8254418712975591 -0.025907721004697314 -0.079696741800695
Ni -0.032140873578867676 7.1781529720807296 13.373772680965326 0.5666081447199597 1.663634100282251 0.5753198135613447
Ni 2.8560166584773365 7.447034978866578 3.7824517799996538 0.11205973151243281 -1.0606078219445734 -0.4495638155087419
Ni 0.4922687620795675 5.780572048141264 7.729502341298341 -1.1910159740572068 -0.5082441029587699 -0.9226203148227853
Ni 3.8392272109612424 4.23330651068393 0.5683542995827702 -0.2948669660520728 -1.5893729276748305 -1.133499882118609
Ni 8.6871001318983 2.6918108153928135 4.137953197219598 0.40183437064326283 -0.2734239656869485 -0.8101880304622822
Ni 8.208046793000399 2.570588916101599 9.350449775471292 0.4953965575721404 -0.5944850736358858 -0.8050589367658328
Ni 2.948315728536615 8.40903422960705 0.36237645562884657 -0.16579424492141123 0.11493448195706658 0.48075849594399145
Ni 2.8408788748036065 2.968579193369171 3.7920286137195633 -0.9256346761690768 1.1857285004060225 0.18087942138930782
Ni 6.262873798976444 8.95962624952597 1.1332200071955032 1.5994038295482713 -1.125200104003662 1.2865075167983133
Ni 1.9272469134182255 3.6632884352420647 1.6805857006973957 -1.5297382467313332 0.37961001202742367 -0.17343427796517227
Ni 7.840635758983773 5.981991992852879 11.766468576928954 -0.09064089951702455 1.4631811276363897 -0.22177693093461803
Ni 5.130742423883435 0.8857407099952842 13.117709478226592 -1.8799196690849946 1.147726310130636 -1.105276882717174
Ni 8.7764820728241 1.2863067110624165 11.382671007114267 0.6220930651611415 0.3588424404627691 -0.8247224766330311
Ni 1.698238472989989 1.4244976517483776 2.419157706023685 -0.7017011039027722 -0.8992469302041675 -0.973366435027401
Ni 6.45022342682658 9.166181077696516 9.617206971162757 1.0497605948174245 1.9417896671169137 -1.1707145434956934
Ni 4.008696769706175 5.568431423806613 10.954507308030406 0.019103810708986455 -0.0554502105485045 -0.04757080780042775
Ni 5.682107437011226 0.26039104447840167 3.4270994400414203 1.2301908444844554 0.15812592974287606 1.026018514005478
Ni 8.060911216611785 5.058808043957874 9.599657264631343 0.17440898317361575 0.2490568496964937 -1.1268800628092464
Ni 5.314733212195022 1.5249499597012277 8.088478547038164 -0.26123590826118875 -0.8760586650131622 -0.45515519355359035
Ni 8.439999969462432 7.683046369675185 9.973866037735988 0.09954668664708663 0.06657434548612405 -0.728925486836364
Ni 2.0593367291341664 5.273203231818399 9.50400395618357 -0.12950106691733182 -1.0214242097665762 -0.8876103744065036
Ni 4.052269660706243 5.3068100318040905 4.543988125239496 -0.19245658470394597 -1.3527738441257153 0.37345633372120196
P 7.155184031017124 6.7161791021788435 8.203418956277288 0.3279622059441448 0.2632925336799014 -0.3702594240504591
P 4.245563974424604 0.27015928604050776 6.534537661084219 0.980138463643912 0.16482313925739356 -2.2803363334451245
P 4.956791344987069 8.979779286757259 11.14387408006369 -0.4654640316787661 0.455608479040925 -0.39648493340589136
P 2.973934932030636 1.8948180078460524 0.3418424431731861 -0.2647089544114538 1.234722670916538 -0.6067523210390131
P 0.5785145591293752 8.467947354883172 11.803776542017122 -0.49322268984927314 1.9304001943330493 -0.3317589539824158
P 7.058688712109687 1.3923724220796896 4.704721020264161 -0.5831459944739829 -0.37854891775276095 0.24806877475161146
P 4.618763255207659 4.0399109716644075 6.645571693928512 -0.159617426686738 -1.3938297336257608 -0.7823743506841236
P 0.8517667382353789 8.361688395563682 1.7029969823746007 1.1729213213390253 0.5256602415526882 1.0498253866170886
Ni 5.992666660975387 7.065001489982135 10.11968936612954 -0.5408086671583525 -2.3682333516684246 1.2918978345759493
Ni 1.933440061389302 1.013587345132528 12.227832334333836 -0.1302137767136403 -0.3317157594493061 -0.4897118484825373
Ni 1.4773556635550074 1.4872021246680114 9.608748216905678 -0.012890482809422961 0.039351505214429004 0.45397891385730205
Ni 2.5643497566299946 8.702237915572029 10.523030780908526 0.916055517121074 -1.0146197852502332 0.6942855281649913
Ni 6.5916443748496105 3.038084166066851 6.211374046665403 0.09581498751879627 -0.9006443247723264 -1.1685311626911294
Ni 8.380341457877755 5.1997228654750955 0.44183831704079785 -0.4193518107017358 -2.6311492187351977 0.9592775610345027
Ni 3.4129398608689168 0.5528981163253858 4.283425917979129 -0.13962992782121758 -0.3645052951755013 0.697378051047386
Ni 1.3650231861658135 5.000713923391151 13.128753158583338 1.2437932657592385 0.5269843596807505 -1.0420951078523666
Ni 3.879947388928571 7.2071862289139315 6.199885895213558 -0.9782888120296829 0.7127555619447209 -1.8613969276904587
Ni 1.2025289709009337 3.308263697167591 7.733085716959466 -3.5546516790526197 0.5461958996121948 -0.5219989906510171
Ni 4.750742643322333 2.418530109156482 4.769100311803015 1.2830779222914743 -0.2596508231622561 1.3164762952462619
Ni 0.48432809731843574 2.8041708996823242 12.95394626577715 0.07834305598627798 0.5541694047359746 1.7400894523275128
Ni 1.7940252147892943 6.404727255104439 1.5370252178998107 -0.31282535030270636 0.016623981709926208 0.0687528411946816
Ni 1.142336725910132 9.062149075002583 4.0744628478709455 -0.970434863202903 -0.17983555350582575 0.3269422493200627
Ni 6.302287250328776 8.099266403451972 5.928994106084643 -0.823746228762691 0.6858929332259219 -0.09797368573301192
Ni 4.517970462150902 5.03767956291539 8.763950380540278 -0.7927348679828411 0.833835494677893 -0.9018460583899113
Ni 1.2717118630949176 4.092943827173045 5.307422904991125 -0.10919655103202486 -0.1838055938971673 -0.1893000413528353
Ni 1.2853128626510106 7.871030956232607 8.607796550048166 0.886789421167105 0.03171250061193248 -0.0093708996919387
Ni 2.481492246479073 3.3155151096508124 11.48058716115801 -0.8494636881334531 0.49399247813576214 -0.65805225686457
Ni 4.703231167877063 3.055356883365083 12.135963931919502 0.18682638300136212 0.9409623076650827 0.6034998755399864
Ni -0.14234393872362325 0.5235170125481908 0.4219852747929526 -0.037591070879896556 0.6875911468639513 -3.1044905962795113
Ni 8.447757508451462 0.5191072703375821 2.519524432585553 0.3336340595179415 -0.18549275179160316 2.5417571040236098
Ni 5.165527118282645 7.709512184778922 12.874172446391619 -0.48423539874899835 -0.40113220236991565 -0.527701183242117
Ni 1.223703463443945 6.6346099140427075 11.100882774430296 0.07972733792831431 -0.369969403613866 0.6283657855437307
P 6.967650357164876 6.893654662015658 0.546085653557202 -0.016785446988454963 1.0788875940903677 -2.29144478465346
P 3.390900352115978 6.013850355818504 12.879330335600812 -0.47790174322148665 1.3177330504714984 1.53064764591948
P 7.1242551003621655 1.7029316460438508 12.950915948352373 0.6398925552364076 0.3144070929675295 0.29616691581041893
P 8.911765086676686 0.48697283836878835 8.972025428688271 -0.7132571841714876 -0.7247888389601711 -0.9728570994911504
P 1.6521993655616172 7.116460752172713 6.288804960444046 -0.5758093516032535 0.061412084558894235 0.12810470079043745
P 3.46088384441915 6.982732927037973 9.22841163216071 -0.30667372887901373 1.0492016369901607 0.18723338863179367
P 8.868394646278942 3.215421691402081 1.736574334999954 -0.405781785326785 -1.6834511350081782 -1.0915037401924814
P 2.6757896109089443 3.2009188664356385 9.107842175946985 2.4285331769997462 0.18443474284073397 1.5574570528028404
Ni 2.767785005064738 5.1683614267151725 6.924208138826308 -0.1746288124939057 -0.0315345802731715 -0.043445472778144534
Ni 5.402394323001072 7.037339375864669 3.775664163441755 0.06453186113479853 0.32267884605801844 0.07985615019669472
Ni 6.421420227496017 3.830577048861968 3.8294838156094215 0.6833058892250361 0.9056199236100467 0.3067647459309233
Ni 6.4991152472876905 3.7066864825401264 0.5473325652215122 -0.18478364153972046 -1.494653230102742 -0.41659455967157283
Ni 6.470394868658079 5.546750804757793 2.011344893623384 -0.1825606657464727 -0.4000001456480014 1.9071342818265737
Ni 6.1532744047186165 3.545204520286864 8.364811656219526 1.450248735845438 0.773883282493977 1.4546172972267786
Ni 0.5563683036952117 6.310449690522454 4.4550552565588495 0.15931043696928046 1.9057939657485952 1.7631882431285053
Ni 3.0570961180850436 2.4831486604980832 6.940855099717359 1.8548246737895797 -1.2925858617819093 -1.1766216530087477
Ni 4.219871152529738 6.287250691956208 1.530182387541278 -0.03441781535823751 1.476804117736463 0.5675494255873065
Ni 3.3846703949444796 0.19654824703570392 8.370993761430476 -1.450880970112798 -0.5738015771446053 0.9700594821413552
Ni 7.995298816858778 4.793901430817648 5.533505013985777 1.188482666112392 0.7280806223375654 -0.693296938999477
Ni 3.9015635918766516 1.640374409925907 10.286766326847015 -0.13632528892801685 -0.20977579270868388 -0.0805979134587257
Ni 7.739815359026699 3.6218504778664986 11.817717106447112 -0.3615323285901064 -0.020522031212751753 -0.5254519821966241
Ni 6.856937484594271 1.953804751523019 2.1156851733708546 -0.6982992773100748 1.5495457683755636 0.10166630409325071
Ni 5.130852851484702 7.758109531636654 7.920337800428482 0.5993907384676194 0.026338895004844962 1.7081748630071034
Ni 9.062001838200894 5.0030697122181875 2.7615532074332183 -0.34127743499581226 -0.11279378146497995 0.2654918553240654
Ni 5.64867548072754 5.428703699003015 12.708402212289142 0.4338757153495238 -0.5526380556931129 -0.34486052436138026
Ni 1.3814861010547517 0.19769577385887363 6.674071217355589 0.9832664677499325 -0.4963784618694355 0.1586694609511719
Ni 8.19261453572329 7.396385519085295 2.367869606615072 -0.14887690034078233 -0.773379603384681 -1.339528806190351
Ni 6.265450443006015 2.0167668888456096 10.873197624757248 0.3645780573949657 -0.4854723564798929 -1.0197465649538375
Ni 5.858957240440859 5.71589828299903 6.562727066997737 0.7641735114053807 0.6389589876785448 -0.0116075023319413
Ni 8.449947655876597 1.3054106860816652 6.587172056998282 -0.3655771880834414 0.8953992743233031 -0.16341288917342825
Ni 7.404235081075381 8.760957792545934 11.867132537784233 -1.2328609351174509 -1.3064369087323888 1.7251608560421385
Ni 8.067932571592367 8.263260593634065 4.503097704720213 0.3272212140130622 1.1066696492996424 0.8729144629572256
P 7.419925002755448 6.24359498025519 4.086503137329127 -0.6519307173478643 -0.4577566357321794 -0.02304736873776676
P 1.2145471748388617 1.8289203367897717 5.3109915569720805 0.5911997180163947 0.5374749747994292 -0.5537737119594527
P 4.138752877098776 8.552037973248247 2.2358782555102614 0.1601756131830532 -0.7352522003853402 0.4736614798878939
P 0.49885944941520616 4.509614773655007 11.103576287671208 -0.12959388374145422 -0.2640813481297839 0.46716893018501476
P 6.068585636846679 4.558110895211577 10.408184235130479 -0.5590059068926695 -0.4193343272002391 1.230541542955655
P 2.137767932934289 5.302917458859417 3.3592048698622223 0.5584752312001801 -1.272798137632021 0.7690058997970176
P 8.285318506987215 3.773237516903906 7.364842795013293 0.13787669257553672 -0.17128123617791147 1.7308231965342387
P 4.964125578171242 3.7959395912644482 2.302466099074463 0.5030134506874498 0.09301119952141401 0.7784601032313819
