# total energy = -381182.04010178597 ev
CRYSTAL
PRIMVEC
9.04775587698747 0.00000000000000 0.00000000000000
0.00000000000000 9.04775587698747 0.00000000000000
0.00000000000000 0.00000000000000 13.24230528715971
PRIMCOORD
 96 1
Ni 6.60048277967975 5.068390062022712 9.927544432685622 -2.4943045669686006 2.3879398289584164 -0.5335309025500167
Ni 2.340953057965666 2.6662922688832116 11.501220637004236 2.3598482129285228 -1.7660563087049197 0.3505966555142091
Ni 6.843813130044522 3.5663358943474956 2.0311977020145915 -0.6786362516635087 0.5213994093938052 -0.5701979189537469
Ni 7.380100772536198 3.302394755772306 10.684659751548159 0.4709492231630535 -3.1760875917912075 1.6059076921050601
Ni 0.21199073306747554 6.971748400147812 1.1525511147587426 0.7188274791704137 -0.5903157727495446 2.052879835627226
Ni 8.716182903805846 7.406882130351314 6.025712316514076 -0.5992143607907552 -0.6018055185566991 -0.36247798033282735
Ni 7.543195622527847 5.913477617429897 2.7822220715253945 1.3002958288316573 -2.481803606288113 -0.703314471136479
Ni 2.6316212678198587 6.412099451616058 1.9073818752265792 1.2946208899340672 0.3248650550760599 -1.6358088505398665
Ni 2.0217210823606884 6.650344963098365 6.1127806822324615 -0.7044059044284449 0.3278660466859128 0.1764175289632123
Ni 4.843661898032225 3.7532082471560777 11.572145996434198 -1.8005569135849506 0.15912068955597758 -1.2072584040579981
Ni 5.638389643439768 4.306605196278965 3.9931511176674785 0.5684238577724597 0.8989553671056777 0.2526090858241263
Ni 5.020337429807821 2.2211064817430226 2.9742082160357004 -0.538144232952312 -0.27202837089100246 0.25368714937965336
Ni 4.936573304587435 1.1612523417218494 5.700004861926572 -0.16736673161485371 0.01622083273423658 -1.3395578596560738
Ni 7.887091781039582 0.5844886579052738 5.367132489347923 -1.6793085735947142 0.1525569202955308 0.5084513338735694
Ni 6.60382140165062 1.398194976337476 7.494601934503041 -0.5152899540619578 -0.09798268459407641 -1.510297364397902
Ni 5.403365133100089 6.369710714668822 11.772144833674597 -0.2514006673383219 -0.8871712299865561 -0.7869748255706124
Ni 4.025934756825347 6.9013387628109095 7.546683532473024 -0.2130025271760977 -1.5347531834474213 -0.5452515334210545
Ni 0.9739818876484482 7.832208093030632 8.035272310010138 0.6546697135455821 -0.794745984875599 -0.6746674968237477
Ni 8.016664694982243 2.1729362286998883 0.3088804379440739 -0.0652869941332682 0.42730963209623185 -0.39426864248086296
Ni 2.0608797704092767 0.5447997713539943 11.019226768829094 -0.701582833157353 -0.9800353624071445 0.7244746501538619
Ni 7.719138286065935 1.567360870617618 2.905613558556133 0.4414756391839687 -0.6224609900235215 -0.20315108830331463
Ni 4.411296781170419 4.6239009520959575 8.40359379066974 2.3440953209696405 0.36832801135570115 1.672131596230301
Ni 1.9743741751152488 5.706953538548872 8.784469032805179 2.215780561050926 1.3893105055991686 0.7696512466905003
Ni 7.5581968020067185 7.474269817177998 11.26872497447176 -0.8870272482095239 -0.628120502302144 -0.56864831507844
P 7.657930216599969 0.6767938648072374 11.6673844858374 1.9991134405390472 -1.3679538943002634 0.7472389404335712
Ni 8.646895188215252 4.689515278742991 0.7159136475049456 -0.10128552371506427 -0.5897449878477392 0.5365743173620308
P 0.07638115630919191 5.8383088604272 4.191891412045685 0.4306651788320261 1.3390693500554292 0.7967964396467245
Ni 0.3896714705367413 4.395562733454039 9.74435089747421 -0.4022148939111331 -0.7568566660289934 0.3866149825903471
P 4.547610273346952 2.61777820111137 0.6428104932012997 0.048596163741148564 0.868482138217485 -0.19434300309338143
P 4.86952038473344 5.568902877216765 5.807068768446109 -0.11276832754368321 0.4527668958270718 0.25973104158088817
P 8.073439363999086 5.162758157296922 11.66911984544177 0.05150176742371775 1.2325544596206257 0.5584040116426124
Ni 4.019067510007214 2.2222917377814615 7.606896348776942 1.0768001154337197 1.3359068931670477 1.1900312415464345
Ni 2.288946556370637 0.9104123538616226 8.597950447256924 -0.8184687824138356 0.49408220963609106 -0.18968519260639588
Ni 6.112844921300194 7.875800181528344 6.525901222042661 0.924271477272963 0.5986250639461884 0.27479719188539126
Ni 8.081274720711209 7.970484948263205 3.5482358584322458 2.3223615288369746 1.0163018009383467 0.6656614366703956
Ni 2.756643160485153 3.3808568959657808 9.352404821074385 -1.148823399849557 -0.9336125521682307 -1.056352389102329
Ni 9.129004867667431 2.60322036167741 5.830785651297718 -1.4094106187831534 -1.0423432193074307 1.6217999378552843
Ni 1.5900526427123178 5.639158702701351 13.106943088365202 0.010288269299885508 -0.6750986708238954 0.3233175080832819
Ni 7.558821097172003 4.653758546957404 5.934089310415916 1.6364886502157108 0.05755928647170733 -2.1063235572686625
Ni 0.34176088809134164 8.250051561482552 12.468769570123445 0.5164850028113234 0.6632916508866382 -0.9568851495429261
Ni -0.08500276301933511 1.0577007740887412 7.74196848882772 0.08553134620460108 -0.8361906251736307 -0.7638305262436652
Ni 7.6194048714726845 3.518102307012231 8.220955787677873 0.07507904052302554 0.0575410316392622 -0.5683852912250404
Ni 1.7855836980307194 7.498436373503732 3.6442696455894827 -1.2188347960416879 -0.11498436135839551 0.7588600696122673
Ni 1.045956786776572 9.30082175446103 4.9590054060844 0.327028638386282 -0.14431293511918372 -0.20565225745861354
Ni 8.179397634733146 9.010958794892492 1.056836713388963 -3.276011202161739 -0.7240061951578757 -1.1221191510854933
Ni 6.491810182140101 4.242393271814817 13.015928091471492 0.05823394394122874 0.2796588908530668 0.12946070059769962
Ni 5.344636148783225 8.645329926424031 11.295977720375447 -0.0730481261359258 -0.23814380232841564 0.6148741788151991
Ni 9.201025005575648 8.720851545911454 9.925902264968242 -0.9184540992602375 -0.26539492473488485 0.7073156218760721
Ni 4.072874515049949 1.3508933078721295 10.203063984637838 1.3384540850689335 0.8180242386772492 -0.4010833514098512
Ni 2.316578403251503 1.8583547996884817 6.107921132474861 0.0374638012734129 0.6619143109231375 0.14108003000418284
Ni 2.7629042076500383 4.4494149772768665 6.945364238821913 -0.5978084815821639 -0.546030320568608 -0.6856052267821741
Ni 1.6871803035722057 2.4758731957153306 3.6763421311242874 0.6696201642078274 -0.43235207961614563 0.9821452096612957
Ni 5.9780966909148825 1.776635467328304 11.99190035095725 -1.1141178780475716 0.8690979174246128 0.8171053264074056
Ni 1.2269933369531443 4.337919479859409 5.197472587589163 1.0815967654914147 1.5158157231129699 -0.1303688142342658
Ni 3.0694240860488544 1.1642833399880872 1.6995838722981325 -0.16306321914349337 0.6185413432541411 0.8596971929360032
Ni 2.465640183658271 4.781748103596805 11.164865783134019 0.9770819362057752 2.280997106957575 0.024817830374628223
P 5.704773029348385 2.7557112416152356 9.157120769495293 -1.0453547524402447 0.8224822744486028 -0.06420121726825717
Ni 5.6376567752022595 3.5238747753521107 6.377957744279795 -0.42084073654243653 -0.15177787603766119 0.5407929834290687
P 3.9083501196073582 6.189949898090876 10.202798885386493 0.7798634113368118 -1.2221394349348889 -0.24147980868018412
Ni 7.075191394708696 6.665337094821219 0.28650533731002603 0.303037160567691 -0.39819703100099163 -0.01009440812152455
P 3.061136341535798 0.8686225783628194 3.8807110345216778 1.227714615029821 -0.9180404087615867 0.7917493641411203
P 0.4271545141706811 2.607699000906627 2.0488498740069194 -1.0160133231636501 0.6499967335499451 -2.134632945736317
P 2.431430618151868 8.84200099900078 6.7280443774594705 0.6942505611619979 -1.2088200921181633 0.25219359555326243
Ni 6.807884490894581 0.9898154606810335 9.711668593183749 0.2489997712063131 -1.0231069967856379 0.3609795414104299
Ni 4.159144868687492 5.305794132195289 0.26151000653298584 -0.6939605407254049 -0.7846459203271197 -1.2327334084006512
Ni 5.93359077905929 7.008446098559335 4.363167243029369 0.03779521647090265 -1.951130742012182 0.06368545397410323
Ni 3.6065893608743367 4.195317797249936 2.2374331574786224 1.7990728728402565 -0.93940113382555 1.118551488338893
Ni 6.072066684924272 0.13964939982059754 3.699118952125562 -1.095409503004791 0.9404689129684319 0.46008579808598826
Ni 1.254462324225675 1.352974291756412 13.169115648622752 -0.22769406775000142 -0.6953345382547961 0.38576214767174855
Ni 6.604454744571924 5.720226596628188 7.5555829052929395 -1.3898753769637031 0.633932738108547 0.555003984822128
Ni 4.032566761986995 8.222039708848904 2.7126203988009547 0.21065896664458558 -0.039306253798790367 0.4688671438230441
Ni 8.406324403436159 3.6873315355845038 3.889238544569227 -0.6143825838907612 0.19127567702196735 -0.9945584957239839
Ni 3.9106392018800693 7.922142787855718 5.148913281037229 -0.6381367488875654 0.9244128879468336 0.5997746041695994
Ni 2.996842987267483 7.9657529718654665 9.691010756642035 0.12896704879073273 0.222032755699166 -0.943844257198568
Ni 5.8533733741982035 7.597237869227065 9.197747908345704 0.35398099860540966 -0.8975777700318606 0.3188103642415477
Ni 2.7133677434480927 7.338110136853782 11.999541180914974 1.20786595573501 0.5600266348477001 0.41614101707392204
Ni 8.24297621627599 6.384042360202317 9.12541833718165 0.08744296140501714 0.8442898572419977 -0.44994588143850894
Ni 0.8048956136212698 0.3795922703319984 2.22959418166409 2.167876024060163 0.333742817181664 2.1721977913639687
Ni 0.29102107233891944 5.184445628473554 7.422815228700104 -0.32757474069773906 -0.45923116339517683 -1.4853430084454098
Ni 0.8022328590249899 6.536904198136906 10.766219843402407 0.15391394854405752 -0.061213595394842966 0.9624970964130649
Ni 3.167293662902269 5.573291038885796 4.274986908096294 0.8361898538426825 0.7286532070115838 -0.3353492424368354
Ni 0.2043290932709079 1.9402008006329203 9.903801311341557 0.7267963563085031 0.8278445672017808 1.0454244293359156
Ni 2.143304827738907 3.350022143454323 0.7063049306131708 -0.21974473099593772 0.36328273562230984 -0.8419285560986726
Ni 3.625951558754184 3.4366544073326115 4.913848960571068 0.35913965998821373 -1.152790869137737 -0.24004564733681888
Ni 1.3902058077730344 4.628551498689529 2.665622734937834 -1.7958196560102815 0.6064345326882782 0.06256496721641484
Ni 5.406341844830216 5.896377358554705 2.1375070256821753 -2.006007082335087 -0.8792468329331568 -0.2554450126110246
Ni 5.882172381605471 0.847654403789667 0.9915001528517007 -0.24921548676154504 -0.16150461640712185 0.9041865335976298
Ni 0.43463248452007075 3.462530989545866 11.950544867747341 -1.4585117471851785 0.8613154452657167 1.0832569268026568
P 6.457763476242034 7.724033122072009 2.161501674643556 -0.3483348560632259 1.4319429955577148 -1.3472457152186346
Ni 4.597354835937326 0.02086412537893823 7.850687229923062 -1.115068414886299 0.8274028516786718 0.32541527115257507
P 0.8612251330419955 3.034309744940589 8.014295992456567 0.7339152267414716 0.32037668028740307 -0.49593186125032007
Ni 3.7814643892022284 0.6805658742914 12.858794807920514 -0.11090916284775738 0.00614647921737006 -1.4645780079839164
P 2.045887638686423 8.245735781861669 0.7319562237015611 0.6439659539748329 0.38109430988243403 -0.21708569610653583
P 7.744589623746314 8.229730301464729 8.15377710401522 -0.7036746826893752 0.6668593136332386 -0.9680108271424427
P 6.6773163237898725 2.376917888139681 4.7280460525238865 -0.04469785712800689 0.13418587398751083 0.08681895466777306
Ni 4.825294953314424 7.6211963271643715 0.5312996145986111 -0.5660319605015155 0.6315539534637252 -0.5993969091152064
