# total energy = -340892.2616873805 ev
CRYSTAL
PRIMVEC
9.04095843669463 0.00000000000000 0.00000000000000
0.00000000000000 9.04095843669463 0.00000000000000
0.00000000000000 0.00000000000000 13.23235654618530
PRIMCOORD
 96 1
Ni 6.4841028992566025 1.8863326434338297 11.372112324149812 0.062431526962344094 0.11692065914915994 0.6128499492963188
Ni 4.619875398641825 0.30747213951109037 6.131689060588362 -0.32114518302231143 0.4270188403286904 -0.41096975728562773
Ni 2.562596317407318 1.498150061806481 4.6808006078152555 0.6938602677021147 -0.4965077883584482 0.42638017830342695
Ni 3.5470120109491527 4.169418696876384 4.546743087695682 -1.3714904466986122 -0.41175342952918764 1.2276626787459632
Ni 4.901989458570552 4.480735051817601 2.6611725970388034 0.42780431234446326 0.4293199776580413 -0.6512452612450655
Ni 7.302400026680939 6.327233233386094 2.34382049839779 0.1154715854074592 -1.7222753069642274 1.8382631698864729
Ni 4.851577075601619 4.473547490042081 11.43079718387925 1.0580932830528358 0.9551686810724517 -0.03147750178299095
Ni 5.4925448487302875 7.8510144117128275 12.230865027268388 -0.17928250921583316 0.7039896428266327 1.7348192050675089
Ni 1.8926703551377793 6.45303816685322 0.30219674039660466 -0.6931660698485674 -0.03747382857574191 0.9704914274724512
Ni 2.7841811621321337 1.3429077684134494 0.5096794985082674 -0.44983095312719945 1.2517590575735347 0.06519186331630063
Ni 0.5768773244865475 -0.1425840478057284 4.822148756633923 -0.26950303336598747 0.7245222155623458 -0.667563795899431
Ni 8.5230740401195 2.368803378214514 1.3907606561136403 0.8380464474354469 0.2671831269835592 0.8108333773557649
Ni 6.9238099017124926 0.6736417960931096 5.046450409300302 -0.880507187702819 0.222954496182487 -1.5380958746674092
Ni 0.67527368904969 7.43401829627594 2.5343668294980284 0.5170298195711999 -0.7528154060800842 0.3680816996728499
Ni 7.7509762091390755 4.145197969836611 3.632771828224692 -1.469661850264727 -0.8314515678267486 0.31612510409990074
Ni 7.5611974553907135 3.818891706186195 12.783356175179954 -0.29879638301346606 0.28274087221250016 -0.47862268054791113
Ni 8.149004394255156 -0.08172483762721855 6.913284418166503 -0.7262847067794072 -0.740884458970453 -0.09768109419325759
Ni 6.877954161680493 0.8299445938839631 0.47873772313651786 -0.17562511496890398 -0.8166101319385419 -0.8555137509822751
Ni 2.123847656521497 6.423338619139278 9.1708433261082 0.4574745857153863 -0.15324186217769736 -0.29361638147442337
Ni 0.1514559400954367 4.799157599910465 1.3475828479029106 -0.3988914859648549 0.32132156069917567 0.6564304049904307
Ni 6.409270888167316 2.2301874069663654 7.011309199347289 -0.3283221603867249 -0.41440963620511206 0.19088872599619386
Ni 3.4650195609589716 4.272892463569252 0.4761583377597179 -0.2851175999747928 0.1060898870822431 -0.21687383720604583
Ni 5.893656000595365 5.704455868172327 4.642400041921739 -0.049373665337121425 -0.2987737573056467 0.26307039036676627
Ni 5.579238596988733 2.790102989758506 9.3694605206009 -0.4048621017259931 0.6107365024977417 -0.03006930858155466
P 0.20545215889810062 5.571987748505756 12.358861489005182 -0.7148088449293237 0.20895818190339496 0.7309718278424314
P 3.8120386598643776 6.243251772590109 12.59943957873379 1.2099146107339227 -0.8313986031016262 -0.5511481014111476
P 2.415138289031548 8.30855018375529 1.4228750437649935 -0.3633218163903614 0.5786349939775067 -0.48852297038075865
P 6.266405666561313 7.7741481850266965 5.785040640969492 0.7863623887975941 -0.8765906262572323 1.580406462510162
P 4.83146094358837 1.034068636021279 12.705007231347677 -0.05079882781942219 -2.5761998590825117 -0.5121228691878857
P 4.078710763173496 5.955749301569294 8.253034179877828 -0.6817177188023097 1.5034813699173333 -0.24345878678342583
P 4.7057192968287005 0.8717129167100343 3.829192069872799 -0.21909681299929362 -0.31375120455108546 0.11320284397794052
P 0.3040130689006324 5.531556583398678 3.629687957379874 0.4426408631366635 1.1565428799810016 0.0988961975472813
Ni 1.4167723969744574 0.8964923749670735 2.580680042015363 -0.6121051007104943 1.1814671540265071 0.09542417983828082
Ni 1.5494394177216093 6.555399895686481 5.292307514526677 0.37900837388768277 0.25238282874593304 -0.9485473191011922
Ni 5.94225115096445 5.306698911802493 9.061596907599395 0.6243345528971505 -0.04342978904886069 0.8210380858029085
Ni 8.729406788347081 2.535762753445375 10.325167555448411 0.07706033261911245 0.36975111695547286 0.46949295033250116
Ni 2.7381355619777623 5.061336346990107 6.7555151769542805 -2.421296035821359 -0.4188972396628205 0.4234920581223546
Ni 0.4889042806416407 0.31658000081003274 9.243065212562776 -0.09579724690698341 -0.5145373921666493 0.3364810420484334
Ni 1.4178482710012335 1.0228397659266923 11.432769016864457 -0.024039043227074727 0.42940816649647334 0.5983101038089308
Ni 3.916958979870559 6.61452776236812 1.7383873074106377 0.6695348035828728 0.6482368134360449 -0.2551655336973928
Ni 5.859454055693738 7.522122434014865 8.150152595947597 -1.713726903173584 0.5085199823279758 -2.081559205839789
Ni 5.328415293418594 2.7584777179462163 4.6737604136585285 0.2810657985029224 0.06994223351709246 0.9373370522076696
Ni 1.0840108891633853 7.791624357243149 7.54522208223682 -0.9245080187638013 -1.1285625927179919 0.16904514775854113
Ni 4.8999462020154985 4.467327310794838 6.9670735990262 2.3277127658465586 0.09751628648061915 -0.40086635030303863
Ni 8.028244315468205 7.3670247959531645 9.006841248307241 0.779813789045799 -0.07854565891538731 -0.0936802005639806
Ni 4.404917576283621 0.2915645735437595 10.424238375493886 0.48041191123785004 0.37609659955752645 -0.1664357351601521
Ni 8.018805555098842 7.15363105936498 4.542588767399013 0.16557698670428259 -0.016267112591139728 0.483107198681826
Ni 7.246671560285583 5.802649715271606 6.80345576194909 -1.7663393871629776 2.5766037793891496 1.841478591499977
Ni 2.2839359035141245 5.127217809453272 2.680861995824625 -0.5790057470533642 0.3378709804174246 -0.09606875540081519
Ni 2.147155246782241 5.187837434239265 11.382366578949554 1.5374906369832422 -0.35290190660861803 -0.5035891206852617
Ni 0.9425198932050284 3.289480316388527 3.7786314151892517 0.507034656031701 -0.10420372580312376 -0.6712101344027667
Ni 3.823484512955961 2.332359275677253 2.5200495680795205 -0.7873782316566181 0.45676213302939406 -0.05819692005570622
Ni 1.1008632352634733 3.408522613115919 8.224875211442564 0.4711770229031434 0.6735626937953432 -0.26473723654622794
Ni 3.7480467576667262 2.5920879230824716 6.676266657780287 -1.2219491733009538 -0.8476801138704692 0.3345339456243916
Ni 4.114666653967514 6.9966348200795565 6.015151109284642 -0.040980041956787484 -0.18487645836384292 0.13970988912953358
Ni 0.9675814293581636 7.433819395195359 11.430016949185882 -1.109010124507361 0.3358009852622733 0.006096342705724986
P 0.12768002819950786 5.782985631168767 7.89800931247906 0.7401519516798026 -0.5864298074315772 -0.9665938921902579
P 8.474623545081748 1.7463334055798263 8.063983223265227 -0.21643649255831113 1.1291824856901778 -0.22883486622266397
P 1.9616167024335254 2.999383090361959 10.743548745682796 -0.4433702851035203 1.2853343224258187 -2.4106511545130034
P 3.8535637809146484 6.178880150147712 3.9520812943177805 0.08011711716756524 0.322965781170818 -0.5335761539656553
P 7.068926321912338 4.290025079373794 10.618542128825453 -0.2027623375053282 -1.2117012703207002 -0.30835831567028826
P 6.244056417870638 7.801524206481131 10.204502406722648 0.345817746068327 1.03519992339443 0.3183334246051292
P 2.306312275079424 8.474442725917585 6.028317456723246 1.651057034948189 1.031101070734708 -0.8555584881772814
P 6.752194433004407 3.9758427406805765 1.7104010212771494 0.8716106565441376 1.4694026830660694 -1.332588884537408
Ni 5.38936943365829 2.7593637318506197 0.46105993755202107 -0.5336203769400294 1.5318228971745038 0.11031420957623582
Ni 1.2464226624155206 1.2108374509080388 6.9612910021562335 1.414436097022203 0.2755929483138092 -0.3122777053293525
Ni 6.90763562747802 0.6173202428392962 9.0240570409273 -1.3335707888347035 0.4820895560505891 0.5146554058017523
Ni 2.675291861472552 1.5965970557355895 8.955235458854826 -0.3551639631699174 1.009966602748938 1.3533104333554757
Ni 6.317993374097312 2.091327329846595 2.667338530536797 0.9223680896026631 -0.9987961879544153 0.0144655406060267
Ni 4.320221879789188 6.760204721976875 10.365791292965325 -0.635290537688022 -0.11831856793795108 0.14406482366411963
Ni 8.28598395206762 7.287844083965735 0.4912974222793517 0.14960015166005203 -1.153308432204104 -1.8751263614614093
Ni 7.769157576095769 3.7940471530300566 8.42168059791034 -0.4162027235497929 0.883524377262588 -0.11143521055455648
Ni 2.9536629647030828 8.415929644394103 12.4191348450918 1.16158969837629 -0.3235687048621395 -0.29526163038733017
Ni 0.13343007761992415 5.567584801858361 10.010767329662375 -0.8381372073770403 -1.8569440341254275 0.7627730315134282
Ni 8.547873388484598 2.279749939863727 5.736120920200733 0.4519523703455765 1.1884551553085663 0.7137680623696352
Ni 3.754583370451256 2.4763455761010733 11.67861256065352 -0.059854253153471114 0.31845812310845156 -0.5757481593480149
Ni 1.0147119444975192 3.52078419118716 12.66045338929766 0.051055423914918525 -1.3580379207381321 0.6773820675414334
Ni 3.350425415670015 8.506547168514908 8.174261215105588 0.6173545220348917 -1.3865907926751604 -0.4671103090329374
Ni 5.654604024612303 7.921759909692005 3.7084337992774903 -0.6996221098865565 0.31936700807596613 -1.2066017443106059
Ni 3.018694577094678 8.260361876505575 3.484277706038262 0.44327309740402365 -0.3215503888805301 1.53197922024671
Ni 3.4116959894469976 4.102497524219275 9.199570970814761 -0.23802938823773848 -0.509068398632278 0.5366159692332436
Ni 7.268333696152435 6.351128485930372 11.443791753111896 0.5536986357471432 -1.0190611088510386 0.5072920234581457
Ni 0.5472654740672244 0.036135805862361425 0.38291893575853364 0.5159633259798985 0.9007350847139197 -0.4279264397446243
Ni 4.595283992315517 0.04338394205787673 1.5561252063165747 0.44418069681995764 0.0738528814254083 -0.03668552834649166
Ni 5.9239884153838815 5.769460357689298 0.44384866541106743 -0.5794950279849568 -0.3757818965305851 -0.6473528681691947
Ni 8.012648662559057 -0.1670705790168219 11.1161184965804 0.048149306011717075 0.34429128212147153 0.9561143328151727
Ni -0.11985236658284681 4.790930327941002 5.807350109444051 2.013762815021106 -1.0386223188124177 -0.4607661119824646
Ni 7.96919781741044 8.995699171411454 2.5205260265770923 -0.056199944230335475 0.25314438950230594 0.7020245486804619
P 8.384629847077308 1.7830939416543745 3.705151931447913 -0.3131238553797317 -1.3408853202182454 -1.287204285755022
P 1.8856184077353817 3.181061145555772 1.699497625678058 -0.19367245938891806 -0.8572099077377753 -0.8316042913545291
P 4.664510609315718 1.2172384493194457 8.209379913169526 0.9757390490246356 -0.05621048575329674 -0.29133658430131115
P 8.53826284990928 1.7156212705465652 12.4759681165802 -0.21329820403964556 -0.586247516217442 -0.3901296806118249
P 6.421846861034925 7.883643229886227 1.2993050351669344 -1.347645007539582 -0.08905504308714342 0.026792437602495795
P 1.7533039843583496 3.2810812662131075 5.785966435090011 0.3215943547445881 -0.4060563791444104 1.4722807759448127
P 6.736427001889304 4.049806819781875 5.804928940835894 0.7709321702854529 -1.448643853252163 -0.32766807174249374
P 2.3043775100228685 8.475545722818985 10.118465032030116 0.849479114752421 -0.02962347929338769 -0.21484266570863
