# total energy = -340890.7967063386 ev
CRYSTAL
PRIMVEC
9.05720557076353 0.00000000000000 0.00000000000000
0.00000000000000 9.05720557076353 0.00000000000000
0.00000000000000 0.00000000000000 13.25613586918125
PRIMCOORD
 96 1
Ni 6.329999434281396 2.2603252707771304 11.401191308622673 1.4031510110266867 -0.8783220071260421 2.576728220782156
Ni 4.510968388836245 0.5094279596973171 6.17228178567974 -0.2862748535076876 -0.6021719007571823 -0.05013034099748786
Ni 2.592407711755662 1.546934476731744 4.73755702833387 0.3723631006570232 0.20146238774698208 0.43339414772741486
Ni 3.549446391925786 4.031661071869548 4.8843290440452325 -0.5618225504058582 0.46605178586143603 0.08063030935855792
Ni 5.169988778048844 4.515053188532994 2.619704317800149 0.32404564449855805 0.03860177153259803 -0.16386308933696941
Ni 7.449334180451637 6.043655881259814 2.4478909402227713 -1.0767322383102618 0.009722883714718739 0.8500928370770198
Ni 4.992123375732291 4.751093022007466 11.501766141776962 0.11644706194685106 -0.27220783389166026 0.010191338710705029
Ni 5.530438386766222 7.8778124599501345 12.487743499355254 -0.3442133776956846 -0.3177574974970011 -0.7916691457224881
Ni 1.9561571372606419 6.431213706146528 0.3970262275540802 0.15611172752632466 1.211260840349172 0.590816109424731
Ni 2.771921525479773 1.8410581693087753 0.47858726912658206 0.008737379872997856 -2.4992423705898505 -0.38839084354384723
Ni 0.5454937521417877 0.0812992883325106 4.738180164074748 1.0147514257320909 0.7715824022749421 -1.2688741199872664
Ni 8.427430863493031 2.217321658892061 1.2673910736266132 0.6443835011282257 -0.22779922586929802 0.12013762342456084
Ni 6.68778622457118 0.6551928141530733 4.664967148844806 -0.04310377316800964 -0.8048213668337301 0.3907045792786884
Ni 0.7751419156694839 7.53836651087081 2.495481120991286 0.8799515723096651 -0.6779276556322582 0.28576448953017236
Ni 7.905817339467538 3.992524886748363 3.946391104630042 -1.5628082898124247 -1.8155497874493571 -1.048348030740614
Ni 7.6933171831812075 4.006382411218489 12.803504855957861 0.028519961816563785 -0.413981547528758 -0.9779126596371868
Ni 8.139248697747634 0.016285761274335165 6.4981844953210395 -1.9007330062859202 0.06813166267091492 1.8662956505436568
Ni 6.879844267962692 0.41108301054599844 0.18398716753835553 0.5756198613002668 1.1496713496721491 0.4369160448377443
Ni 2.107557385000916 6.273681730258362 9.204451243590686 0.148022522760287 0.6989603079328415 -0.5492429139686348
Ni 0.17694609595464597 5.095937065586265 1.2867580962243057 0.11381296675811366 -1.5903239787341903 0.4147677908754792
Ni 6.464091362242316 1.8533397400156317 6.913353211284341 -0.19197707396436614 1.1453539532437176 0.4816918063915382
Ni 3.3492278063463115 4.10397380086921 0.6751014576418205 0.7309738847249605 1.6450553088387991 -0.6847364510239755
Ni 6.280284433094128 5.620648153905078 4.6257947349014765 -0.6439286729789943 0.2913458402726918 1.0254284458299632
Ni 5.419487618949856 3.012136730706355 9.603195623034951 0.07597404153346916 -0.06061967056458593 -2.2384612904778933
P 0.20609942913401866 5.706175345781808 12.437675267152082 0.15111838807679137 -1.1057743911788829 -0.09905329195043586
P 3.9303652851545907 6.050041211162715 12.929371935571513 0.5945958881821373 0.000893715458862977 -1.4316578602171277
P 2.6012022583311474 8.637648603984282 1.3361651524233482 -0.16722892048540877 -0.44276016232334714 0.6934877148540444
P 6.289876013756784 7.859978822249691 5.770886362175079 0.4675615376377431 -0.8781314883817909 0.028802526053989107
P 4.590119308015609 1.0377383814961492 12.531900093505062 0.6533589651539586 -0.0478842252757885 0.2550871150509736
P 4.1322594537582304 6.0317003699522544 8.095906346375516 -0.7596208590376917 0.6980851044167397 0.4949833812941217
P 4.594421480645224 0.9852609326203926 4.024231446168343 -0.2956763493272456 0.39600105179093736 -1.8375311768164548
P 0.23572735988347931 5.511979801883792 3.5564358374379403 1.2040257560533134 1.7104068376614154 0.30381646193587675
Ni 1.3757170632786366 1.0995085232518724 2.483497532346565 -0.09230697436553781 0.5067150679087531 0.5544010611308064
Ni 1.8688003898656345 6.405255755080267 4.953685501157934 -0.16621230629543632 -0.8518928664002361 -0.32305834088462426
Ni 5.937034457689671 5.916673859644676 9.252783209492604 -0.18088456359563038 -2.055424970646583 0.04160404869403157
Ni 8.654893523324882 2.264727072667641 10.23253011538266 -0.11471028176140245 0.8096164742295283 0.28192146163499837
Ni 2.443371394660292 5.180848367486544 7.066103888370037 -0.8300971106813833 -0.6130885476696861 -0.6783683427141027
Ni 0.6042324472046018 8.55319921956634 8.873352415133366 0.09938599269950625 0.8714327362053766 0.3916561445586803
Ni 1.3067011570940898 0.9422120347076429 11.432687740874217 0.5934329782222876 0.14776541244415842 0.02430309552173879
Ni 4.2062477657820585 6.814224813854156 1.7188302748794997 -0.5050837029529172 0.1468336446585084 -0.044898403174587195
Ni 5.521372124024656 7.900935505683618 7.869916388163824 -0.559960814606771 -0.1634206024829121 -0.19876530053079317
Ni 5.615177601761316 2.8621312926186295 4.886834267096498 -0.3558923566955096 0.7894155738016211 -0.1268757134793428
Ni 0.36094594358075194 7.313802156810487 6.765070453689568 1.628155190649351 -0.867028436490094 0.8843170483672125
Ni 5.217502878290857 4.556109501227817 6.940939647905981 0.39387577791781847 -0.4334607392992922 -0.26955368409826486
Ni 7.886851551075091 7.081928637882589 8.97725395988104 0.863733567788906 0.6976351613635146 0.4211808934906746
Ni 4.811504582932785 0.6282612134916887 10.352817050665564 -0.8040001564840153 -0.7572361608555991 0.15253223770518246
Ni 8.405639226973342 7.254776348332181 4.684824166261997 -1.8590214854797467 -1.3408405830232393 -0.675197915405921
Ni 7.215459019100275 6.112472528922567 6.921731126405168 -0.3819494587938777 -0.28751129701795003 -0.5174753917490507
Ni 2.2769905289634247 5.366031991876209 2.6811067370111092 0.7515902754237314 -0.07838290808527792 0.09743452540009026
Ni 2.226487550894523 5.315121439558186 11.479375823971342 1.0905922841218059 -1.0022062420772289 0.09508453711067495
Ni 1.2251591356532137 3.4315396902577504 3.8136043199868626 -0.15842263504768847 -0.33750639798915427 0.33279253745325266
Ni 3.700964383338029 2.7267713558826645 2.6566088074772556 -0.7477019961129188 -1.1406292940745388 0.8428091589314131
Ni 1.00762317308885 3.4066233178281324 8.341251552817706 0.25743556067849216 -0.389643999224658 -0.7700590236518802
Ni 3.541303964148895 2.887120122692536 7.2099857497948525 -0.2718591923029899 -0.3862084911805478 -0.4876696212415279
Ni 4.047764783312609 6.984237618970971 5.983183637057404 0.6173858894934594 -0.07901719923516715 0.17541042785493663
Ni 0.8557274962057553 7.345737863530529 11.247844667412707 -0.6980287972575075 0.784181064875559 0.14753915536596524
P 0.1925770212687262 5.541388548259281 7.873906087202444 0.7270827772006703 -0.13535624014652817 1.8619743974604837
P 8.712144119518127 1.3997367723601877 8.245794040791274 -0.14092344982166052 0.46897178772170844 -0.6109051668651221
P 1.8226539276595628 3.2835540090045594 10.424599027420815 -1.1044710989864268 -0.02170576710820778 0.35722547368463636
P 4.141072114744788 5.924761944188351 3.968012465685652 -1.1741603359524488 0.18128616990942326 -0.36880160855801003
P 6.984373477054012 4.306755575615381 10.61014494003192 0.032391528956828085 -0.04683315830345483 0.12279562987269821
P 6.123640063348493 7.940615123136965 10.189223087112135 1.4107900156291833 -0.03182768603355808 0.19190919684090818
P 2.15812376350857 8.35470150303871 6.044850526670016 1.073975244390415 -0.1714694409293176 -0.31549724070791474
P 7.031335087758326 3.8278014896645893 1.6875992187501618 -0.8136464213245278 1.2412913252729914 -0.4621143984802428
Ni 5.262562475832604 2.5674279388872923 0.6487141950331512 0.4153208351654718 1.037962830851548 -0.8143092517195073
Ni 1.430531271182689 1.0929058204161066 6.997754592512942 -0.13489447001876123 1.1951299962255804 0.19681074790758363
Ni 6.803944885570762 0.6060058480485564 8.837335531598791 0.4966972786614349 -0.14637675962674793 1.5672174746237137
Ni 2.7135387785945246 1.5471971356922887 9.32301368693953 -0.6939122039859726 1.736446456258287 0.8714792731725959
Ni 6.281135810414515 1.9406693157940307 2.672847471282804 0.6250539475616783 0.3161770403837587 0.23265423996875415
Ni 4.256705457823281 6.958968015525448 10.541279383459273 -1.2995661497544844 -0.13864468108981284 -0.31440117943025847
Ni 8.359927510633 7.222242866046762 0.4673255397630826 -1.7114648466122848 -0.5439698384951535 -0.4632683095790279
Ni 7.6632472608015885 4.067799321958307 8.538966726787022 -0.7619564491494039 -0.3463412226719648 -1.0092600636002167
Ni 3.2130346067010316 8.300602814372004 12.234591887461562 -1.461946226788024 0.5707532772365848 0.8054908820969289
Ni 0.243974851244588 5.0307885861656025 10.111582004095625 -0.9738333473614906 -0.3827367305818634 0.8329420363293462
Ni 8.53152532671862 2.1290954197655947 5.664267655766598 0.985291211489445 1.5183017227596174 -0.5845665289705931
Ni 3.5707670537576 2.7567597634124588 11.508221212162491 0.36720752459801276 -0.09335444179344568 0.4260891294255694
Ni 1.0759054456249788 3.4343293095628478 12.889921465418228 -0.3251658741459303 -0.16322314176012534 -1.7919234062796687
Ni 3.0121186162952824 8.767284386821476 8.189229980777661 1.6753580735873987 -2.31288341414321 -2.542498867285641
Ni 5.305928375939115 7.737416716936137 3.6526885721104363 0.6197199369432747 1.3098770447621892 0.4241165790802309
Ni 2.7332834866630695 8.263459214468746 3.879275400166954 1.4884057065311334 0.7816379867387313 -1.0574741614115981
Ni 3.520735050376572 4.152303049609465 9.335566973812469 -0.6740188074961554 1.203218686770986 -0.31460892456569045
Ni 7.3408560297466074 6.425435209014541 11.453752083789361 0.15306085651514287 -1.022543410972684 -0.2280627639433298
Ni 0.6607566555138564 8.904501050692327 0.41822552283171155 0.8013092399154136 1.755509386427009 -0.9592107123523093
Ni 4.773908122752726 0.32269464744043735 1.5486743659152151 -0.8479588214531525 -0.694536724943849 0.20856814555382788
Ni 6.123368347182412 5.659050705377845 0.3350359957038315 -0.7558261678819499 -0.21218568770175716 0.48478252950171996
Ni 7.98216958213627 8.817461305491081 11.070251886982788 -0.2491704924562225 0.3241076080847451 -0.15136135732553288
Ni 0.10415152362046735 4.9184792375188335 5.786635031161128 0.16444004488636194 -1.1102889912197846 0.2999790904676576
Ni 7.7962160952760415 8.624705857273295 2.687389720491453 -0.7331950607459953 0.19798265672849774 -0.6903028893681594
P 8.374871899767449 1.502599455632878 3.4874507257522156 0.5145962704290428 0.8063252050727663 -0.0792704528965538
P 1.5905268069766552 3.28914230482029 1.6795129456475943 0.5997087839286703 -0.4564404880239172 0.5929467826144885
P 4.667639930198488 1.3480654147771378 8.226293877272202 0.677421148309485 -0.3171460891652474 0.0853084315605176
P 8.438018736764649 1.4838963262009766 12.369830457643344 0.2962281080656576 0.6285894715187627 0.23840374085802168
P 6.288291002787978 7.649271992659495 1.2982752387839211 0.3524481069006511 -0.03269903289491788 1.219582215730674
P 1.6620153302725384 3.1713171180020785 6.051743965803488 0.5288802911518827 -0.05170514168377547 -0.15666528603694954
P 7.197915211976986 3.8602806287167923 6.127608930814381 -1.080095755465856 0.5661504883572508 0.05214737142751664
P 2.381655596137785 8.29069423151559 10.099956175069577 0.5319573874153096 0.755140454668835 1.681149483458195
