# total energy = -340870.0706407059 ev
CRYSTAL
PRIMVEC
9.22136146007817 0.00000000000000 0.00000000000000

0.00000000000000 9.22136146007817 0.00000000000000

0.00000000000000 0.00000000000000 13.49639460632759

PRIMCOORD
 96 1
Ni 6.197400489055719 7.9424601791912615 6.7588596883906655 1.2739253092579286 -0.6670068949546963 -0.34264011967129376
Ni 3.9499425763470324 9.077102616996639 13.212308802797258 -2.8049609346444466 0.6095787347442146 1.6744802989681358
Ni 4.556837268546823 6.5432568771440485 5.903066614622962 -0.44139722053754954 -0.33306173195423927 0.43931745519038534
Ni 4.648073420195784 6.447944883668845 11.51451689007605 1.3788975377959607 0.34156437010861174 1.3601639659421993
Ni 4.156196771205766 2.9130465714786853 10.153040944734052 -0.2280861609820975 -1.1079289756280404 -0.9520023675293282
Ni 3.399270525809231 8.31006053792728 10.931715771459077 -0.6903905639859594 0.18985925629041495 -0.2260238791364301
Ni 7.832394007159524 5.46189546665095 7.68831576501034 -0.1313427481117609 -0.44484198455304036 -0.29452372378004116
Ni 0.48706955318906714 7.301981288052162 4.3006669212228585 0.8307270309558984 1.4940965862683238 0.06099736561897882
Ni 5.983861418534697 4.5727625600262805 5.719907319886001 -1.3745821982500583 -0.529896648231539 0.6518031906310645
Ni 3.2181445413045924 4.0233722787505775 6.005450470307544 -0.16652983753585515 0.8090827132132453 0.006032065126692837
Ni 7.8887826333302735 3.658298573092364 2.1330918197638806 -0.2678482713713839 0.8384506248524012 0.0727161967178038
Ni 2.1084919934293413 1.4072443293605221 0.6760078752393899 -0.40242186771561667 -0.638619344950939 0.5917674175944067
Ni 7.799510631701652 6.015822657832787 5.1249856435848375 -0.5683706359370212 0.31127548931708326 -0.013169190392106352
Ni 4.734754219215415 5.035960774447037 9.94550682488554 -0.7928096870848346 0.25904327148524414 -2.935888706705976
Ni 5.645170028407883 8.04731628192022 1.3811266669069795 -0.6948087476583131 0.001064693819088489 0.26080370581977663
Ni 2.0176984671370763 2.3327555074886432 9.401655815521654 -1.021649181293189 -1.8202875592446586 -0.34712746601868605
Ni 3.9740472155637683 1.067649245797121 2.0188446823836865 -0.6655850749065053 0.07981218433263675 0.8698201403026181
Ni 4.618592727167512 3.1728215490512426 7.838611971284943 1.4152902174923818 -0.7567641063151871 -0.40116074161500587
Ni 1.0354021442894985 5.932645976220332 12.739071292004942 -1.1200697247556324 -0.8816279315708236 -0.4551251116466033
Ni 4.231959478093564 3.0807462534968786 3.965037945282685 0.6848385238194786 -1.0649622422585272 -0.03765946222398676
Ni 7.919028699371167 2.4375839461328104 7.951009303528612 -0.42650127726232356 0.141512232445595 1.6758972339203202
Ni 2.0454547655465536 8.271100285176436 8.465032896668145 0.017997979239317393 -0.3886780357669628 -0.12022169849793489
Ni 3.050002233929703 6.839769759322374 12.97513722677331 -0.287975124028246 0.06619999286584083 0.16799793744094937
Ni 4.497571577557549 2.958231243308067 12.297780266332156 0.11211860977482627 -0.5760446075425111 2.267957243054481
P 5.56453844259643 9.449590297379512 3.128963831155788 0.28799389308132334 -0.3186442709773286 1.3917324847770998
P 0.10100802853418488 5.0381646798689195 1.0071349824475009 -1.9708428757291283 -1.4888013993076552 -0.8229268181851892
P 3.3620992172083657 7.718399535087111 1.3434297406950375 0.04487269214297433 -0.15371725915221915 1.0394353016320164
P 9.061103554624399 0.6785179298663201 2.151176754129551 0.5725209106599688 0.05195196758725891 -0.5102233381723277
P 6.675113126631466 7.272980105826977 13.072567367007535 1.657193743973546 -2.937965386729347 0.752691221797394
P 6.392423065488293 2.3350700692496993 6.361782325171012 -0.7511130786769968 0.05294801295194108 0.7077979608291295
P 0.8740209392381403 6.0779193068325945 7.713513135576419 0.9210969361997232 -0.7729682268788752 1.935112512207054
P 7.5097846716593315 7.235356950507818 8.727349281497066 -0.973386489632059 1.4408765506019185 0.5740049514046631
Ni 9.134690020175107 5.403994537178156 3.129719060670651 -0.046598416584829425 0.14343310361739167 0.22459897376444546
Ni 7.706199673693178 7.907446669204288 2.8045646293694566 -0.12830421839575323 1.6343147824928435 1.1567837923472142
Ni 2.3679718874307683 4.189117032110031 3.5948187198528805 -1.9288487906855296 1.7804621997176047 0.12698061448832326
Ni 5.674742935052135 8.708884427033563 12.049649102049184 2.5824743792373135 -0.03652509150922742 -1.4348640258592515
Ni 5.772683016582721 7.05367768430731 3.8602122730469977 -0.3362319021521048 1.0843267628280682 0.6007912183595717
Ni 1.6153151324540291 2.0648288462636013 3.261484940814408 -0.7851316017142865 -1.4241515245377536 -0.08271727379457366
Ni 8.911062780066056 1.9396949693810057 10.1637432570045 -0.16652649510174547 1.7448861023852078 0.46701440688502155
Ni 9.007997733182478 7.54647646945711 6.622937740574765 -0.7409052849060594 0.27248268481960175 0.7048741023141151
Ni 6.7786597960135335 6.031452865741114 10.477197624710362 0.21722659255977425 1.3449402070139096 -0.6460950845026937
Ni 7.655528291713085 9.202614569704746 9.680194419673484 0.6016221989012993 -0.6926459356790394 -0.021773901341981854
Ni 9.102249270073932 5.8801395432822705 10.3980543666608 0.568646258195911 0.6081245187961913 -1.492469592187862
Ni 3.80828401948112 0.6758437350029485 8.93551783102351 -0.4688357763644765 0.5630823909548883 -1.4120601405908586
Ni 5.373019983571035 3.2631724499868113 1.808436264125129 -0.8070492277229844 0.5899054246850034 0.7269511367188126
Ni 8.12992123911361 3.537535621607141 5.97704037736078 -1.1741544224151779 1.1880124113441926 0.7939036914799618
Ni 5.415530460537045 8.026393012454738 9.4781534649288 0.03902266112010054 -0.5711484557924745 -0.515208707202061
Ni 8.15187730107805 0.5893602731215106 6.402918819258946 -0.8730638440508963 -0.041495033919993055 2.5201133005015888
Ni 8.571495360587448 1.165036045631837 4.411876542092726 1.3875567561328555 0.9803436376761825 -3.1223384230942095
Ni 6.5262065795496556 5.536985014142105 1.1168940831380294 0.38291979312694696 0.7243329823696751 -0.384695396970131
Ni 0.45928466855863614 4.000438752456767 8.219196007150712 -0.03633045899991808 0.4560609931973113 0.6099733990794721
Ni 2.852489889865715 1.4499945617280765 11.638899225988423 -0.32758142556595843 0.04752375661257622 0.28460209379095497
Ni 8.76316136139841 7.213244125396214 1.0963691764935724 1.2907061282606933 -2.1078610769591113 -1.3512424950828537
Ni 4.376744076541142 5.712255434032119 2.3898606334555446 -0.4006766028897358 0.2681856001061446 0.7159861530668766
Ni 6.526105144572079 2.1176119200495984 10.055381192596041 -0.5858034867014879 -1.9102735987865036 -1.4184321055554734
Ni 8.457943513871731 7.845211699780513 11.716071879064529 -0.16510364661228985 -0.752397601816375 -1.0947129911583986
P 3.000372865810165 3.3217004320482584 1.7355819746852885 1.080801523283629 -0.4780266988351251 -0.277915940020031
P 6.568246767074177 3.387291977093646 0.030442481042926548 0.2075682435344038 0.3100878967668853 -0.7201654812555468
P 2.8008133794714576 4.720322788314806 11.579056277763124 1.7860000988166982 0.27632442716319505 0.10198589221619855
P 3.155974121412001 5.947197284821712 4.41032458693581 0.01587990445505007 0.7689405937767209 0.44887270297898824
P 4.808322242042928 0.8082375898715183 10.761755011577096 0.6862104644663407 2.0908655708423796 -0.4365447775412546
P 0.20200499143445236 3.6074150997955203 4.483880621993246 1.8305987113626796 -1.5755110820910738 -3.64113613319911
P 0.8268711952522597 1.5725187932784854 12.270976534575734 -0.9320038129202142 0.030525165172050655 -0.876094146236788
P 0.1429689123489648 0.7574758385477663 8.215754595002402 0.6577380680582608 -0.22928043840051482 1.2845989869216907
Ni 4.285286612213833 4.8278530859071385 0.14872857480297139 -0.6686313179319968 0.15721293101030345 -0.024433707562332117
Ni 2.342124410872042 6.399588063449808 9.778030299818013 0.4564438304580268 -1.830260354186654 -0.25269007557370676
Ni 1.1607296697656488 0.2255683367253954 10.329762806939565 -0.23171373043235577 -0.4197588163321674 0.40905582809236646
Ni 7.1120212391368 1.502381116965367 2.168101641206214 0.14906150554776265 -1.4328930181758097 0.29327005387859817
Ni 5.613937276676023 1.3090276069820013 0.4269573412051125 0.6896017495360769 -0.0469210900315708 -1.126520879697615
Ni 8.00097893989111 4.975616184150818 12.407950639749949 0.1239757662237284 0.1697624855405399 1.5772260078996516
Ni 0.849535457787414 5.229839902041479 5.63867265702605 0.2085205801453441 -0.6660746129484142 0.178294434270951
Ni 1.927900847897377 5.728623350868273 1.6135483195718845 1.8462986385964397 0.9094770925726079 -0.04068359376229123
Ni 7.44663678743737 1.6749220138224226 12.38326597688871 -0.5844598281893999 0.9345803153981388 -1.958231871833337
Ni 6.1801473215061735 0.6495812971723197 7.9071460528161985 -0.8515791918145591 1.3642875011922697 0.3839160956019453
Ni 9.009768234609261 2.243501948583216 0.4817645038618338 -0.23214490443250343 0.23533255813186565 1.1888140813098818
Ni 0.8546108952108614 3.9095622339101213 11.15474362306427 -0.046003720423623995 -1.159070788609178 -0.767905210533671
Ni 5.065303147051343 1.09003871175666 5.220810344764881 0.01975918490479823 0.633307188709406 0.5808212029955481
Ni 1.4681329799910143 0.16099114145576987 6.512239905273577 0.5330611620024497 0.5797994465992531 -0.002182095252983339
Ni 2.1923049489920468 6.963870843706012 6.309119129085787 1.3767013014755904 1.3152773898421541 -0.6601546479195534
Ni 1.4452916673131817 8.410776249298815 2.214893596362099 0.4777235657724096 0.299210073512117 0.4789345553613752
Ni 0.9297991112711135 2.5277965266444116 6.402743613388587 1.3804535694291709 -0.47269371665798593 0.0138477045163697
Ni 1.9112747329364839 3.5306564858551575 13.306122325012813 0.09908800184311321 1.3265732744709475 -0.14663412705319262
Ni 1.232785389291117 8.55374423951162 13.263123115882117 0.16445238618153613 0.2944877283357831 -0.8267328221948408
Ni 6.579266294183587 2.7128231471049338 4.207878814416982 0.22223510151795917 0.568960189891904 -0.8106058347259911
Ni 3.8579318303238535 8.614577561972524 4.501425184569284 -1.3816069663073238 -1.1827614473578985 -0.4334995629570276
Ni 7.9426722705080115 9.026348242762166 0.013490852017629886 -0.4707831298988343 1.3794379836804629 1.9536447666832866
Ni 6.290923538380944 3.8983029513991667 11.25075644002091 0.04822361089307824 0.7526675676483102 1.4919170621185016
Ni 2.6907933142477107 4.268522176828972 8.73724195821922 0.7688439202978565 2.1715449882713185 -0.8928500255388881
P 7.897570590933008 4.097106286086851 9.743101626357742 0.4555850820021573 -0.7877968072512755 -0.003805232678703124
P 1.6512231145159915 9.351936078058458 4.4194758661855005 0.4546741401521137 -0.6266912260547852 -1.3914882299767777
P 1.3608701018850191 7.500185234235987 11.2352221342732 -0.660465751402069 0.5833041173184018 0.44898634573871704
P 3.1465867753054066 1.960489139784119 6.847706585249628 -0.7587497692866481 -0.4901075412590592 -0.026140920061425946
P 4.631834602422 5.358736094455991 7.716213150252265 -0.247739930657283 -0.8160375472645236 0.0424514842959914
P 6.555078662712471 5.084797105469161 3.5147044524270656 -0.08710049046393387 -1.3934227279953293 -0.5283174766698773
P 4.072651235129398 8.264470126187593 7.430021738110395 -0.023352815793327524 -0.15864786368461709 -0.0796779727476176
P 7.621243269292341 8.311646612122109 4.942150018639961 -0.07899457352734782 -1.0854302803048919 0.049975046366546184
