# total energy = -340865.05496305623 ev
CRYSTAL
PRIMVEC
9.30092726206805 0.00000000000000 0.00000000000000
0.00000000000000 9.30092726206805 0.00000000000000
0.00000000000000 0.00000000000000 13.61284720017220
PRIMCOORD
 96 1
Ni 5.063117780114152 5.606626755857998 12.410600920594145 -0.19967984192526256 0.10702551152263502 0.2362923509419737
Ni 1.3467649424795205 2.8563426137631347 12.007116472178076 0.9876789949953313 0.9861335048850823 1.5350249490515693
Ni 5.815618587690502 8.138962273327536 9.586548335427937 0.2336441146858492 -0.2182028404301145 0.16911071088915391
Ni 6.020527312528149 8.33929494203427 7.149739849876604 -0.2655944423402007 0.652250048360496 0.15067512989178566
Ni 5.228051120295985 5.310438732506591 6.184329659975188 -0.07082643589425867 0.6839136980123641 -0.5768516768248388
Ni 2.3880502354393798 4.048172712688322 8.866728195386514 0.47232373491307683 -2.317525798011228 0.3293266903918393
Ni 6.132929016475448 5.67570474139516 10.121668805024488 1.4818375663953125 -0.047272816944034714 1.178827402410815
Ni 6.396870725587278 1.8039706157056183 7.105919461959576 -0.0282970471724803 -2.606764105022614 -1.4881529670903788
Ni 2.3969512226696295 7.2690930667349685 12.764357962294927 -0.8026510986552886 0.10778732938932403 -1.4420340612451295
Ni 7.67611093735456 8.4434374227209 4.676421505105189 -1.5900768957203906 1.9823148809244702 0.4744852613407699
Ni 0.9793690212861175 0.24060382284417858 11.747668971038719 1.6022292148122084 1.6015095630373644 1.723333830135729
Ni 7.765390536542821 1.6966844216607613 4.682042985441618 -1.6569800853008432 0.49359935646240155 -2.01607038010836
Ni 6.927656033064687 6.176382947864921 7.650338068373347 -0.19630166948164904 -0.22432309439523948 2.5986738718153117
Ni 0.16986655191320707 7.005932635499148 5.183295989205872 1.096202945440364 -0.2912841337968209 -0.2514587742697669
Ni 0.9704308303474866 6.51454605519764 2.9085347661586884 -0.3392958857894092 0.7402391120769702 0.3299141874641931
Ni 4.637674772918672 1.228140918305432 8.559377199335268 -1.0788487704326322 -0.46017732935853006 0.19671793108346122
Ni 6.11050448124856 5.42520287193611 3.8518506037451026 -1.9555414694853672 -0.12155198727358422 -0.918075118654264
Ni 2.4758788900007658 3.0607955931731086 6.208588338025279 1.132098116675076 0.6093126255670216 1.2179793900199283
Ni 0.6857889778922469 5.158945231977538 11.01728576809511 1.7905967170484451 -0.5147950167034102 -0.16370188116875678
Ni 0.5368048674935186 0.6195384741920721 8.976773974500562 -1.1134545334319599 0.4005719589910714 0.06371090789539995
Ni 4.79446050096498 1.946581730858613 2.1548732028808377 -0.3524722752703672 -1.9572916194072547 0.1078264101573756
Ni 4.296842299509588 4.133127380777244 2.502000543748055 1.3722674340739527 2.591931410885156 0.45930546827653806
Ni 2.287125875527742 4.463952056631733 3.2155862723574637 -3.2483996110920574 2.1425655703198325 1.916218760626345
Ni 7.890069464255982 8.976129420252853 0.4402854266542382 -0.25839201105449044 -0.9144604047198122 -0.7356121548279202
P 7.085037020445096 3.9292417579200873 4.9116921763528945 -1.1967695887115326 -2.6324267998960407 2.3800066901542687
P 6.46906452170138 0.817087375419168 3.125046397547783 -0.05786627618916486 -0.1593690581213578 -1.14688195985247
P 4.574428468670296 4.2789938204136115 9.723030139625093 -0.25395891498380135 -2.547527945069116 0.48118067108307455
P 4.083441828233887 1.3800343586995858 6.420730393864978 0.827615224799794 2.1711672932169255 0.19214188167700455
P 1.9271985987919047 5.61598348851592 5.333880789157711 -1.33210860246688 -1.0191469836966254 -0.25928572651335346
P 5.647708950838157 3.990739487874538 0.9803102751081668 0.06384794769389648 0.44267788702218597 -3.8260668418396557
P 3.2235432154875348 7.957026838415403 7.680476792533118 0.6643730568762751 -1.0314183448648107 0.6281122747720279
P 2.311745429549132 8.482026969239504 3.0393811386287757 -0.7034913630339755 -2.030448760317219 -1.151944976197674
Ni 9.27149896201987 4.439323201683247 6.671683358288152 0.6567219680889206 0.9475862407395036 -0.26277394217227
Ni 1.3161555914087248 5.961568735670728 8.786303078793026 -2.3682487782873927 2.4205488732426894 0.1749527714922277
Ni 3.206094676256659 8.966484358854975 9.767163038692528 -0.7529359908183484 -0.7874697629291599 -0.15097826295450126
Ni 8.195130572056351 7.066053828243488 10.1291420999456 -0.0996652145028219 0.5273898226492852 -0.6711921366806375
Ni 8.781702840251667 8.896225155576706 6.790618963519934 -0.9452218542723851 -0.4300864235104206 2.131528595779381
Ni 3.0846059665372034 9.240192041416922 1.1063294664157677 1.7296245482404469 -0.3303530747738246 0.5534016733320146
Ni 8.895127646179455 6.9190619764285834 12.352896108709178 -0.5840577076549748 0.893431866184287 0.6637750182809601
Ni 2.3830742394433675 3.200188587551112 1.3035305129694972 -0.6457603268710943 -0.6441852690744905 -1.2933718480183145
Ni 8.090244017202094 0.1109386681152009 10.938480873001632 -1.3547435662575764 0.39129490456451965 -0.46859126445383814
Ni 4.704353119265233 3.578838630529888 7.469056488636017 -0.8759553066660785 -0.8636944870208546 1.3061448314132666
Ni 6.764982818167023 6.66126818012678 1.1167855686563595 0.20959684392865838 1.1155106446300402 -1.1376455288558665
Ni 0.883621557395751 9.314134411824952 0.6902934168845247 -0.9148609825923405 -0.16285444556679696 -1.7312155468766506
Ni 6.695290971441569 3.2794324864034907 2.5591203273187255 2.206924910432509 -0.22524303510634758 1.8601532850913447
Ni 8.531563706949337 3.638308758377553 13.088411563224 -0.2675201986080038 -0.6795137691724555 -0.11783982852931964
Ni 9.010394035672121 2.013706521705751 6.3128759131745955 1.8183098666929978 0.4519235739901701 3.605557978984184
Ni 8.23289233606347 1.318387813911609 1.990266325240051 0.10558389398010204 2.4183282114422866 0.14291116967565065
Ni 2.9375490082326317 5.623535841317343 7.289856456382626 -1.43208209223874 0.08063853688867403 -3.5978883782540683
Ni 6.784049718712489 2.211332620627738 0.26017111326737496 -0.5590195337394244 -0.12732951318730973 -0.3891470049835814
Ni 2.5198164695991974 0.6909119285363654 7.547656763333397 -1.7509698466854424 -0.2797396234923311 0.20799504665917726
Ni 1.1105958016744044 2.664027344212592 4.505266774789276 -0.8723835301544202 -0.5411781346826293 -1.1528209510447243
Ni 4.528388879548315 6.060939840757443 8.584220905699658 1.3721208811937595 2.33518079208883 -0.2579127574252268
Ni 2.225479330739765 1.9293006083154538 10.154720579550519 0.03192590217431921 -0.07514640342585123 -1.1990990081756576
Ni 2.640672716276169 6.551675356162276 1.3237163150445346 0.7321596775029454 -0.6973160874611991 1.22828051483562
Ni 3.0580053150445035 5.816930018410948 10.55186179568756 0.5535489975431563 1.1764092798876256 -1.089067877057479
P 0.5103390794437015 7.143214319426508 0.6630230986409598 -0.07888170209856737 -0.7499789650725535 1.229370148355373
P 8.69287898649108 1.3862380770721838 12.816019031753337 -0.6587508255934913 0.3120136530346884 -0.1382998961558844
P 0.184192769918174 2.972994841393009 8.335432267011571 0.05636475194297389 0.07333017615271886 0.9526919373971852
P 0.5390631325922696 0.32582170716989983 5.174883300648129 0.6481157144771483 0.5283401023776965 -1.6650983435326034
P 7.913303180140165 5.056030473667495 11.55090878842931 -1.0575569509333917 0.3290814071502526 -0.5795341087530084
P 0.7955994435507819 8.183541616895546 10.32019895406014 -0.3444738304459229 -2.342215330338108 -1.7767862935279144
P 3.2244082017074023 2.606017461918897 3.5389450940325147 -1.3779639702380977 -0.9636890598386372 0.25508377261686394
P 7.235898057931665 0.28007788752955165 8.695206078450335 0.6929033031054841 -0.014288134487897973 -0.770286566281654
Ni 6.201374538970126 3.605281166261967 11.624281942099104 0.9685273617675447 0.10783155236369817 0.18963248499158952
Ni 4.548246358896886 7.345965229178033 0.25487609547199247 0.5052924765296137 0.2600650278815392 0.2533508490861572
Ni 7.882386898475223 6.768210239869108 3.3164706382825915 0.3150866355330574 -0.9267358796530556 -2.0812663571897185
Ni 3.728537052129539 -0.0068947772557826255 12.230720990570084 0.07291082922711314 1.826948773314918 1.1188746760062667
Ni 6.507356438552935 7.915321481319856 12.37656882835226 -0.8978047984410022 -0.027275033665869156 -0.9201248020944411
Ni 8.426760860438936 4.89239926327901 9.380912278091433 -0.09610989305139576 -1.0651167655585203 -1.2149971674631526
Ni 4.960993600607213 8.433559838145637 3.1363730665644995 -0.27202914222195085 -0.7239558015359145 -0.39017416069651517
Ni 8.70677457157153 4.41997727332492 3.8212756661045604 1.9733890391897495 0.766613488305441 -0.39267815806529144
Ni 5.489063037372779 0.171074742342893 0.6699169458040329 0.7181718478642857 -0.34773938857107206 -0.1947878039402839
Ni 1.4140571500143744 1.2762081095341986 2.546514780826398 0.38518519212235597 0.4040964272045621 0.600129930626489
Ni 5.384260190862381 0.5954611642203407 5.011147919876176 1.134828885342678 -0.9781317176265284 0.2974437256403135
Ni 0.9952550047649745 5.105325387272847 13.298104684959494 1.1919842515077472 0.49654018425828034 1.6240126292358872
Ni 2.2294787293907654 8.097666157024184 5.661052060849146 -0.12976151966757005 -0.40313252062939603 0.8424463762753557
Ni 4.196438791515289 2.3521021522158536 13.406408400428584 0.8760540370274718 0.3501639388521647 0.6028319029386844
Ni 8.775573529295832 2.6093936984545087 10.709213020101267 -0.6044198162510945 0.2245483230321681 -0.9495091687938294
Ni 7.166568947362931 3.6040720457395716 7.8905373008888775 0.694082668125566 1.7686425813748572 -0.010476216940975506
Ni 7.470978990266627 5.978096483119164 5.506627838192347 0.8380842426519179 0.349386694366508 0.6906440747576621
Ni 9.114090071858174 8.748172998072931 2.6682267127961423 0.9189513506116302 -2.031276912645469 1.5649731586742273
Ni 3.6257711086530215 6.4528437048470915 4.488006114285726 1.4619721949299533 0.2619373052035876 -1.4350699712224704
Ni 2.966223766467594 0.5929982787254922 4.402708241986985 0.35797854980057703 1.8209169652985413 0.7177165054944219
Ni 4.946874793276473 3.0189414212440355 4.78810145710989 0.49284653745677703 0.1900549172409888 0.8518249892767782
Ni 4.3639763912838205 2.21776886217772 11.114018200164873 -1.5778096483172634 0.4257286607623571 -2.4082901104799945
Ni 6.413296162837665 1.9804929110482576 9.687269005036185 1.0805888930521907 0.3840189397283967 0.9113455132399143
Ni 8.435717653231759 5.1658372189551915 1.395983588482691 0.9105718682986834 -0.5079741371268348 0.5738311448309601
P 4.391823367007297 7.685969920075631 11.203332212783387 1.0962584812686476 -2.38025300183712 -0.18030966492876688
P 5.972906565799959 1.2781147995887454 11.995218726237706 0.8699450959162566 -1.0071659000753495 0.6684150881561327
P 2.969962739159925 5.002317619691851 12.421355582594499 -0.8982513990601175 -0.8527012212341444 1.7926620842179062
P 8.948170833404232 6.749757200511936 7.262753554826778 0.4021932966445783 -0.8960659613730245 1.149211893537227
P 0.230968992466106 3.243075162387769 2.198596861156076 0.32399267977343554 0.17390864649842952 -0.7531555630283223
P 5.076687832746267 6.274833261169196 2.263517332281616 -2.3538675698650557 1.2317962412983625 -1.5355245143958072
P 2.2860004633492044 1.3783973955308042 13.262983454154744 0.24660170328778178 0.555433873270695 0.31405947982012367
P 5.5545508650511355 7.4228745953294775 5.2550079972964365 0.09799811121304414 -0.1568468059201363 -0.5520675279016234
