# total energy = -381173.42517289583 ev
CRYSTAL
PRIMVEC
9.14068245820724 0.00000000000000 0.00000000000000
0.00000000000000 9.14068245820724 0.00000000000000
0.00000000000000 0.00000000000000 13.37831273192500
PRIMCOORD
 96 1
Ni 7.7906308460149924 9.094000718388171 0.09386383719353182 -0.7818439321019502 -0.20728722195887525 1.6266487813071533
Ni 8.939861394748162 2.5990798530775967 4.477961700739444 0.03326956068640722 -0.21280712333583998 -0.4757854682094322
Ni 8.813921075640527 3.8952194458445817 1.5899457979477791 0.042034451363230835 -0.4583773000353138 0.8086453685655106
Ni 3.9426870084172303 7.165417325428324 7.835998793890368 -0.4712829523533884 -0.31901553827381834 -0.23626741124130926
Ni 2.619171072514277 4.699252131963451 4.514324248528824 -0.924383577370795 -1.4919132054637596 -1.1745827682018481
Ni 4.118727406566014 3.21107594722867 6.364651519121406 -1.9671991083289537 2.318514387176742 1.4457295078188455
Ni 0.772752357622844 5.397773923652111 11.214129848682626 -1.7267302574117875 -1.111629821518395 0.2953793869121171
Ni 6.053617870231644 6.535843699440701 11.98033199345364 0.9384423694567063 1.5410421017799265 -0.3490210834969731
Ni 6.63461791110256 8.395780569211526 4.686034705527856 0.8395217464293928 -0.7890597331240992 -2.592026798812439
Ni 6.64346609145502 4.071991098567949 13.167122519342069 0.4298385691656726 0.29374313686027476 0.4873094096886317
Ni 2.217401527873764 2.0577960762887435 7.78703398757626 -1.2172175721532392 1.0998282008977767 -1.3360349341044797
Ni 8.551702325877084 6.821864785606835 4.208027301145926 -0.22492473253498035 0.10814265584621376 -0.26864042825537604
Ni 7.786362147435861 6.2079765702440275 10.403885154952672 -0.30192053046474454 -1.3791369075002764 -0.1881571859976437
Ni 7.248268468728629 3.587708615867876 5.772955966028988 -0.8102227403549596 0.47316448564681735 0.2631853186780758
Ni 1.5067409102470195 6.581711642631448 6.963518851454051 0.7670084097510146 2.362017966886332 -1.1093446250286443
Ni 1.805111058041432 6.898280888650806 4.1824882351285995 -1.0420012625869797 -0.0017465503774615082 -0.2727166552072787
Ni 4.653749816059997 5.220718909781093 12.820142223702222 -2.4102390066762487 -0.49814223863807755 -0.1850412660764813
Ni 0.6933801579611197 7.637844343337962 12.976735820508178 -0.3190391924229022 -0.7411935055704396 0.9736852518194006
Ni 2.4232131278902767 0.4460515794726319 3.7428506723432826 0.4784079934339438 0.4966651398719188 0.7479135979030925
Ni 8.139448418773481 7.671801977645181 6.431222193386828 -0.020592736549687116 -0.11732586500737859 0.7218264138977375
Ni 0.13497039903552233 4.503778643495113 8.852643747569376 -1.4249082001981201 -0.4425128221992314 1.5037256247176556
Ni 6.827413179691487 3.5424073949724315 8.390248628354803 -0.6357381667484019 1.069892589680609 -0.6536968081093517
Ni 0.8613721854483942 7.857878844830123 10.573228175266488 0.2289423383348057 -0.47329766879057206 -0.25709051863424753
Ni 7.628319752504013 3.9702918686077555 10.932756799406187 0.017259301301079954 -1.2012546210660795 -0.3267704996288888
P 1.8825509174898196 2.839817999712651 0.8237829581101502 -0.31987480095032006 0.5378958643869316 0.1099462847138558
Ni 0.5498504241300981 8.944504861296767 4.820112059914168 -0.8675593692928993 0.2892671033667922 0.8808895107429022
P 7.257171493174182 0.4773766973113505 7.990705753893897 -0.6841386695389765 0.17144193012549183 -0.4763613953175602
Ni 1.9642137721064263 4.488998160406345 7.528484307640788 2.6369169744569105 -1.7124467509095798 0.1366801011642743
P 6.677569976677156 1.9217370220053103 4.007580367502202 -0.6725676768719255 0.5604395540154026 0.8045675989517111
P 3.6990969689413005 7.520158060240938 4.65601396303655 1.4408698657336994 1.8833554342394208 -0.5185292869348619
P 4.850566984809133 4.988463316211206 7.657197909722531 -0.5326068480738504 -0.9402249152784259 0.5488191961676548
Ni 5.62576995932505 8.442873363814702 6.655536362276739 -0.17830163335980262 0.32187074833442636 1.4927146183191327
Ni 4.059971101498233 3.2163592615300347 0.4434537975964242 0.9360769545483233 -0.7674678658859363 -1.284805446505542
Ni 8.71723093951623 0.6023033147649691 11.341745654834275 0.4250953980537324 1.0335788428512391 -0.6212808536724913
Ni 0.491692833745258 6.284173296915624 1.7958643439458242 0.05846251501226706 0.6346634456269844 1.3232205559486308
Ni 0.45362554872888 0.5183735709671535 7.564017795556235 -0.5259122096624943 -0.9085106148942806 -0.41636624571085074
Ni 2.856618573563706 0.9277701008205717 1.4840427682519488 -1.96922230940657 0.5643345181944346 -0.2161708976017503
Ni 6.271933923473533 3.4212750746926823 2.2522924258317953 0.508806146109827 -0.00854686112874657 -1.2316525166316465
Ni 4.275828311233086 8.371731434389915 2.6513672973649682 -0.7800973817244888 -0.4305445940937617 0.024076581333229506
Ni 2.001187831533802 5.335617284812518 0.3712533771749271 0.3202838634632807 -0.8276810450407229 -0.45526523676889336
Ni 5.413541600416567 6.210992995364185 3.6424192550017738 -0.18332634026790365 0.7746656691859561 -1.000930460688599
Ni 5.263113393742569 3.9638385469870565 4.383831869694407 0.30189713342597685 -0.15438626019478574 0.3873508323151071
Ni 3.664188703687123 3.966854972107213 2.4146784729366697 -0.10312823335075788 0.23041095246053223 1.832341147975083
Ni 0.3534720081257123 3.739343392589937 12.784154443882317 0.7373245095333366 -0.7413536852973878 -0.45598463143342116
Ni 4.153416295447816 0.9240681245367429 13.041620038910969 0.7200184141547212 0.12658312193958846 -1.3425925327173394
Ni 7.877723265847881 8.345022361053253 9.713725259324372 -1.125501694404481 2.2883656315075043 -0.9528683150740493
Ni 1.372903041733883 8.46510350288204 2.1409177837816444 -1.1135200965625727 -1.694026082310547 -0.6692866921278087
Ni 5.627424422800044 5.08541853211879 10.034671063972613 -0.8897042808210549 -0.3440336575847107 0.08936460390776223
Ni 6.238085977352502 1.8087764715965315 0.20632165008228434 0.20226637170551617 -0.30608314648286644 0.05949686981405238
Ni 4.631940148373045 0.4693484361506425 4.514711813453354 1.2944733086126095 -0.435489853914179 1.181436557898888
Ni 5.561245883800241 8.444079933862765 9.28172565057058 -0.26704043075810785 -0.7591495758282281 -0.8224992437294673
Ni 6.248387526171946 6.101816687378876 5.865975204188876 0.5705604444994883 -0.5044211296682538 -0.5700624218171473
Ni 8.982630646679112 6.875356057737616 8.60170642775532 0.2681138663279447 -0.781629502098299 -2.146570063493536
Ni 3.906828112216094 0.9260425118881183 10.237231323336884 0.7988782618764176 0.9927178429708192 3.471254348471886
Ni 2.0943039609248224 0.17005325131938162 11.990540307314824 1.351061489420299 0.2961144653059287 -1.5776800647179343
Ni 7.806051176856521 0.9397626758437403 5.8367030835683 -0.009442376359822448 0.48608222214975 0.6187418893007215
P 1.5805610595512187 1.8471216333512515 5.633379577241809 0.2080014744170805 -0.33503891028526817 -0.13811991893459438
Ni 4.6703492949030405 1.7773233842072609 2.305015880659262 -0.22506100100252852 -0.06951131662726093 0.7490376842052068
P 8.009193697675803 7.663630207774211 11.919822505543296 -0.38831653866248605 -0.8203274328891292 0.26650564130056037
Ni 0.6825886685767045 1.0377507888379227 0.004520981407362188 0.731588635490824 1.443702450086488 -0.6798917213371646
P 0.5333789148376059 4.849716901366179 3.414667275543103 1.2008941524028673 0.1936673171825955 0.9816525862955933
P 8.438769197514851 8.888390213379669 3.0591916298830317 -0.8239403470513681 -2.340064345433376 0.29399561919071304
P 8.007319857828433 5.389739264013875 6.988816603461765 -0.07206545050768234 -0.008536576716101427 0.886679377951802
Ni 3.2190923255025403 6.239292547400565 2.2502586240462352 -0.21638301361255635 0.7480071860581634 -0.23027982619930662
Ni 5.331860464435596 8.2013856812407 0.7401292629142397 0.6765626569639316 -0.7059578222965972 -2.063942521199291
Ni 1.7232105456880855 0.9457589633553246 9.824524038397039 -1.761751767792295 0.15599114278806037 -0.300925770651643
Ni 0.5576949575789422 4.829378883510577 5.826442667818676 -1.1504542505847606 -0.0027935035847371247 -2.3948735799637717
Ni 7.231522738970667 7.236266753023277 1.9919100391187747 0.12256962990482116 -0.26284696150205056 0.22614832052943631
Ni 2.678484959195177 2.647114137945547 12.049712513421898 -1.0607975693578762 -0.6887255175787106 -0.8363618606441724
Ni 8.408577524266738 2.017357698314279 9.173281511228073 0.6120037992459395 -0.6393122572529055 1.1762046200759873
Ni 5.983252898792351 1.5498026640078024 9.704333208382065 1.4629926657746675 1.2634552629645401 -0.869771803563186
Ni 2.657909283602835 6.312655662595649 11.763309346740545 1.1371518770488995 4.223397411075295 1.1947821259678584
Ni 3.3334971036961214 7.857412670038825 9.952528323541436 0.16083201582012946 -0.0642590670893861 1.2843092235954139
Ni 8.306037351545774 5.739160121796395 0.009750365683852095 -0.4990770917475212 0.9471972328312009 -1.016470722416043
Ni 0.04982585857567992 1.338753453100836 2.020192223859008 -0.8352426594380646 1.7257846056690664 1.7619158041739849
Ni 3.906974363131011 3.1689374023682984 8.91622998910228 0.9752448829970366 1.0325516871383056 0.4928146557775771
Ni 3.1937452138110416 4.558878675689976 10.857156045212877 1.0856747922155303 -2.178700368369177 -1.916684387408854
Ni 2.810631801504589 9.058086978093941 6.290963909708849 -0.5829073961006154 -0.5585744757822058 -0.4837340336325475
Ni 5.185929473395285 3.1075120181032885 11.338454095180433 -0.4055426727327855 -0.41244171384546385 0.5159651257521114
Ni 6.349273235417916 6.405918042901587 8.201775074301665 1.0916837174137717 0.5838301650252009 0.5061633091703411
Ni 3.5330838991464923 2.388670489923391 4.2958564599627085 -1.1434137987982114 0.8413343741580994 0.815234591747254
Ni 5.611437369663213 1.7253220432721952 6.312583451206409 1.404705499998 -0.7739323905643575 0.40737972594152416
Ni 4.020711871525284 0.8497562065311361 8.081798136249757 1.940824217879851 -0.9738189491837873 -1.2178096972112833
Ni 2.8530080041017003 7.9603824548223585 0.21300805909863177 1.39835050431425 -1.2258194548896373 2.0033724729257174
Ni 9.072739491632158 2.905420675734969 7.1111344702205574 0.48450125081587525 -0.577461799605012 -0.9361088362275233
Ni 1.6302132451654352 2.9501368929707468 3.085961945790314 -0.140384546599055 -0.2532922279340799 -1.2324729556504128
Ni 6.443934140097743 0.4809799542276105 2.226150988858655 1.9876362931373832 -0.28377651256586617 1.0437804659745895
Ni 3.8636475295869412 5.830466396115321 5.812876981391934 0.6882997428952017 -0.41600192039289646 1.5733927501964902
P 8.015491627699403 2.31313189236892 12.39849809379275 -1.1990244461839803 -0.5728366421281746 0.20505704707677588
Ni 6.282555396169358 8.964522955275989 11.459661369054075 -0.8882158692009865 0.9471488960917688 0.942520653291138
P 4.277766135855733 8.185517456972239 11.953160401598554 0.393600926989877 -0.9328340221309935 -0.27097704680835266
Ni 7.59331093974583 4.739873323581562 3.557895366862109 -0.749895918440444 0.33909919639757086 0.8407337644596231
P 1.8478711692901995 8.261833012512204 8.455561544751943 -0.019045446667225262 -0.6596476263761478 -0.7851776244608736
P 5.156203974938467 5.259128056311089 1.4923507342874354 0.642678602621977 0.5534068155383373 0.6305455668038689
P 1.5488703144252083 3.1354550835345583 10.068036382074421 0.24570053162975106 0.5905715975140926 -0.46149296284616
Ni 1.8821030240628873 6.04327975868347 9.34697183998779 1.6643812628609207 -0.02673638755357976 -0.6139627227445233
