# total energy = -381161.9342888996 ev
CRYSTAL
PRIMVEC
9.32822353344814 0.00000000000000 0.00000000000000

0.00000000000000 9.32822353344814 0.00000000000000

0.00000000000000 0.00000000000000 13.65279805249399

PRIMCOORD
 96 1
Ni 3.781326048937819 4.197849891057918 3.862758642876631 -0.09239156365954411 -0.39663122917576854 -0.34100669783292886
Ni 2.5265680302318563 4.349983890456302 1.4476610195373383 -1.8362132293359794 -0.3334121733151226 1.23985690681931
Ni 1.4731503906426229 2.0437298462316233 0.23890793419534337 0.4311773425817542 0.12836412509941117 0.6876531104501383
Ni 7.675234429026482 1.0114686178653671 6.3592412862141545 1.3375649975957609 0.23709659201082392 1.2975632603918428
Ni 5.806791233275884 6.972455387964803 8.955730882409005 0.1984300286785615 0.5297896903400295 -1.0570566142582052
Ni 6.149202338550059 7.817303275113758 1.0530771594262536 2.3792243034622897 -1.7440870035226803 -0.14383368148992004
Ni 8.401744471036686 2.3402367629571774 13.58626856151611 -0.5910161412506789 -0.9162401223280543 -0.5461010259055433
Ni 6.940664801788477 6.056442482641202 4.602726513137006 0.21019359697239287 0.16332932832068645 -1.2787561549876687
Ni 4.377987217833453 8.765563849572207 4.407150976231829 1.3685542468884235 0.3254340402056524 -0.6686112633273388
Ni 0.5612381724326118 6.48697731667352 0.870211327235056 -0.3750861560151411 0.7163733612029662 2.8528119926894546
Ni 2.0245603466446664 6.1366838624207665 3.597812838025778 0.5306553807744345 0.5992148750113874 -1.3089632746986681
Ni 7.83571718858561 3.8496739435721907 4.730298366860249 -1.4420044935587746 -1.103939394852673 0.5642542997758024
Ni 5.970800061372175 7.885240727907826 12.376043482483206 0.23002220166254578 0.35635104149948305 -0.9118659045197586
Ni 3.3536829642349217 0.5383840245065561 2.0576680779994243 0.21944134082290595 1.9029179297523808 -0.7202953219651917
Ni 6.618934368331472 3.846744881348198 0.8410792847970675 1.3028191094741433 0.7223411487506269 -0.5983090753676663
Ni 4.675912024552787 5.000011826815187 1.193751436078859 0.9625719155150585 0.8788927920278475 1.0691104600989458
Ni 1.3858288891178034 7.058676159099714 7.728890371422675 -0.14261549281210276 0.11383199292150718 -0.10637270842998456
Ni 6.91215775033459 0.903809723153451 4.270922530967614 -1.3497124315915723 1.5065546095260183 -0.5112373812591389
Ni 4.209911284228689 7.936312752354828 2.326600765635419 0.4415376027701557 -1.8690945534450325 0.5126766848088268
Ni 5.277778342241375 8.247800796251502 6.568948149116549 -0.15319146855573618 -3.7826221403924594 0.7999504118946739
Ni 3.1330518186238727 2.0533472448078536 12.192276543888065 -0.37833654463163874 -0.3760647178783265 -1.1979569241514143
Ni 4.749660960676623 2.1248574072572994 8.201727766854939 -0.8991574558141546 1.316819023297661 -0.060275142740973606
Ni 4.293949251031071 7.037864892151538 13.838203360029306 1.0829339962455995 -0.033818234101025635 -2.1766784528431415
Ni 7.836211584438703 7.7756993976646935 7.830971921218269 0.424636713249759 -0.09353956122105825 0.019213853924289488
P 1.4777865177933371 9.311787313228582 12.685428944770683 2.2815159555755224 -0.2567493332447449 0.300781788874611
Ni 2.5987591530072622 7.793982716005539 5.458006152786251 0.018211895022336378 -0.9396847265042396 1.2326475335550644
P 1.9650835926950616 5.349176566007102 11.381969203245477 2.534713566913267 -0.8132407012456769 1.7916043323773532
Ni 0.2848326448359791 2.667302940338143 8.96177836979695 -0.5831853323523504 -0.7950732863080308 2.8275843284709175
P 7.3317599062569725 5.951434669088709 13.448128763227388 -1.056515911263387 -0.4172800157743717 0.8548370366302245
P -0.022969817899232508 2.8284853166705175 1.8694226592331427 0.6116209619852241 0.17589405235957448 0.5323862474226122
P 8.052542418950198 2.74423280072434 11.004196667784326 0.3028394427345881 -0.14199148607485867 0.1741459593202162
Ni 7.157704581296861 5.893086630199942 10.836977065110014 -0.1650167433254384 1.6986854354594292 0.15918599557627425
Ni 4.554906307452054 6.3224087951586325 4.69400971124313 -0.2381731129044543 0.1412417523930277 0.6663654047159556
Ni 9.272562132808556 9.632230451822812 4.229282273446341 -0.3367330101582395 0.39401641726074077 1.9028258842592065
Ni 1.8294792055925833 7.227544991714159 10.377669325249977 -1.57033313743456 0.41611813425578664 0.8242805039996063
Ni 8.53293660835589 0.655631400301408 8.979432033041872 -2.528129485937846 -0.2317888066446653 -0.13836545928649716
Ni 1.5869547190907372 8.667654814212254 3.0967417080923734 1.9802507993065899 -1.6811613105327368 0.7024626646591451
Ni 6.064082297805055 0.7048769585590543 1.169707939638284 -1.6100664514684402 1.9777915391328198 -0.012060787819276003
Ni 1.2422768554712433 9.40061065875997 9.371171717764119 0.6289250004813104 -1.0601625068770388 0.3196410876729592
Ni 4.489515459712605 6.15521904279998 11.543700079128076 -0.34068916659251003 -1.2033246162212308 -0.21134005187201022
Ni 6.7150710411992 1.1912608003661012 12.279299542256298 -0.7467979962414106 1.1338976317776601 -1.4280377469660375
Ni 0.10819433474904085 5.164654974119221 10.624116329793825 -1.5238447640650337 -0.287853253738401 -0.3513157930684208
Ni 3.021113134904416 0.7142294355838148 5.639943826724941 -1.178993495675034 1.55616867300872 0.38775269573921606
Ni 9.432699748092883 0.8667048479675441 11.481361426164712 -0.5634330894260877 1.6093619692022478 -0.8818315629411975
Ni 7.920156269004653 5.347665393776889 8.7168611939306 -0.305958447979544 0.2658502671047486 -0.5264462277890933
Ni 1.1051239832439792 3.3568265756027094 6.985522363644321 1.1221304639394027 0.8160871695555366 -0.5953145115157167
Ni 2.2578592199633007 5.143610501579963 5.687441275871836 0.4663765161907065 0.9789837812141784 1.2502397927155304
Ni 7.577633225046759 5.730150547822629 2.262118486878826 -0.4749858551262722 0.11443465950251261 -0.9275732879526865
Ni 0.8120787703124492 9.062331956559772 0.9602380136164291 -0.3547870394464729 -0.11395849119704246 0.2252165527437863
Ni 4.566790464373603 2.776732331897555 1.8442886934486673 -0.03149344262259092 -0.7370763980782725 0.4878511411247147
Ni 2.2695101712937675 1.4501096782437015 7.783160110934595 0.6327119783275684 0.6405062775610066 -0.14997064762559334
Ni 4.3940597471708385 3.6640982624126184 10.420047445261433 -0.07359705666086035 0.591084275484453 -0.29186623155253605
Ni 8.997379535331557 6.649167141159369 12.40946557497474 0.8229409592525762 0.012180344116275797 -0.15045864300560538
Ni 7.969885029247022 3.024555249428789 7.5239614246703725 0.032058571097441556 1.2563075961761654 -0.7428770639204497
Ni 0.26024531295700043 4.61691101000899 3.326189890691059 -1.0313129296351982 0.3552441815885495 -1.823849308453988
Ni 6.596416036456575 3.311342157118037 9.39758924712191 0.4190571622794525 -0.38750252740162294 1.0023453387582544
P 0.6344031617563773 7.2863314571141595 4.895129011459514 -1.5051119635422208 0.13635279973184258 -0.014124355216524062
Ni 3.4885317652222936 6.272073700379449 9.30716704405806 0.1678938077629173 -0.519931309488711 -0.5648549094742787
P 9.13705102794251 7.563444996885318 9.677102938836486 -0.7600823720551425 -0.3757479579688561 -1.0200599824291978
Ni 3.7935833348050996 8.322510539410597 11.060172539400604 0.5966363156509338 1.1104645975657004 -0.4229626679814458
P 3.036719253059637 0.9181593295839211 10.06488372544452 -0.9619849326633367 0.11719936673184332 -0.6915763567639445
P 3.756279768455591 6.46215491355873 7.011503332135606 -0.14307340628512777 0.05229983784498089 0.20177529100171057
P 4.796609910273291 1.410884497823675 3.5349004993083497 0.04278547059664244 -0.3391171941196998 -0.008347343523430787
Ni 4.942652579632609 1.3001771396251325 10.51960384491679 2.203997709483385 -0.0796409488620951 0.5886414703709153
Ni 3.9464169509767313 9.368428287190627 -0.3523745809475706 -0.08947644689527817 0.3153995387877858 0.15408441268365075
Ni 7.311107219110732 2.6377697842834933 2.807739347287845 -0.9694843263641755 1.7974440789875819 -0.6074336633767539
Ni 2.1405661358725965 7.111371294460649 13.10855716923023 -0.204401415770648 0.8653757313780194 -2.9882276253190088
Ni 1.366510137952554 3.259197386952057 4.61855091172548 1.2009358042740803 -0.5418059980746153 -0.1401094385607974
Ni 5.112379608822235 2.810556470828118 13.121895596217767 -0.6221581140711221 -1.9828072471798563 0.6540757887153251
Ni 7.844774893743243 9.201070626806397 -0.0817749397465204 1.6391530844217512 -1.472613219583567 1.351289546270705
Ni 3.243684551033269 8.56888758227712 8.247136626728102 0.8297404986729129 -0.15767084448332847 -0.06009567974031586
Ni 0.8795302226547008 3.1008881035018154 11.758595300020868 -0.3587804768765821 1.0642094232529027 0.18507494752789416
Ni 8.060443424376063 8.483357099691814 11.407909127552733 -1.1934626358254865 -0.7512984552149254 -2.258419478767375
Ni 2.3741075430059566 2.979658509033644 9.761163293375612 -0.45999580947534324 -0.34689041030721546 0.8033111008367907
Ni 0.15947624422801693 4.3974179076824225 0.3629845025194465 -0.3682156541475529 -0.7046254766384188 -0.3569297968210885
Ni 3.694172455438579 3.1715400693760794 6.1364002844220105 0.7962331109440868 -1.1875213306403871 -1.338080760889915
Ni 3.4047176757873507 4.417492244962778 12.986896610829737 -0.903126981984864 0.2105196128532439 -1.9229514513644883
Ni 8.106599474963051 0.6993145388005616 2.206414999392931 1.7174650300597776 -0.46032645334188466 -0.8897125083511709
Ni 1.5471232041338971 1.6313010942909285 2.900646589130265 -0.8346286800031497 0.9587450855698004 -0.3464672067268678
Ni 6.007777139894169 4.304042389013109 11.822026287972863 1.4820977620352347 0.05586621504000056 0.9435256975168846
Ni 0.8674193898986199 4.85175836845241 8.541722862205502 0.6380459889459722 1.790216193780575 0.09830715781303069
Ni 0.3998636346931858 9.297673710856287 6.940659204854291 0.8322380682837861 -0.7279340694573722 -0.4144731424531959
Ni 5.405854852863721 0.9683442399624465 6.161440035147689 -1.6462662984277645 2.8813550944344697 -1.3896838297781873
Ni 6.610128525212208 8.337790169738302 3.216257707877273 -0.9085946899676547 -1.5861029986743072 -0.5449453150345454
Ni 3.1070540593300287 4.2324576007745165 7.969042690652033 -0.21475679086304303 0.9612809646177767 0.3445597052915098
Ni -0.41388208918431907 5.07238951406346 6.242605841890302 1.4796981514548064 1.7122477475248965 0.44148489515534933
Ni 6.6466298643283945 5.278039532503388 6.73933561654012 -0.5602207531363771 -0.40918901123612106 -0.2854104486248633
Ni 8.814406428568462 7.837955962259999 2.5148452515793362 -0.2719748919452477 -1.1348260571292004 0.7391049984725271
P 6.253081437041716 2.9847517191428787 6.288519358662566 -0.8192159449925052 0.4815784207421255 -0.037143698929832804
Ni 5.182938292460066 4.977764013425945 8.463683876028119 0.36659123117025255 -1.9779823149873872 -0.06624498717116334
P 2.800808477120882 6.563972474625219 1.4516199176515496 -2.043430260178552 -1.3270365872606114 1.8329618122782176
Ni 6.223203136712263 0.3785467780235439 8.279166015429695 0.152265357197041 -0.5473428687324444 0.7946413409769347
P 6.026657464548183 8.59248798809464 10.107261845455977 0.3298725355929803 1.5741684520202504 2.512375822648015
P 5.868059006165001 4.393994449605335 3.152390159058773 0.5120040842218343 0.7411204862406592 -0.05219313706378754
P 0.4073756531931257 1.8717080740257481 5.870006739261719 -1.0272086776588374 -2.698088660870224 -0.9693321170570275
Ni 7.440331101241202 8.2712239658198 5.3406337787945795 0.8786541936544803 -1.4122128641186387 0.9179478490477805
