# total energy = -340859.75605326856 ev
CRYSTAL
PRIMVEC
9.40856059594253 0.00000000000000 0.00000000000000
0.00000000000000 9.40856059594253 0.00000000000000
0.00000000000000 0.00000000000000 13.77037946404192
PRIMCOORD
 96 1
Ni 5.842264572096512 7.009669372855932 6.9381643116790075 0.5769079839840711 0.3840251103759838 -0.3232650575787917
Ni 2.047547426801227 4.417827302088093 10.66532422785919 -0.9133116358273496 0.5946275127510211 0.20640430513328967
Ni 6.68795304892386 7.150092141022458 2.2768086474876044 -0.9577742370160988 2.034991385382579 -2.3350437522903333
Ni 6.984134539167225 0.4426144469730251 10.095712087955606 1.189324702397713 1.9891933532118578 1.5287123765699802
Ni 5.472696308539987 7.677093850457071 4.079613067001582 -1.4575717518694122 -0.42782976626575997 0.5572058775694533
Ni 0.33384772207437835 0.46017740719657313 1.1051615267170432 0.38437606595749935 0.4165151125838891 0.7542698791384235
Ni 4.957285945864581 7.137898646379655 0.3289562113762359 -1.5146826379497913 -0.2796002697009894 0.5320774579329417
Ni 5.19460748048652 1.3589442791067652 7.714579437923006 -0.4503467164213534 0.4649593241282057 -0.06122850779317842
Ni 3.45799416707674 7.5923415358410535 2.3136996139184887 -0.4504102226694372 -0.24276895980525287 -0.3783002920770646
Ni 7.364268616368708 0.014571978783002676 2.39300249018797 -0.05443051103473851 0.800080509714635 1.1551051190932107
Ni 6.853402588502309 5.436680338252453 9.816421786703152 0.27559089143128024 -2.3792854957175282 -0.6524891609544957
Ni 0.6667639966413204 5.426058073243407 4.463241483640053 -0.4639946462220912 -0.273399025986284 -0.01554643237503129
Ni 5.238639544474417 6.238233256924412 11.757357049001723 -1.107170500195461 -1.748341665033976 0.675751731026862
Ni 8.53226615645104 8.593976905958865 13.334822676777305 -1.3809137968950411 -0.4962460500566292 -0.1330260493514548
Ni 0.15213360364638323 0.9412135934233096 6.388932995922985 0.1442183185228484 0.03843336427553381 -0.10670438073779043
Ni 3.9651061792313507 3.200331324262102 9.592983524222355 0.12980008621498934 0.8367146159979009 0.28101026267463863
Ni 1.073149839855416 0.34938501918326953 3.725479547242524 1.5004243282585643 1.1466189359990704 0.037968765934289446
Ni 0.8184855053298682 9.179951473743078 11.864503619751071 -1.0157850092029281 0.184714735974998 -0.08793687032230016
Ni 8.397356804843684 3.941086123812313 3.157396298449631 2.131105906419665 -0.16373941927491156 -0.13980707682903018
Ni 0.08469774496406683 6.339657541067471 13.49177722691672 1.071681563260232 0.85374020402162 2.5639030439930295
Ni 4.446673949136573 3.049098119872907 5.315779392643296 -0.7979428945463419 -0.27066208667109515 2.5916089945487304
Ni 5.010820656140463 6.248065202836239 8.966362092583331 -2.065382596079927 0.32644576929961844 -0.1472941292346947
Ni 1.2533049597785404 6.888778776663524 11.603638102880561 0.9467061521273954 -1.493647414546047 0.0007409919310825948
Ni 7.8971977190324605 1.5662054623523525 7.8429470172887426 -1.3370543765079297 -0.07889610027627057 -0.31330666081449915
P 6.279621515360897 4.473112004650673 12.570442040500597 0.45081362875544295 -0.24904939349732597 0.051310991569150345
P 6.412018781266382 8.658115064122429 0.5427262369010597 1.3905942574075987 0.27282181332657535 -1.2942012858981453
P 8.894213485855815 8.5086977119447 3.548599547292516 -1.6099780055196917 -1.5083590097246087 0.9183880219089925
P 3.7743193857384996 4.2812150009974435 7.6610127385408076 1.0425409371405336 1.1921464881172243 -1.5171557820806323
P 3.2623431477117215 1.1482395626518678 3.831442521058181 -0.8477752446874368 0.34122806981511555 -1.0563423618
P 1.1048096465475674 7.8693013366127795 1.1168780073333096 0.9052280874882668 -0.8147324552998549 -0.7424885702327794
P 4.6587711325722845 3.2239562201325307 1.0928334896565006 0.09092577774729502 0.04906127630302518 -1.3004909755615992
P 6.084789040775141 3.3018967368153778 9.28164860614589 1.6691298332894997 -0.4702231436303063 2.094690601015425
Ni 5.122537905668726 8.970705084193762 12.356753869453698 0.5762667508556463 -1.0437629824730927 -0.3386675081767909
Ni 4.47028002788564 9.172810376186066 5.843928946481012 0.15147062920988752 -1.0693560004508487 1.2143657045267406
Ni 7.104215999141052 8.842099468242791 5.195840001935754 0.949354645493836 0.4650266870310314 0.3935173661371352
Ni 0.6309917080754279 2.575151284119435 13.051248657846713 1.1551148892852234 -4.97842088055029 2.4903658940358273
Ni 1.158786559175464 5.165215136918532 1.7697417964242632 -0.07717963180579612 0.008078149022444152 -0.13965949550757237
Ni 3.3350901388985608 7.828797482880324 10.806001968020174 0.6683253566558038 -0.3381622864055982 -0.311930863512895
Ni 6.61608105388037 8.962406733672966 8.0488279646824 -1.2689767070034017 -1.2657921386278328 -1.2893745539334633
Ni 2.0803927121392065 3.4980558184571797 3.2021641118827944 -1.0374653223898391 0.04101963694547129 1.0538170242749851
Ni 7.175881005849556 6.516077462400168 13.608949559927929 -0.6905790258476817 0.2926409049350315 0.2139497215807154
Ni 3.1029433126512673 6.6774907294463945 7.145931675489242 -0.26609477901538686 -1.3082392520484503 -0.6624763540741946
Ni 3.6873372422410435 8.52183206265562 8.389988960974257 2.3227412807738967 0.628418493158537 0.5064412454220761
Ni 6.639442510051725 2.8234149748135806 2.291266782686365 -0.5924790989494506 -1.3570737570526499 -2.1339161221749507
Ni 2.4516827423003855 2.940937306282128 0.930175470032156 0.39327491110902596 -0.1486187615833892 -0.07635173658786205
Ni 5.528263267923004 2.1653990578936155 11.849852609058347 1.2948934268691634 1.013949498656086 -2.194791103283452
Ni 2.374485501911351 4.438356781494416 5.583641115236327 1.0717412128535735 0.4187332032811304 1.1762179898124259
Ni 9.127517565066894 5.987636243181336 9.289525453148169 1.1386865685258711 0.5881984692962257 0.3206790420191703
Ni 0.48471775602127987 5.981323098964268 6.86888531595925 -0.18979369315980216 -3.1993185372946904 -1.3768517110105256
Ni 1.782959883325245 4.500622636082427 8.149090291581334 -0.6047774567008295 -0.3107304154468907 1.0480940057482788
Ni 7.957854709743991 6.169136787281868 5.262612557090049 -0.11314653681870836 1.9832816157131135 -0.709574593113578
Ni 2.6548417930889814 1.2983531483200028 9.610485328801474 -0.32383301426711975 0.2359174841010582 -1.8321897099988835
Ni 2.821975465029361 0.6136592575885687 1.530729543447917 -1.0287420835842283 -0.1446878019600992 0.45243522351926596
Ni 7.947646421404917 4.191485557781085 6.288684781865072 1.2471043324103426 -1.6275448107588615 0.29413805830584827
Ni 8.318917634444734 4.333855898008613 0.44859076471770704 0.06249966119611817 -0.7624416163159385 0.03127798417767516
Ni 3.4344351311310795 3.3959353008237145 12.304797915660119 0.6020795981536922 -1.6658046255710086 -0.13123964687499332
P 0.6214401372718997 7.860222075555447 7.200145683846304 0.775562984189245 4.140100867738483 0.3426393483403454
P 8.029820790394293 1.0464389360815622 12.14755452270779 0.38633704633861204 0.6838586764047127 -1.5931210818633532
P 3.368481120756048 6.438071085792553 12.807953628048296 -0.2844413998433747 -0.02191325513332355 -0.2351340689678144
P 5.05615110150236 9.082243571069082 10.246924593511302 -0.8294893018940553 -0.10410628099331104 -1.726985310845387
P 0.13566297731791963 4.104070620492294 12.126100181786507 -0.4791327874151103 4.210805176232581 -2.597694795731494
P 2.3885889343724314 1.0854186029836672 11.623480757357157 1.0100398791890346 1.5653351699993365 1.7785770668797496
P 6.594328461585495 1.5344703871747516 5.771414346742998 -0.027829363507442393 -0.12692225044656205 1.6574210294930034
P 3.022255496249517 0.8852260713778459 7.318185486152317 0.36166474040291263 0.45954329531895693 -0.2676878345341196
Ni 3.921977337068848 5.265764424918242 3.582460957184062 -0.2158767634000992 0.1556440438612868 1.023864700887269
Ni 1.2738062135028194 7.19987283558655 3.2238386131240158 1.4584161021475786 1.4815357188841773 0.1444558884549512
Ni 6.600923862622998 3.2626724473355626 4.4692591990517325 -0.29596148466783223 -0.012072872004134046 1.1951857891641802
Ni 8.25887220017748 5.71757291738891 11.693764587357665 -1.1269317419827882 -1.4771823270114883 -0.925233069855284
Ni 7.847783958334935 3.0763829458483127 10.867266751751709 -1.1302014138729954 0.1255333405188354 1.4714546804990918
Ni 4.9050778426447454 1.2807873655282505 13.702464067106323 -1.3043311752432956 1.1848270716376756 2.6204259187804224
Ni 4.92810999919226 9.323780140876188 1.86974256533626 0.8222169366023582 -0.26116700269646637 1.09550386249081
Ni 8.68127894051948 3.465878540927564 8.810577967392653 -1.003182489947569 2.899532022453813 0.002115760791422163
Ni 6.002981605652331 5.07497763142539 1.3938105232790605 -0.19897021745274768 -1.276745295205227 -0.19766872503250474
Ni 2.15878483973475 2.063344400184919 5.467171601708002 -0.47800792978204765 -0.70817514166289 0.29230871840659334
Ni 5.304518286363998 0.8713456218049096 4.04689385637673 1.593657156872481 0.4014047393050119 -0.9339236556507464
Ni 8.756472157483424 8.642440402027592 8.77600056603327 -1.3256417637956137 -0.0042690596889990995 0.5809764976264897
Ni 5.880990207860225 3.6312998548239697 7.260033054294115 -0.37010387230920133 0.39229943456963406 -1.1145076572868227
Ni 2.0068836275371917 4.906282138411935 13.298207381174379 -0.7870833261240187 -0.4644607872252324 -0.7416686454346453
Ni 7.401347754013217 1.2800723149164814 0.4358280521536942 -0.22340726744918943 0.400151326513885 -0.9648563406738608
Ni 4.369053323516886 3.037864298419585 3.1704647892357825 0.34354900463880833 -0.9593456952682768 -1.5542004935387557
Ni 3.5239952202551774 5.231677209570346 1.4064377525692646 0.05077877321476416 -0.32431355344796403 -1.6365521564637946
Ni 2.0358525858745273 8.91644591474543 5.904945344210563 0.2976360441567777 -0.8862296920088931 -0.3644222485433918
Ni 8.717671253234261 6.2324564006661705 2.6585374757245464 -0.5600505461071 0.6486397053014183 -0.4604133566287361
Ni 1.51682933589755 8.701272131966975 9.051587657801614 0.5696867836452835 -0.830008407622319 0.8550121287555081
Ni 2.8076744527939757 8.534213728512045 13.060502918132714 -0.13759901343411787 0.615847855582378 1.6120659983969718
Ni 5.5693316352963285 5.3575637514844585 5.286407747908806 -0.11085645523295103 -0.3230971645423597 0.3774525993647887
Ni 6.540266871911467 7.528692622832909 10.676588156706691 1.8881479705320579 1.6457338229630625 -1.0283481905799192
Ni 0.05299936317312266 1.345019609298627 10.27950549829414 0.37092405421765146 0.35758388546531966 -0.9783358632175344
P 6.749522670021465 5.5570628721680775 3.4989430457294146 -0.4501163455781022 -2.1288068259728434 1.2761850518263826
P 0.797322829789703 2.3886736114185623 8.165008635397815 1.4179957893490032 -1.866175837136341 -0.4173769463635521
P 2.018757231116834 6.507534489301662 9.6141763071567 0.5134338746898255 -0.6454273690117078 -1.6404790023220264
P 8.980405310256053 2.3783618289119945 1.592778060284193 -0.4306073290108971 1.6688177013657193 0.2611646887036212
P 8.739320351361643 7.657872160985432 11.086422237410437 -0.9667746407424963 1.5947624741215178 -0.9398703601524846
P 0.37007256240903547 3.3659031751294064 4.864841192035636 0.13420361459932373 -0.7176110902648093 0.4361423998965134
P 3.3179853755801862 7.0719070017619 4.436609611775921 -0.43060475790773584 1.1804585102563347 1.4484685040165635
P 7.812690026994154 5.982179277986255 7.5267657496054055 -1.7423782483616896 -0.15923278965380963 0.5042619783825703
