# total energy = -340864.3407034142 ev
CRYSTAL
PRIMVEC
9.26180010962563 0.00000000000000 0.00000000000000

0.00000000000000 9.26180010962563 0.00000000000000

0.00000000000000 0.00000000000000 13.55558065753877

PRIMCOORD
 96 1
Ni 4.779922497081965 3.910998920125938 4.69017657872572 -0.6203912519786864 -0.8381140674485889 0.6110316651406573
Ni 0.6509026511546934 3.663736638538236 3.038984680422568 0.06694689833419439 -1.0769986045977709 0.7287519373729772
Ni 6.296042152727936 8.203982268446865 11.348719110438019 0.9435735200356847 0.008212874828095533 -1.2278197731491178
Ni 5.526534739781438 6.858789136631326 13.113655177755614 2.3651837662088235 -2.8099406472472253 -0.7772617120479066
Ni 4.726565265774075 6.067229377261622 5.596964247511796 -0.9898603189173663 -1.3842701149617838 1.4030664217326803
Ni 8.421032557580768 3.2643770730522212 6.441558001360256 -0.9450719589580819 -3.3952571670099654 -1.0105746686465822
Ni 5.9159008227850345 4.0608548483609095 2.548273200414923 0.2823150975289912 0.7753403266554776 -0.4928771335843963
Ni 2.8091132811863373 7.311570766027063 4.964786177946265 0.1789086708161822 1.7166718447345208 -1.2158348328730997
Ni 6.322864326285938 7.62722218074746 7.525624862776292 -0.5916478612974069 -0.7750217669737943 1.0890231398624728
Ni 0.2064038497330313 5.86948994167345 12.875497245825203 -0.7350511401181277 0.0951272174231523 0.47523628057418155
Ni 9.009684796816245 1.5203522983655868 4.350799210274819 -2.3523336497190326 1.7918776406433978 -0.4025483659911519
Ni 1.9624550720595366 7.232623180595981 13.586894271569484 1.7816729321962541 -0.3736237125370017 -1.5033080775642627
Ni 5.131074392205617 8.18491222170794 5.748014021800506 -2.1079425809293246 3.2021408372348334 0.17001239676781688
Ni 3.9666901250997877 4.193511613509827 7.362482882065853 0.23041866577001607 -0.6634801127483606 -1.436838633087119
Ni 3.076408836740186 2.615180445505741 8.998750315427234 -1.300249548974754 -0.11015454406991997 -1.1105885247380745
Ni 1.0058315084250835 3.6336357876875773 12.828920578488932 -0.5501240310220074 -1.3324952963823375 0.2989555342991496
Ni 0.2637167959327114 2.5121614411943947 10.725175817256508 1.4367553293446935 0.4965931489834028 -0.8537875123197877
Ni 2.857700685359432 5.293137373185562 8.923083259648863 -2.198259264337711 0.4448545829585306 -1.821725834353082
Ni 2.1813669830460496 5.380105677643312 6.1982625488246565 -0.021366381490918043 -0.9064136231559358 0.9097378024331623
Ni 2.585153689057176 7.298622769261149 9.761509580703027 1.6985735924719132 1.8248494675837283 -0.1455936016038202
Ni 7.483266019279219 6.160671680102328 11.636097027499401 0.9282924255068981 -0.2507123830220456 -0.3180482892645426
Ni 7.191241457026522 4.5730879736367624 7.904340801658912 0.29024386545776465 1.2350283750824151 0.42611972555318867
Ni 6.409462158733217 2.7350929734945026 0.5700693631903218 0.4886265858381585 0.920526408408234 -2.133324511337539
Ni 5.233037551287125 2.0345859724979762 9.841907564055099 0.6640588680699661 -0.4421788358985804 0.2529222461891708
P 7.936695974693278 3.881731631298836 3.9631502650397503 2.3135279897057446 -2.460206082622995 -3.033424533570621
P 0.5738287279165625 1.8001883314738327 7.845671927900913 0.7841319568051787 0.13596250627195938 0.35190586124393586
P 2.5219141168700077 2.893312307365826 11.120727856654922 -1.035665550176939 0.1427291355718316 0.5320013532793677
P 6.661151580846032 0.5019497484452422 5.00078957410373 1.513136119398278 -2.674436054448291 1.5994943323795485
P 7.969427176818271 4.04500790811307 12.635631437926527 0.4363653145405969 -0.9684445722457515 0.41230955914297385
P 4.14847147883698 6.370544074033382 11.069337831722626 0.4543630366695981 -1.0627608637318344 -0.2183249678302756
P 9.240275837932815 5.222784738397378 10.106187477443722 0.22873973540569636 -0.5336579150461841 -0.5583441049389546
P 1.7331977301806591 2.438715365118788 1.2150176029567419 0.5748960957603646 2.375241921775774 -0.30128649642517147
Ni 0.4794444999892375 1.0502511024803938 2.030232926374958 -1.9357506600116858 0.697791741546037 1.0018226334855649
Ni 3.7082951595974727 0.3034304692750311 4.494976728769316 0.6450964680348503 -0.01906755815441232 0.6173213548041111
Ni 0.5374891284095951 6.5878722171751365 8.270165240757214 0.08551103448962692 -0.09818528752318574 -1.0863885304531031
Ni 7.444912904395349 1.8313820747553766 11.301056960111074 -1.7962068641463709 0.3261871163215931 0.8962073720468953
Ni 3.0276547201623805 0.6953416949905534 10.378138939989148 -1.964885886814745 1.3854348246938464 2.3586516215172604
Ni 4.320213041090446 7.802057184288348 0.943845057813329 -2.4696685135874756 1.3351005952156683 1.198428464471194
Ni 6.3738320131263 7.283989124847597 2.128686789337292 2.3282223584931256 -1.9692163958692988 -1.0034511702279234
Ni 8.766729252350254 0.5731544688575078 6.370174528202938 0.9232160394252551 0.6223231788940766 -2.088238674742494
Ni 0.6723566852809905 8.156598898307797 1.5332447243299305 -1.4442858333937836 -1.2285347969382712 0.7305573660128322
Ni 6.880017182831236 4.800354028459365 5.324035665038758 -0.8167826529606642 2.049499092080451 2.977685331026788
Ni 1.2794991825590096 5.204251876073633 1.3939203891725853 0.5356942287499226 0.6142149479646454 -0.060325022142302565
Ni 5.018969561837503 1.5926684348092615 6.149801105135122 0.5354648863479359 -0.6372918843887669 0.12172939339171292
Ni 6.940450429539097 7.509967789433818 4.688225117410571 1.815249225489803 -0.5566407490946027 -0.15094483861340455
Ni 8.378465323577805 4.282498990424635 1.387603841394078 -1.1213334219594044 -0.13860354343923226 -1.0576703365828044
Ni 3.8801108162530316 8.11225339865458 12.086725288334284 -1.4176458622087522 2.1877501372762707 0.1790814489486206
Ni 2.385172897805662 7.504003190065257 7.094937257904938 -1.6503844343611962 2.1802157765724384 1.625230046582756
Ni 7.685756758401665 6.777507577534285 9.271258412168391 0.01719219550857039 -0.22404567236413672 0.5379164332122219
Ni 3.669062173688737 5.3939798544354 1.8029733548125382 1.587010598090241 0.14864190151184078 -0.04791276452087878
Ni 1.909857308373109 1.7248065391435217 4.015881398649946 0.756900117672419 1.2693412894316718 -0.598152495185144
Ni 7.899324610637152 2.2247307318715213 8.562735323045327 -1.4806546018308049 -0.5187501446964162 1.2419451568069062
Ni 2.418524640548192 1.6848974418156792 6.6406218743858565 -0.637959856990069 0.7515681639365444 -1.1175222757434304
Ni 6.942478763796418 0.15550655257465926 13.43578985265923 -1.4385098501419549 -0.2292333872126633 0.3020056339793831
Ni 8.131036329585392 8.899923201914353 8.11980639676803 0.7718662520639481 -0.7372484048797625 3.440445076400514
Ni 0.5148227246290361 7.2520266521443295 10.563552771788995 -1.2148930377851206 0.9641485159735588 0.8379921971587437
P 6.215464490450788 3.909757838890865 9.723662160113449 0.42121894581746167 -0.6352689404214672 0.44665898315712105
P 5.814113637908499 3.427338448657556 6.746721353464259 0.9052108610970862 0.0905946196601214 -0.6777875305099682
P 1.5589925290575708 9.30977638709692 5.109952856708716 -0.9899490219764305 -1.9124071001897385 1.2131254043617365
P 1.6202871231897733 8.874138349985666 11.742237258498953 0.3519238589660649 -0.6876279136391577 0.17917966508938174
P 6.174527333293892 0.5353774379499181 8.224849104436567 -1.019629579759999 0.9479605933597869 -0.37669540948378993
P 4.378895807548837 1.5169346940690045 2.754223221935129 -1.9619368314887504 1.9097097558632334 0.5562442849871324
P 2.4065676564102843 7.062372768184656 2.3833288733735496 -0.4752437367733493 0.2618683996388651 -0.3228961042751471
P 5.828330501310273 5.887531928583321 3.8167767737031935 -0.35476955594497606 -0.3477437594464463 -2.353364662086708
Ni 5.464286180222277 5.872231434550925 9.13667797110511 -0.8295342961993778 0.8297592677259904 0.7592426497626666
Ni 8.675732064778648 6.176713118155663 3.025253135354511 0.15456469475417894 -0.10758292668800182 0.24448594249635958
Ni 5.696961126397736 0.14772478799474437 2.1559609387480676 1.4162469249786964 -0.7909299535636185 0.5628749029297725
Ni 1.9930560601243292 5.508502014671829 3.817129648293166 -0.38499724448126593 -0.7352141480585532 -0.27935344379750604
Ni 4.433984995505673 7.428825157340705 3.2885429622951565 -0.7249752439393644 0.4931476136369636 0.7453103559522906
Ni 5.844214488759158 4.575468256304029 11.836923421114813 1.2168123662950205 -0.17955941702630368 0.023243029688340616
Ni 3.8020801490478626 0.24038354253330704 7.716162322480935 -0.22457197718125194 -0.6278147981362671 -0.7505942300590492
Ni 0.4842004344236415 4.029040564461829 8.098294013300086 1.091595014354707 0.47759038262865494 1.5009269789265958
Ni 1.9943341885604495 5.345725875071729 11.303538196401194 -0.5113479386950742 0.22361501258462135 -1.166770985466913
Ni 1.4273823473382297 -0.02076125146671885 8.907765168195969 -1.1464384445571483 0.36093120467099776 -0.7773558144236096
Ni 2.7841434676806838 9.246036677695617 2.3285369892051153 -0.09903092335293266 -0.08938671539494929 -0.13991300627927516
Ni 4.323065675571061 2.6155509175162104 12.414769917984916 -0.9137934605597746 1.902836425782168 -1.798931719276702
Ni 8.573027961676202 8.733349724206938 3.4735094491423615 -0.17696285994372105 -0.4902083285029815 -0.03329784282118137
Ni 3.2197351957906295 3.322448560693338 2.9719931529493686 -0.1725261643286061 0.5040750591827448 -1.2469513517722461
Ni 1.9902219492442363 0.5665878524719333 0.15815542744951722 0.42340875437992886 -0.11220011374503902 -1.1305266584228981
Ni 3.0121319429237023 4.72627814996596 13.229108148918346 0.09545606151748076 -0.003697246345929116 0.19498834998686418
Ni 8.85581850906794 1.5348933247765206 13.356462533417416 0.4381846271375227 0.6434077674785177 -0.10092891170659393
Ni 4.707921261847189 8.971655844941537 9.634249666566626 3.0436855491769967 -2.827491511646795 0.41407487857351266
Ni 0.5485875436632395 7.253452969384637 5.587094873152885 -1.3966180950041756 1.615189374517302 -0.18777434873692822
Ni 8.617632791736746 8.230082021584451 12.432365486122174 1.5209371034999355 0.26447292714124776 -0.14467314667207987
Ni 4.661436286333511 1.0066835940491636 0.24487736802030385 -1.3606876996561532 -1.9970339323021995 2.321712068178434
Ni 4.037709609506818 4.304125294035801 10.403325479620927 0.8683628390308014 -1.438068648839478 1.1108695463136031
Ni 0.0026553581350411736 5.022581663939582 5.528277810590699 0.6456348570368236 0.7183387124594532 -1.4434060018919914
Ni 6.260680599328609 2.0490714281073394 3.855030787324263 0.1629493192734484 1.5449854026983907 -1.5859515606981074
P 4.1389781335686955 6.862688354541518 7.6903246782907555 2.074618512855898 -0.6650148042253321 0.4067536623217511
P 4.9918324870706 4.275200691818383 0.21146449739604664 -0.32257985858630894 1.1597469887405962 1.8153770093169186
P 2.600852440500827 3.574878926827092 5.101222683781999 -0.05119169238246667 -0.0975211715766256 0.21048336029866974
P 7.409199402586075 1.3376262410016968 1.6454171658399555 2.597405032405217 -1.1199889921163677 1.4461331710151675
P 8.374121539255048 0.13410253216977558 10.484415319452548 0.37888161850183133 -0.8242964448392063 -0.6394071309595568
P 7.756090869589326 6.929178818620557 0.3869320818948103 -0.36940581780091214 -0.036530747936182245 0.36224503838641486
P 5.263416256145636 0.7353285914405944 11.844473640688182 0.41950710533267754 0.14943457261646523 -1.496650463038429
P 7.949412426452648 6.436238023289911 6.623826525791215 0.43435882563352934 0.3455351818309017 0.5838314505767817
