# total energy = -381162.22815034835 ev
CRYSTAL
PRIMVEC
9.30347860638008 0.00000000000000 0.00000000000000
0.00000000000000 9.30347860638008 0.00000000000000
0.00000000000000 0.00000000000000 13.61658135046995
PRIMCOORD
 96 1
Ni 7.225397944921727 8.69170062971691 5.8381506407784025 -0.6919445387366405 -0.3622859189266793 0.10672443534244844
Ni 7.237222666461081 5.562773250745368 3.6315692184862556 0.7660285623362485 0.08867477692958922 0.16417007905442693
Ni 2.9919336538204777 1.961108204126893 5.7948355042379385 -0.5576329378045429 -0.733536246135498 0.10897055106414781
Ni 1.4689262658133577 1.483383871849674 0.5810041109968798 -0.31443460377135524 -0.9300423183184693 1.495834652005353
Ni 7.9635266484708165 6.287895690949048 5.755851137073218 -1.3334419765663228 -0.15169868606029357 0.8030922999577653
Ni 6.452120698512145 1.3925819188802753 12.034865727171386 1.7305619724530519 -0.3456079440503661 1.3157337606532824
Ni 9.449915543968967 0.7253680520436785 5.2378771645161315 -0.4298501391298984 1.9947433364958098 1.3481851963137683
Ni 3.1227963864503505 1.9353747817997047 2.2925697553367135 -1.1546304934496374 0.7935535072293947 -0.2719419818247833
Ni 1.7867796186001927 1.9502789548178376 8.125858398100586 0.12336975720861335 0.23040709580579027 0.0010754924523658897
Ni 9.147301289436626 7.998051858252522 4.5445065670675 -0.33426295135119205 -1.5748315395255459 -0.6073747851143604
Ni 6.62880306417217 5.735371389217528 8.422223505931129 1.7571636342009802 0.6974207313598634 -0.5461869007511304
Ni 5.352319257085453 8.169849897548927 8.53942128891741 2.3550381931343893 1.9950860645472093 0.30654208839715597
Ni 2.494951120452413 -0.19330396086239549 9.76946119954731 -0.5452157950871126 1.7064028587083453 -0.35673130765703726
Ni 0.9177891127691072 5.775599631496184 4.935112193627429 -0.583072203813254 -0.4530474031819681 1.3847051456166735
Ni 6.4242102621486 6.808657916098853 10.731037135231427 -0.09942301658502878 -0.08465074337186067 -0.18958749068626704
Ni 3.416860743976658 7.842441872046972 -0.11955993625051646 -0.8137171266614631 0.09791480747061845 -0.5087452109649044
Ni 9.313991718878505 4.278921088458675 10.431349755125742 0.005979357511886476 0.08976929554534863 0.5241512611073295
Ni 5.563536136005972 8.624027125014102 12.404515267761687 0.05975218035796807 -0.7641825102664452 0.0035437514872003486
Ni 9.40488670663578 0.7795840746798641 3.059047089100257 -0.3373403047249352 0.13452397405321992 -1.9195282846155521
Ni 4.160487803489367 5.855488603847437 11.685314491806473 0.5467841680154971 -0.9531866176454165 1.616554887406261
Ni 1.8719436634241555 6.360500039409414 1.4430718982619275 -1.9281309386828986 0.7396870962282421 -3.2919250451785174
Ni 4.512345371245787 0.9080958182200481 3.9733046013214968 0.13760672674360172 -0.4710027021088081 0.08873699762609234
Ni 0.3008652005202241 7.0379607577829475 7.172126225382508 -1.0372056409705492 1.8214337570339598 0.5747197180835005
Ni 6.833935467965436 7.3715183827636706 2.2381574292981044 -2.9824917512764952 -0.23510064462671768 -0.43109352461869627
P 3.370296832643477 3.177659000862292 4.109648013305292 0.9091467058163826 0.834731267019285 -0.5401635773751858
Ni 8.328716101330224 5.474418112697173 0.9848123043046446 0.824737903251999 0.8439201326074047 -0.527169479108363
P 8.624064338929253 4.767056013499497 7.698447279108051 -0.027840162140719795 0.30916975582799017 -0.28827774287032937
Ni 1.7232926793519165 6.954787657419584 9.30845894004337 1.4969250568560541 -0.7942888427335224 -1.2604668697601775
P 2.2087202920654736 5.523400928515194 12.979135331614346 0.07500910651703857 0.34709429878790543 0.28883387248411546
P 7.650539015090027 8.24134713203354 9.124008169595491 -0.822832201588854 -0.7734845043936615 -1.5223676652988751
P 2.947714219141835 4.596067376857634 8.93511870941793 -0.14094453286758307 -0.003976211038928635 -0.2477165336185153
Ni 4.047478446653375 9.231739662915137 1.8090986642122406 0.681699978190497 -0.5785784297079585 0.12448715864250819
Ni 0.6651559373287247 2.931684325190372 6.16761659578823 0.8914361759104968 -0.08269567652801887 1.0323048612348222
Ni 6.4485109487424594 0.407205823761087 1.226641349828699 0.18338136187555515 0.02625687681399994 0.29645179404068944
Ni 8.586022414165743 0.9036720140564263 0.4355684091937211 0.21557440166833194 -0.7270005018995093 -0.7349421253440891
Ni 1.214336568783891 2.9081744342934797 3.51607397211815 -1.2995283545380136 -2.2362061758951293 2.2312904837610668
Ni 5.067186239195481 4.92065644828687 3.9513009436403568 -1.4013448110558833 -0.6903085457951144 -0.6153302925160112
Ni 9.195018832139501 5.80017942245368 12.376750896015112 -0.5425693586032011 -1.3086241461916945 0.19566455011828238
Ni 3.9811353394172286 6.542299318402757 8.319009781910863 -2.311895339198328 -1.5575503838475948 -0.8151155496708865
Ni 3.349643109734454 5.032791278116806 5.818038380334833 0.8522710756752613 -0.6013627745923256 -0.7572677854244829
Ni 5.0254694403107685 4.836236681765937 9.660161139704032 -1.0326393617561056 1.608608121755359 1.1764964402847933
Ni 8.305978399172723 3.978139619247542 5.186501493953876 -1.0780836101318336 -0.409996594739081 -0.9724917457319318
Ni 7.947329291901173 8.924036405485845 11.037409995194057 -1.2693903975020526 -1.1633866423757124 4.597105455795987
Ni 8.971400415994779 2.7991004489847473 8.721883905948326 -0.1264828489162983 0.283294430723125 -1.1128379828938837
Ni 7.578083522290265 2.9566176483418056 0.9990866318088402 -1.0129346842383264 0.45129956725292597 -0.08882261536136316
Ni 1.3322116450259278 0.5309616289449229 11.966796824620095 0.4543869479289981 -1.297827569796823 1.0575950032601786
Ni 9.159498150127495 3.364798476679859 12.88896601520252 -0.044380325887588085 -0.3750702151755412 -0.768145094458619
Ni 2.230676502004796 4.629280796130251 11.035394861688607 -0.09394450996896078 -0.6476500876946394 -0.7071351304341499
Ni 7.076449249528276 3.6380044347638103 10.42320735049062 0.11699753513368237 0.7511390468189257 1.0771351301756353
Ni 6.818203285335184 3.122814993407926 7.855718866625111 1.1005740779248658 1.6496632399244555 0.38548292586843286
Ni 0.19843575976177258 0.058610986015565095 9.666438196842194 1.8058086489021932 -0.21414898207571503 -1.6824136948825994
Ni 2.293000506404591 2.812376513215006 12.766049383805349 1.3679580080653215 1.5373903639599524 -1.1746491026634092
Ni 5.452936380176032 6.56468348836632 13.672545934021766 0.750207793253908 1.1386078927691359 -1.4801714915467992
Ni 5.192113352358707 0.7884437775295319 10.226937440590657 -2.34990112901814 -4.32575739880146 0.436383569373042
Ni 8.525875423802303 0.5599968558939186 7.495533755005687 0.5354173209394522 -0.024804460638189536 0.2620674030235487
Ni 4.7437787095723 3.741068372775593 0.1913418571860383 1.1308459894355298 -1.1410234441891638 -0.8705153665974298
P 5.513669489703105 6.771313752244429 6.814663311656409 0.14927567844109776 0.7196103800830251 -1.719083025279175
Ni 5.362422835049056 2.6851142268760304 2.3362654041596 -0.30584609077139585 0.06514712612129427 -0.2247990055903935
P 4.5974070778030836 7.213238298146008 2.2471855251138324 0.16529750779065083 -1.1026710696632107 0.03707016537942003
Ni 8.883436024055674 7.836320183004569 2.0024268141194845 1.586976659528512 0.5896549992370942 0.4432797822722431
P 1.2365625796080604 6.981581676328587 3.216699188899739 -0.5918131832306776 1.4250267280538553 2.0070609775208985
P 7.645989613962769 8.000052106191909 13.770449232349927 -0.881211155748379 0.45130136702513884 -0.5996946428612833
P 8.304061882542426 1.923168617630048 11.356705387193006 2.2884903300108266 0.6005724174805462 0.042399805122449556
Ni 3.885002493102393 7.6501389655021494 10.51944904750727 1.3022889480022861 0.332261347540131 0.3992336997956221
Ni 6.900929818716731 9.375766818029817 3.5550583392828705 -0.23074648142308 -2.0145156340267305 0.7211820954455194
Ni 4.591564493124316 2.9940641504628944 7.145655037187442 -1.1349299296969164 0.8129262553290516 1.1375899930275828
Ni 2.071093930356835 4.879097808541553 3.1813915565519766 2.8462209697354983 1.1031708921177645 1.162952125941455
Ni 3.173649201504729 2.084890989399214 10.284318506710468 1.4878102390389796 0.44563002767197446 0.31076126868482606
Ni 2.441707311349557 7.294373936654832 6.181628565190609 -0.04850257558607776 1.4254594447158997 1.267911756073997
Ni 7.215768844376304 1.2909228061654574 9.551337417974693 0.9332708525580958 0.21191803586266728 -1.3323119767269378
Ni 0.9579140864332177 7.401047624436301 11.396194002908029 1.5221781749958883 1.055388482527163 -2.3157921031495725
Ni 8.89327910461322 6.362528197785166 9.570441181317662 -1.5570179083828926 0.36043626731245026 -0.17358263061757848
Ni 5.1767905227951205 2.751289871493995 9.555844953447405 0.0011338564941270797 -0.2975311431477973 -3.2327603618929035
Ni 4.7223993153178245 1.3900141587348291 0.017679400740548 -1.5199441434590468 -0.021249139186763404 0.6880590876393053
Ni 6.118125810028393 1.1386620723235332 7.18695410987458 -0.6139573234278846 -1.1481657116609 0.014798241355097098
Ni 6.085712489931529 4.684562067087645 6.278905739396349 -0.4015746892239729 1.3433522937014994 -0.7460685742745539
Ni 3.271112445286227 7.083445465576738 4.087657380494455 0.9646771347835192 -1.18297253492744 -1.3093934202575515
Ni 1.0860136858631002 3.847425742278274 1.51717317645926 -0.7376888348512908 -0.27317045491524566 -2.9108487330182125
Ni 3.7333836992968306 5.294377191194735 1.2083302428784561 0.1121918862149229 0.8735649520570311 1.220400083646279
Ni 6.104979994501163 5.090175135280253 1.5102830200689794 0.21954907004536384 -1.6891224743613427 2.0464968149190175
Ni 4.907268742311157 2.845422469869443 11.769805895114075 -1.615963019458533 1.9776732683874003 -0.14104094923613128
Ni 3.713362612945381 0.7323707805272919 7.889202086782577 0.22250403890862971 0.030896689578856468 0.946461383106441
Ni 1.5821682096190464 5.268662375825122 7.268340942310676 0.29471861339966665 -1.8402380342246565 1.4842785717366374
Ni 5.615440244163377 7.202716063636952 4.545255497109921 0.7141449860930797 0.31568673101090144 0.34756995287274334
Ni 2.2249362555926933 9.085340120709557 4.311649796486447 -0.1749203755923955 1.127751409670606 0.6753226139092434
Ni 1.1034670120691035 2.06168811330232 10.372798311374419 -2.653959531761494 1.5126159852287497 0.6241100955911703
Ni 7.405020209878712 2.1117594361385192 3.2855998224546643 1.1599292799547314 2.5248456729802515 0.1687193889880062
Ni 1.6964707500065501 8.800086157595342 1.983990110205606 1.2612238025308602 0.34534980529297293 -0.8934213246613257
P 8.470622063281274 4.157659545937861 2.6268977083610703 0.42464288389734606 -1.7346546544651869 1.022993354025909
Ni 0.5330874738479463 7.925847559380031 13.41557361607473 -0.4999358402033906 0.8166929214603355 1.748565351009008
P 6.814156272062471 4.792538241899412 12.89307815282675 -0.00010798633277400756 -0.23394159132161 0.11314447993617933
Ni 4.553913314469893 8.921989640152518 6.130443615943504 0.18178779213619015 -1.3210916825310859 -1.0166334732461524
P 7.430967612218021 1.706518507097426 5.509663411737057 0.6185426288057219 -0.20976730806825164 0.0608901506171532
P 3.6129036489941955 0.4526700639015437 11.966006959271006 -0.31027738706987207 -0.40851101133249 -0.28034563250744626
P 1.6534607675703274 9.60965627475632 6.685714304613195 0.7802318504198239 -0.8925229812167726 0.10826992545269741
Ni 5.576672648054413 2.7617190712151727 5.042015677334956 -0.13584886351223055 -0.2546855087371807 -0.61867092685347
