# total energy = -340861.68798288214 ev
CRYSTAL
PRIMVEC
9.31400919594931 0.00000000000000 0.00000000000000
0.00000000000000 9.31400919594931 0.00000000000000
0.00000000000000 0.00000000000000 13.63199393274882
PRIMCOORD
 96 1
Ni 3.837548844868193 1.4704585502911536 1.4233576046830667 0.14977035868932917 -0.01744956293501511 -0.12844691462120458
Ni 4.939498612682786 8.348323604211004 2.0321482706286544 1.9209267076249754 0.6119418356597526 -1.1010602735326651
Ni 2.753016274658331 6.202655255439987 5.869364605360757 0.03915558715353902 -0.5756306599335441 1.256440522209604
Ni 9.027650194851986 2.2513637276044305 1.9423137184268429 -0.38140592758558184 0.2139435509331283 1.4583754787176302
Ni 9.247926517500051 9.224576295898414 13.313060388203706 2.3535847485173145 -0.7352491150615467 2.7669561732658994
Ni 7.462905927259929 4.798801186470453 0.03496851694502716 1.4667562465821578 -1.1496618365904523 -0.003695960794348473
Ni 6.042118989175208 2.4637976543256586 7.845376409848517 0.07876934489041917 0.44878734235403356 1.8767333009372131
Ni 0.7667478830035493 2.5263505415520604 4.253004891797505 -1.0999798959842926 -0.24502664549117803 -0.18917817106299034
Ni 4.258113625961245 2.986965563126579 3.517845471722535 0.22693944897216403 -0.8888216211057854 -1.019271682199948
Ni 5.754381296339409 0.04347686454498515 11.640387242320687 0.8850243588468824 -0.51869743708161 0.2267018790400612
Ni 9.115108743252211 8.73044015444185 9.83339769807507 0.6046512155356102 0.2182712317742047 2.243653376201794
Ni 9.165916664607186 3.073725560820732 8.869984506288692 -0.6445107707347093 -0.09208688793493172 -0.5991994483924197
Ni 7.106523985040781 6.333358749550782 7.79332972524144 -0.47319148223001084 0.45887815093113227 1.2129197161088336
Ni 8.73176274377868 4.714742251506446 10.501951705427478 0.41597980890570935 0.211531599057526 0.411712034768291
Ni 4.148869609540986 8.738347748434585 13.443096067839493 -0.7807090471665586 -1.0471977191862545 -0.4809433582612878
Ni 4.788825882387744 4.494875745272611 8.049311302979202 -1.0833623420322698 0.9177303337203356 0.11520830444374353
Ni 0.20532361193435586 6.204303835106318 8.57333796344812 -1.1189980889580082 0.7992526144967009 -0.39625276279042726
Ni 3.070260749318615 5.9236727314536255 3.397107036284095 1.1000531724243894 1.309172819606313 0.04152228761350268
Ni 9.194967059970372 0.618149382605071 5.709883616362617 0.26143079788081425 -2.277473924295665 -0.13291086392982918
Ni 1.9430886440101123 0.5273014661789842 9.53573033980269 0.13908742505418628 1.3254383895355561 0.795761570624307
Ni 7.12513337585054 0.41409620155482496 3.669732748845201 -0.9064658165501098 -0.12809390215716004 2.5711229587802364
Ni 7.8016471356484045 9.309091617323721 1.6146552498404363 0.06547751287751949 -0.36309555931216825 -1.0415883434192772
Ni 4.870761223205293 0.7182936118275652 4.445393207457289 -0.576238468720872 0.30983027223012444 -0.5411614225120809
Ni 1.6223886718571252 6.121092474999011 10.464013882281174 -0.6121007298351201 -2.1488912554275443 0.6617381903565893
P 4.654620320737176 1.031573112680184 9.482429058127508 1.9939545220459272 -1.0800368772034628 2.0864360743161163
P 9.21923005449461 0.5006205548107963 3.628046036909643 1.646002760353733 0.2399703140141932 -2.1740376727861848
P 0.44441702780211917 0.6861155721030607 11.546448937570936 0.9441882708015481 1.8105443638149656 -2.5455985892568864
P 4.882822865396804 6.352964739367872 6.49598601092907 0.9942324798431329 -0.16339206323782182 0.2669463283824048
P 1.935711948553991 7.76851720416176 0.06192139738811249 -0.7951555616091919 0.5129849600778649 0.3587025724507951
P 7.113192815781415 4.067977437777838 8.828133867787443 0.5057725014898257 0.9809964407688331 0.1697632568714883
P 2.499610020523621 3.453066536246117 4.787570353918698 0.8392826338353934 0.8533470823482593 1.2442630063068054
P 4.093516451591833 4.529346894114915 1.91046912023937 -0.28212560722600444 1.3214241261698403 0.9639654534284753
Ni 8.43103200780994 7.167558688732651 0.7527275046322119 -0.3572519560471976 -0.9061907085118522 -0.4375881312041044
Ni 6.828230697751076 5.8817596890893 11.400940825496122 -1.836384207696205 -0.6331092137659871 1.2538208251985696
Ni 7.5993841072075865 1.811947391456846 13.353588437368124 -3.2212629027762647 -0.2160927360656472 -0.25638603636805524
Ni 1.0777333433374272 5.329159510539209 4.482186338846576 -0.79561193242032 -1.7048895073876122 1.051731602500866
Ni 0.3101146004536415 2.461105905604928 13.376857627087857 1.8763844022382266 1.8508132386373415 -1.2854657057973602
Ni 8.30411000152135 4.151151541847487 4.046848607421511 1.2499217472544797 -2.19295096475092 0.767497176461975
Ni 3.445978575081839 6.491324349217216 0.8264739683727126 0.4974138451124853 -1.0333551568762074 0.1537296004473933
Ni 6.3356499958666985 4.601008882548496 3.144819394680042 -1.5919800262803743 -0.8508911646085991 -1.1987398250640258
Ni 3.9641541748366977 8.601972022590486 10.528970715337405 -0.17466609348974432 -0.3053079588797387 -0.7728908366737206
Ni 6.898877459158499 0.45136248462235856 9.658336234128699 -0.08822509098668031 0.49422413453059405 -0.8984524593273302
Ni 1.4031182622258047 3.91191189603192 6.882330190033064 0.8531578491555887 0.1417865691529042 -1.2154836201812678
Ni 1.4401693916758682 7.632178734355317 4.544321027050276 1.4840335456053668 2.7061195015945008 -0.6227826350289984
Ni 4.4532328091813005 1.531921698416083 12.58051727337321 0.8106688267534427 1.882705716470564 0.43033967717180727
Ni 1.3456228821113647 8.582738593149967 2.097282069863757 -1.2929887536472828 -1.223327541705719 -2.1109237750448355
Ni 6.022401231245146 6.2550093023577364 0.9834774308666502 -1.1176873405663847 0.600505825908669 0.3175117000347822
Ni 6.369916236501888 8.077351128320936 5.359772796682113 -0.05703786675059854 0.019386117836095645 0.8569499692081692
Ni 2.0431956171949492 8.071436732342859 11.569473168843071 -1.2623915975867162 1.2633986986949919 1.2309146100243575
Ni 6.491370919264288 2.053468969578916 2.165278995592814 -0.21887132725204886 1.9108454121295733 1.0944687363580763
Ni 5.8298713426422655 8.407635216161232 7.860235049067142 -1.4895729873663572 0.7781307449164212 -0.5490004589405254
Ni 3.1694828916090936 2.8410895476798994 11.116345679436705 -0.4925197502449776 -0.32375896649607466 -0.37225794253772665
Ni 6.490821392708844 4.592039491482531 6.477214556355501 -1.042719628810243 -1.4955418033552823 -1.2611705806954217
Ni 2.2721153405794787 0.8342055275875184 3.1403887204016616 1.234337005442345 1.7225828109023174 0.8208462815070766
Ni 2.376450874038405 5.410759547017843 8.240336047660733 0.11100815031946688 -0.15751169319764485 -0.08115944238915054
Ni 4.385342994560508 4.525416382142082 5.165122108135597 0.7563231621230265 3.2729821855274275 -0.3954960871300608
P 1.8094419229244008 2.345789155046548 1.389140728297773 0.38096086962836323 -0.027672011993971696 0.10931379333617948
P 3.7814598801753116 8.206368786727742 3.667538368227193 -2.4314462368814835 0.33090483351223654 1.5041639978066548
P 4.190028217142753 0.8518136623852421 7.293212126939015 0.26551242414935566 -2.235825652627259 -2.2861323713016115
P 1.672460786468372 7.810951831053285 9.262108959635196 1.1832826099686913 -1.0359190609486417 -1.2536727296564796
P 6.832412687978094 2.871276252191628 5.122044814594484 -1.006093750057093 0.3837327759465456 -0.9890730471293804
P 8.807671920505179 4.838823484923677 2.10043113644673 -1.3907829763796369 -0.2964805903960958 -1.7380528815134586
P 5.835813680648585 0.7847239211731376 0.7155105858145739 -1.0389393358322043 -0.8980269417541372 -0.9894463713083991
P 6.483258417064437 3.554188736457112 12.018715784922737 0.9981752665409648 -0.47755747250819036 1.4292104271179
Ni 1.6394519371041125 4.831428161448728 2.1610252874933056 -0.41464412081342134 -2.0966112150769054 -1.9856539726000317
Ni 4.234521240114837 2.624585398844624 6.129584988782965 0.3934836846857223 -1.2150951264935976 0.8380374485743826
Ni 5.2757250385294014 6.804032901292739 9.647907337787512 1.2460761482561444 -0.4657036584933979 0.9185451163121472
Ni 3.281912299249042 2.238622162725676 8.578150512112487 -1.0631812390987043 2.724840732153088 0.004756797958695033
Ni 1.1421304044278593 1.6668537528009668 7.427528525301615 1.7839419307360889 -0.35631658871712185 0.7756894824647802
Ni 3.1129002844172544 3.5067524865101105 13.434111774358465 -2.3906610845443215 0.39254394648027235 0.4848784316496359
Ni 2.4420960123903526 1.1434902498023463 5.436698131835711 0.3734781880980729 -0.43807638369443264 0.7329454066290345
Ni 1.831115622831464 8.684373063878748 7.1877821973739096 -0.9095547398880787 -0.6325209453626849 -0.11479024306971843
Ni 8.252184399036658 2.3050589918778384 10.996670903873376 -0.21774081319203148 -0.015396022840096064 0.3888320448463239
Ni 7.595295257074711 6.131216803232348 4.720991020422496 0.2801090910166079 1.3735699549354603 0.14805183333632568
Ni 8.666937238255189 5.090823323636828 6.502965929584143 2.1859696483370805 0.9754965939965264 0.05396488425222964
Ni 2.14602228112876 1.2252393104316088 12.858760265012076 0.6407644163183996 -1.283821485325718 -0.1474134284213784
Ni 3.472886748279736 5.6066797350475275 11.816049459874279 -0.49281234178473193 -0.6826407448372114 0.24362693693017398
Ni 0.8358690096689114 5.321074950367602 13.311696817225453 0.013435042458983314 0.7890180812528863 0.27695871831308433
Ni 5.389281441308481 4.360353507301956 10.386666622501107 0.42391577592333446 -0.5372518030450296 -0.2481559351487791
Ni 8.696127343759589 2.7754909793750233 6.378396642073603 -1.523303546849583 0.79738316538813 -0.49401201851978793
Ni 5.260990275635988 6.578987805824556 3.796878291359735 0.47563711555702604 0.08053774964475162 0.2158528521406992
Ni 6.530024058333609 1.0638927253477857 6.247365294831425 0.7671518773074143 -1.45514385915421 -1.0926000585804538
Ni 3.6411908983960366 7.342540983599002 8.135451919047304 -0.29350530981785583 0.20538049185446566 0.0279373498402164
Ni 0.23730792026304307 6.738974545533892 2.7553261489930754 -1.3058432410124479 -0.4178286891889901 0.3830149239439145
Ni 8.678812600258416 6.946024974813658 11.848983797163225 2.3912832915093527 0.4042779470877489 0.35249798630198004
Ni 8.185859337997465 8.545901685916434 7.872844355012213 -0.4235514506053802 -4.290896582368533 -2.92168079063671
Ni 5.210471088572855 3.5403015484203997 0.5147247592668625 2.7212915813492486 -0.6508801645961629 -0.8352498585269165
Ni 3.893637809561074 8.29459108389994 5.889375754587369 0.5199958441780592 0.8837238948679039 0.007281107042445525
P 7.633352299541517 7.169989645189783 9.85662683755432 -0.6218087011515033 -0.2895530100383272 -1.342663752274907
P 7.135127307952078 7.587965131665662 3.19614331215657 0.10710341594842199 0.15101245862654636 -1.4379146397601172
P 3.363707929925376 4.531293522082502 9.865133322352394 -0.8941738865566342 0.2099956220289738 -0.9575158411483897
P 9.281512835447996 7.298746511332989 5.93111741917847 -1.365115910630836 -0.8486347644742545 1.4391330855482505
P 1.2318522571157577 3.83454973383679 11.83291154251792 -0.08272395866279302 -0.07250099538320416 -0.9361247770671233
P 8.475552972810267 1.1034772653585372 7.7726498301388816 -0.9913448738826928 4.083783166983361 1.434287070309859
P 4.976624254208164 6.8283331518546335 12.517823744604652 1.1848255289757788 0.8367932917546362 0.7619477073986555
P 7.556595547958318 8.638427055438035 12.41184894548881 -1.1900399832971829 -0.6164358668753642 0.3436356508153437
