# total energy = -340891.90348556696 ev
CRYSTAL
PRIMVEC
9.09814503356443 0.00000000000000 0.00000000000000
0.00000000000000 9.09814503356443 0.00000000000000
0.00000000000000 0.00000000000000 13.31605491121520
PRIMCOORD
 96 1
Ni 6.770047822735757 2.2723981363658425 11.562476490862279 -0.6025123148157365 -0.26643005086761856 -0.013797053784092368
Ni 4.599012117604281 0.4109231688500995 6.2140565546534745 -0.6558454790212382 -1.1280054346629411 -0.545202425350674
Ni 2.7065889007314943 1.258182444610063 4.583452470364625 0.8883238555337605 1.3562929130225674 0.7649006193793922
Ni 3.3929711408520555 3.9877441609655393 4.788666585251072 -0.8320305802586704 0.10261195583597166 0.2850353246736317
Ni 5.17338709707263 4.550473515087869 2.9656185421192687 0.26323828340319827 -0.9761465688756996 -1.29843743546668
Ni 7.185132483018097 6.13117609476903 2.788342100475024 -0.27302518758663297 0.2609921676814989 -0.7336048945899043
Ni 5.206622620032791 4.695716298700241 11.457625830910988 -0.38149925863033657 0.07304246970897098 1.1567637377425564
Ni 5.9536712896902655 7.796919033910529 12.652436057720147 -0.8519833692315133 0.09345934280242614 -0.5036271730120488
Ni 1.9765173692737616 6.606945380877888 0.2924707824204498 0.2126891097007369 -0.08223622039309708 0.11375100317192666
Ni 2.7322729635063463 1.6316521905699912 0.39932940292945013 0.41121838296132407 -0.03530304617666823 -0.010137602654634153
Ni 0.8610083921841064 -0.2516401281799332 4.357812110584158 -1.9701733604659297 0.11758811752982974 0.24242803152606635
Ni 8.772094586322742 2.364707913522641 1.3269234776583767 -0.08208658218911025 0.46149733372153423 -0.2916443453497171
Ni 6.722855745649977 0.59619506014597 4.938099064544571 0.988342339610943 0.2345637982866412 -0.14106048962015705
Ni 0.9162377703875986 7.431146318452734 2.398274608953579 -0.9857766357662957 -0.7486173088383365 -0.03637545330524058
Ni 7.463626695394365 4.025428676733671 3.956173598504068 0.7511904688821515 -0.48767733455101164 0.43868393537144446
Ni 7.511137207548199 4.137344955937867 12.88369543173007 0.985443420796593 -0.2357274795774392 -0.12679729483292357
Ni 7.788412268521055 8.379282184514663 7.195489811060212 -0.02818366152306759 1.935687667984234 -0.2151213732913134
Ni 6.882164261125588 0.8327513740593689 0.1523502543313647 0.7186647283403044 -0.9164838629077442 1.5373217155055459
Ni 2.0253107198446183 6.756819120194264 9.233964636618232 -0.9616054378367311 -1.8293347570485914 -0.7961639482690481
Ni 0.006777208062694597 4.834117277421829 1.5648627095816157 -0.24169886666952567 0.04809736972785909 -0.0638579749962255
Ni 6.298836707172487 1.8407821469790366 7.080132613492059 1.9637260621786887 1.1394566139226763 -0.20425846243488052
Ni 3.6037660577597896 4.384405078024687 0.6215015499115562 -0.2186368426437396 0.3168622393762414 -0.41391778417035807
Ni 5.807373121280909 5.732504487708734 4.933078708243061 0.8920151883424187 -1.1584421538862437 0.5739823256968438
Ni 5.221689147824201 2.8708195125447586 9.675005394204991 0.6459508456153455 0.3487261779643736 -0.8648944208662266
P 0.2399844948746331 5.464081921627812 12.728124434138945 0.6878760250942217 0.3396046752790796 -0.862539804591121
P 4.075332000970319 6.281168109967825 12.763891060982905 -0.048987742752612404 -0.17235030087237416 -0.07374283821010524
P 2.4912176169885676 8.600703734550638 1.5464862767113905 0.636851968637871 -0.1299569235078278 -2.105597477735915
P 6.201959661325297 7.724261249525137 5.908319767297845 -0.8522813600879063 -0.03944149382507401 1.0669296503975432
P 4.978723190898092 1.1131307220385231 12.40873860995199 -0.5339260811059062 -0.2361108310587869 0.9756364620085005
P 3.9167149444996285 6.568332854339996 8.194766349051804 1.0725714220643527 -1.646598999176835 0.21243765581156318
P 4.754599491856047 0.8934359998858866 3.653925039865363 -0.2261105253129654 0.5642614988646539 0.19694418816165438
P 0.07609961256382927 5.737544859928807 3.645496518521182 0.012002166667198685 -0.8854802154373781 0.3579700651601448
Ni 1.481041501524688 1.138014148070836 2.4452674366682032 0.22975557826472046 -0.22126091053014796 0.05050546494871947
Ni 1.7256997133838912 6.43593665118745 4.839187673519747 0.2817394275311793 -0.1412504941437761 -0.6723432195659453
Ni 5.9210999313006205 5.795163410957193 9.429617511132701 0.0777740708566854 0.6097036903578532 -0.5975269457860032
Ni 8.494510188426633 2.4380844513473585 9.934509048936928 2.2558676588797986 0.48544690255859624 0.20998508050601256
Ni 2.508003694147477 5.149595448416506 6.90894192090559 -0.9157960928121002 -0.3605684220149403 0.8205981700520125
Ni 0.4972609237591432 8.996764174052881 8.80445577756747 0.11116550183293758 0.9663599218025808 0.6740769144276004
Ni 1.4337311485564883 1.209907688292896 11.108119688543932 -1.7846168453159266 1.331120784632314 2.9754430719598304
Ni 4.171817826591043 6.833152555079494 1.7971883861622813 0.21999181400973722 0.31219080204250105 -0.5688532320003945
Ni 5.5689562367555885 8.215715737271914 8.356263878166672 -0.6074022959181862 -0.7727627957362885 -0.6016736209645251
Ni 5.373164160625655 2.6886018684587776 4.886871960239292 -0.19943404446304364 0.051239000680634327 -0.2969084219621338
Ni 0.8168359893579706 7.445394013212005 6.835609963990399 -0.16214302132206915 -0.5624205890011733 0.5916308920165424
Ni 4.875477443689798 4.667675816421783 7.281937653521355 0.2380188467147772 0.39174921849311883 0.1799471393830256
Ni 8.409360651228674 7.070805195441483 9.12807587834508 -0.9935138565095535 -0.1696303308380498 0.7008534111904963
Ni 4.6948428767992905 0.22892933912623706 10.475447436445 0.010813802786052344 0.370725050832968 -0.32683811964203063
Ni 8.013427585753654 7.223281004171109 4.827122623698377 1.0361082941413124 0.36810329693940474 0.3459370452550107
Ni 7.1152132402179795 6.0565258166720914 7.129282611339137 -0.04150146167789626 -0.16857823542445158 -0.22032502897943992
Ni 2.21728157515789 5.205940259172672 2.607283560036764 -0.24683078857945234 0.8752618801434797 0.3360694084323115
Ni 2.348049210390954 5.239694376386522 11.421472532912961 0.5892104555005078 0.5430804939116647 1.5088925136305755
Ni 1.0422379777446364 3.0981184641225528 3.626334915754581 -0.9742362392268639 0.9636319813484565 1.7983408797702383
Ni 3.681336840338034 2.6181640314049694 2.593341562942827 0.3858495651792323 -0.23605786633366443 0.10561371877677295
Ni 1.0405457228115431 3.4809411029385022 8.261240124415563 0.7218251283461569 -0.6333565538901028 -0.24690689323302636
Ni 3.6860587774900524 2.5795424067222754 7.143451152238633 -0.8222017670937066 0.5415784554448415 -0.7387563568838568
Ni 3.9165875704724065 6.779209654550944 5.836240624921833 0.26613694510723196 1.825169312816992 1.1010960118666069
Ni 0.8404484045615029 7.23563628481165 11.234036192968794 -0.8288411267870952 0.3710472100590771 1.4835188107524773
P 0.32803361082085336 5.565335175124561 7.993254269285118 0.39781496507122455 0.4275883396789152 -0.6138272256079235
P 8.478033448190978 1.5179708712742883 7.781728771349817 -0.8017910646478386 -0.16856537990864517 1.358249008307674
P 1.9023492928513073 3.3755572917018375 10.442250125693008 -0.8175688963073855 -0.550057182339814 -0.9331127297136769
P 3.7957824037970695 5.916896588402292 3.8444511097841443 0.39363100889686403 0.9977381790035462 0.25310787983741573
P 7.093714324051853 4.1280648482402595 10.4502928856976 -0.04145955269636731 0.5345459740780923 0.2647261808026344
P 6.613768989479071 7.863808594491722 10.29300415836794 -0.5512028659084829 0.13231796754083663 0.4488490488299044
P 2.387334999644163 8.51186035056324 5.785146353530657 0.7948863671082053 0.0808586233192801 0.3620576049659571
P 6.984791334487374 3.909663882278407 1.694081840569451 -0.4117215478499877 -0.023071022886850586 0.5071472703501653
Ni 5.389595410137303 2.8102713588902644 0.4976130219629642 -0.21504372597584256 0.3585156532509696 -0.046120448507146375
Ni 1.31367202975488 1.140934652552142 6.866090568704642 0.5712487288157646 -0.040404114848659446 -0.34923654194188886
Ni 6.926217478254824 0.9416488888184026 9.447181479672146 -0.9430356452543437 -1.2845596490433233 -1.3227060782060576
Ni 2.760841138183298 1.6204432761744483 9.339228352343516 0.8336719725168351 0.28005818317401443 -1.5445421445133853
Ni 6.579696437197166 1.813360338547084 2.5989478397695587 -0.2859110424103657 0.442276023598077 0.2047747399496667
Ni 3.9619964111770765 7.048078029727144 10.656425913209008 0.4321829010281331 -0.5446851193946233 0.09738078934401939
Ni 8.166149044392922 7.0558478453876905 0.5059978722120975 -0.17454190920705423 -0.18025052955605733 0.06868136452679784
Ni 7.764602423575329 4.1157550583237255 8.376464489069614 -0.9541230134167569 -0.4640460682853169 -0.9834212481602417
Ni 3.1698482377381847 8.687154306455222 12.471643183110093 0.1861139303153698 -0.6236529534490936 -0.13309341225428045
Ni 0.3486263517647425 5.10218501585549 10.141373567290382 -0.5741934132663853 -1.3576309151077006 0.24340299384482597
Ni 8.548061868728714 2.613351112804935 5.898852237817325 -0.6356826309201181 -0.5125982661624074 -0.39248301133534985
Ni 3.7198947780071165 2.706834550641137 11.475962231944086 0.02571823070171055 0.04644697860862969 1.0585483683123835
Ni 1.428708972626018 3.2846668251340847 12.679693189731191 -1.4016903673207601 0.4806263412415013 0.026666710657908915
Ni 2.930130318506238 8.516791545045695 7.99846113755506 0.820497125697774 1.129160888423623 -0.6319599306528922
Ni 5.463545131084519 7.912447276600953 3.879339765654751 0.545598375237512 -0.2954603766616976 -1.5064517653995668
Ni 3.1364489481715965 8.123105721336664 3.616507099739918 -0.28646074426624857 0.2977324605253259 0.0695910208252608
Ni 3.5323274247778085 4.5533940195691756 9.411454884665314 -0.1807845476826564 0.23365722731197178 -0.5933769281733716
Ni 7.564015625134964 6.1712625207647775 11.462579770755447 -0.3689193650827969 -0.1706114638043965 -0.012973272331216368
Ni 0.5376858007415095 -0.3496599010142016 0.04998975661226402 1.2206096285539236 1.2858961084665597 0.07851840522187768
Ni 4.61314153648113 0.3379997186365007 1.2923032170594166 0.5907667442440342 -0.5295971147132492 0.6388222049903642
Ni 5.966190336937235 5.641404763810544 0.6163610980986651 -0.4157849192860839 -0.008363541473346886 -0.19739233144266652
Ni 8.18996798748345 9.111701037331201 11.337195507801475 0.017034586884783563 -1.4437960382415584 -0.6453582063366692
Ni 0.17452789209968844 4.861602772867393 5.905430196508864 -0.3697698860085503 0.625007153484143 -0.30946414713995735
Ni 8.421934287344454 9.232979307536223 2.2619716624232353 -1.2612986216328537 -1.2771602712554586 -0.40963021253859777
P 8.464750156780676 1.537695649204107 3.86225526934635 0.3447515095873418 0.4515983294402674 0.12373202564403851
P 1.8389443217291181 3.3870027578622213 1.6405774706203382 -0.07425911572489147 -1.5969959914377272 -1.524847237187619
P 4.797451753871474 1.20664145430913 8.35278838685247 -1.1069226458507129 -1.1270806088558267 1.1917569659882896
P 8.747684263820112 1.6218716849082961 12.54639990950121 0.5243037275247938 1.0658173911699709 0.3045183730989078
P 6.508421570821612 7.937176034171639 1.7043481871635506 -0.5107979797288752 0.25817038196198766 -0.6083564323013394
P 1.6807457799193 3.1392784712048867 6.055768851024601 1.0746820406494524 0.1425869535670125 -0.9259092699867021
P 6.613960050519903 3.981220791142808 6.259424453706537 1.1577654395341932 0.08442191519050622 -0.7819359775951243
P 2.118593998495186 8.630518355065405 10.227662192217496 2.22020465826055 -0.3153573726959408 -0.0687142746472623
