# total energy = -340867.91885875724 ev
CRYSTAL
PRIMVEC
9.27178597736408 0.00000000000000 0.00000000000000

0.00000000000000 9.27178597736408 0.00000000000000

0.00000000000000 0.00000000000000 13.57019598436201

PRIMCOORD
 96 1
Ni 8.608361743763558 2.4237189917289235 10.10972811645367 0.6607544862870814 2.1783638109653642 -0.5660263040745607
Ni -0.02140577195879455 8.33049559405458 6.519624029669876 0.3545091031947379 1.8693465215548386 -1.975194982050237
Ni 7.2724921123471065 1.4445998639112678 3.39530386637652 -0.16485450671596125 0.03697991965845889 -0.2790899057234742
Ni 5.150439944567306 4.591082376887609 12.920087994958397 -0.572553306559801 -0.3193731787235532 -1.7349343904891346
Ni 5.413805021229305 6.321642659542386 2.5794228728029585 -0.6511295616028077 0.3774780532860854 0.7762324994524438
Ni 0.042896844347277197 8.220689834402828 2.346178119606693 -0.9481354283747544 -1.6097918576508148 0.6847539345254723
Ni 4.73484141626956 1.0124882850402062 10.689799780868821 3.151451538410082 0.2626482152276831 -0.898202290989737
Ni 9.022838385975188 2.3561091294152714 4.321333675677755 1.6075994779851863 1.291311623055176 1.3060640987740022
Ni 2.9503193400512244 6.173025204382548 3.840026001162667 0.2049130652997439 -1.2316738567878853 0.34097995836005146
Ni 4.290861951528849 8.306908170888656 3.7481833993889255 0.28266271067639703 -0.6946771071764553 1.2711642015730236
Ni 8.227078094843598 0.06563589910924005 0.4747311968218526 0.8379790845326214 0.5936839178908292 0.5125062206692335
Ni 6.735887507108126 5.127056500689764 0.9127896991279083 1.0531017433755154 -1.2435202146035098 0.7438777372708222
Ni 7.247819890238408 0.7071739405433337 10.572647985299472 -1.5329621529852695 1.3249755909665246 1.995360144144202
Ni 1.0949330046909191 3.3910907668927948 6.30940853813223 -1.0875843505334173 0.9343131777796814 -0.8612509105763683
Ni 7.101520381537487 1.7030508940803666 6.018096444604375 0.39599745224651156 0.3349514927777844 -0.4509110735652556
Ni 4.50129440285505 6.428249653080836 5.945713466942523 0.4696032506581202 -0.9966128071498513 -0.4117164056436652
Ni 1.1650184338226939 1.7368372816655213 7.829080197597691 -0.7999149306710481 -0.01702301692055778 2.22158405510658
Ni 0.5758910161818508 4.331750527064122 8.75159600006721 -1.28348595636317 -0.9306046185798424 -0.9162961723769704
Ni 6.4952661211010065 6.063803567238441 4.845944298759723 0.8058174121984121 1.1029256088761779 -1.2035747845588238
Ni 6.871385385310501 3.8169995210397984 9.07733423440288 -1.177677347966772 -0.7488888173321683 0.16401812685759495
Ni 7.940116323229837 5.722453499912683 9.723574925612821 0.8689372234770324 0.14434070303332563 1.336581293526253
Ni 2.9747597675140316 0.05804879675991725 11.537475582430037 -2.8864970436467257 0.015848022775850124 -0.6351529836688933
Ni 5.4021318428622065 8.022486868593864 10.63653615277869 1.6680574261609271 0.5236072156784015 0.4850339833908937
Ni 8.713828307644222 6.844589924245436 0.394797276775437 1.0716823345911801 -0.8689824748926712 -0.09246741120280205
P 4.545539364862833 6.569394048857131 11.94922261089165 0.22379987490191783 -0.9296430259975216 0.5170071938633805
P 8.508254272095908 5.729240447144387 11.913288877706954 0.2158813913857895 3.317234984698216 0.7233335945708833
P 6.328642857848312 2.8274959930862 1.9613276146757548 -0.036905100556465474 0.5360269294989929 0.06307327431140104
P 2.1173235570036133 2.2208430458587873 11.369096242940069 -0.18727812582680003 0.6024218119844592 0.0534015555495919
P 3.184283583828338 2.051670041501285 7.229467317355297 -0.07703899246287377 0.8164707781472003 -0.8861654144298609
P 1.679667450202825 5.856467892381351 10.073698883874869 -1.0024515253188155 2.269554155227956 0.7153850291477679
P 6.501997437617698 0.582483255911007 12.782948083484529 0.14807600170604174 -1.0625130093870863 -0.13634097265730066
P 4.236584917246879 8.447468444157302 1.7100344031717876 0.6061272858605046 -0.8484051649619517 -0.7994464756750619
Ni 1.816324301634658 3.552299307217463 2.1335195125013486 -0.726698140167742 0.10857537250825817 -0.3186982641437156
Ni 9.287455153725002 6.8756689503665775 8.099099634953946 0.9291884549586062 -1.5136814503787868 1.731211947332225
Ni 6.341020691938922 4.579223762803796 6.681069000533354 -1.4525352178867694 -0.44744676916573906 1.368518508554482
Ni 4.294783916937335 3.728398335594205 2.4235558082982163 1.092886479472621 0.8237269454889813 -0.03828629717470825
Ni 2.4460547238070354 6.927961822479715 12.350058601781853 -0.4189352919896076 1.0853058389118857 -1.0733800340085773
Ni 8.458381336085878 3.659073192900955 2.3515381389982895 0.05772512262561026 -0.07984406601183669 -0.5790677106395511
Ni 0.7103532359063824 5.784083060362332 2.605545202216355 -0.3432502424514669 0.4966509988045318 -0.9318099517418533
Ni 1.2474631534734066 0.965786299785973 5.6914347403994725 0.9106878250512574 0.09904095065526168 -1.0288742382867184
Ni 6.49292963107042 2.7327754289890693 13.262979960268629 1.6913981577693968 -0.03636516889259543 1.4842991405619277
Ni 6.032103331466311 6.5711278728083995 8.583447528044548 0.005319869551016644 1.1016930220206573 -2.1360390820552246
Ni 3.026997008912155 2.944858258194019 4.2605395031318976 -1.9064809645132907 -0.20202006002266495 0.3004822553563212
Ni 3.5919176480932498 9.223433472529752 7.980442101364885 0.7307519985221415 -1.0778416693243567 0.7120608498705414
Ni 2.741843235536348 1.3954872143397623 1.2440437188572142 1.6819598951746322 2.343474913776822 0.3898201197912061
Ni 3.076183832770346 1.6181306076115316 9.526834120430145 -1.7304632420916586 1.1576255715222192 -1.1285512798640822
Ni 8.358153331202363 4.733608268753416 5.803226516577225 2.0087550773938694 -0.8199805910726716 -0.2740364024599668
Ni 2.759533802910792 4.589728696155602 12.517800042406328 -1.25756049474666 -0.076195670625972 -0.835325191849542
Ni 8.860943733498681 6.6341203857758915 4.57106644562558 -1.9473720463006978 0.9585350264415234 -1.5579473621756974
Ni 1.211164111926787 6.174045100824472 5.994932742051138 1.8043261508193957 -0.813424792232025 0.33966972418906016
Ni 0.6868576034202296 7.711474084522394 10.727076995821102 0.19797674319122677 -2.4932319027297125 -0.26536998503422043
Ni 6.790359248892645 3.6685025990958238 4.1758074339155264 0.7507754928319199 -0.4574031090475026 -0.5058987426550448
Ni 7.937585125696701 1.2047387643426728 8.307036121533187 -1.1082508777438334 0.040591291158801064 -0.8095352273696316
Ni 3.7160205015035954 0.38380557466725884 5.701436215780402 0.35678452949247585 0.45718945037479974 -0.07355051969364108
Ni 4.975397899775829 2.743493613415096 5.598465616646698 0.01951133056005027 -0.9288878929990518 1.0757637037494054
Ni 3.494981127181396 7.288059440765185 9.744187959882666 -1.3775186551705632 -0.9960872736636845 -0.15368794857618048
P 4.932868218147644 4.518679001296919 4.554089805760481 -2.2523961553914305 2.1709315230570354 -0.12662477381080128
P 0.35679129945647187 2.3939751027681178 0.760598897707006 -0.4468243050903917 0.523840157624814 -0.3643875386507144
P 5.922010146453651 0.06132266433848975 8.824860724562033 -0.9467336629312212 -0.08924273361791728 0.5910559933496788
P 8.165615426538992 3.225097985076925 7.590162965827167 1.3428434723858809 0.2526355681866875 -1.5163628538656917
P 2.5795406244830716 0.4828866596429015 3.8138489682128403 0.40232699400896516 1.7789758449800654 -0.9262692244292821
P 7.586638760031032 6.598405466736919 2.407298659013965 0.7175681528420158 -0.2766591847947945 -0.08849762792177662
P 5.88449650096256 9.068214505854922 5.211891486728911 -0.737489317245975 1.0561778111976778 -0.11690034743418577
P 1.69085849570647 6.376281293471947 0.6977278451339605 -0.8087217303294008 -0.8684492280970205 0.8011963684866331
Ni 4.532271439332 1.7054615583976387 12.936494419994604 -1.7770984254516944 -0.0022335173162090567 -0.05441636996735145
Ni 0.5764686484394126 0.6293400799886958 10.788942986809563 0.5073655570085585 1.8842422077197485 -0.058115158975177335
Ni 7.003313625966146 8.474319535937381 3.488205306092693 0.33502476921788105 -1.588677958490335 -0.17884696434031136
Ni 4.848207541682208 1.5300857293160783 3.611368000419303 -0.2359074567987292 -0.8087898645631748 -0.5583682733086707
Ni 7.2948927469260685 4.163411983431829 11.575756931788321 -0.06175944059598397 -1.4112566708529566 -0.2011633684493245
Ni 1.4342803662761752 8.043821247801725 4.325975131667088 1.096033509742035 -0.3158101439626432 0.45014668459540536
Ni 3.187630698515012 4.187462995889539 6.385645797165966 0.8268192112610601 0.4565885835660072 -0.238876309619066
Ni 7.831015219301594 8.11461133265701 12.030874592853413 0.11749452937475892 -0.7607734845848962 0.15147679985747461
Ni 2.3278950851173494 5.712477058353509 8.047166508131232 1.115042703854686 0.40943506580865613 -0.12455349310406935
Ni 4.221165937402173 8.565470462487783 13.154622453564405 1.970478550411174 -0.7642735273183547 0.926780873958378
Ni 5.234201257806682 2.1585459168289693 7.844496395906647 0.8008886074382272 -0.7701502978141059 1.2825724434099652
Ni 7.764629232718249 8.067019255962553 9.646264920957899 0.3682303094355723 -0.40391207910789795 -1.840576648510998
Ni 0.6735544451032207 1.079653101633747 2.3023605869259343 0.22271589780911963 0.49142548873953434 1.5856389145536949
Ni 0.08543208904696356 4.387353426720591 -0.10557318941777372 -0.04033932304899504 0.2409982410580753 1.6358795558768018
Ni 2.5649282900060673 4.068264917186259 10.092561404978941 2.7959867561702945 -2.031632753322991 -0.7588564700678415
Ni 2.120207082398504 8.64497602602859 1.0525600162433568 -0.9785803751281728 -2.7034257568124214 -0.4825940064908334
Ni 5.92443008255676 0.5994051922396751 1.6776832880339931 -0.48008538113636673 -0.2415633695329259 -2.074269871267228
Ni 4.501822894647684 4.616023480785541 8.30011566058545 -0.31005704352894986 -0.22215102644458515 -0.32765624466795185
Ni 8.68484470512194 1.9343077763934664 12.446000260073541 0.2776061220890961 0.43936553481950136 0.2663747721496509
Ni 6.974376382373043 8.733827549691746 7.046880820429341 -1.0265828711493805 -0.5807227297444708 0.04943588603362454
Ni 5.446692045588401 5.240385538959069 10.264007851223347 -1.2568300443385387 -0.15089727320492077 2.5619533764658264
Ni 6.446635604392956 7.4777323636053366 0.5361382344114468 -1.1986634633001358 1.1087851529807484 0.02313247225240532
Ni 0.5615336558153271 4.153936218307782 11.212916719252664 -0.20902297370305936 -0.2845853816204067 -0.2287093963883932
Ni 3.9005568549907905 6.0236011038550075 0.7077469369079776 -0.44273239440920525 0.9308882112585324 0.47156217415670393
P 7.548160848813032 6.690094156865788 6.768324849854192 0.009577102165473828 -1.4421929554204969 -0.028350269007918916
P 0.33611336268577685 9.244934743882654 8.720058947725787 0.12447070358227594 -2.218666110128837 0.15367972104606437
P 1.0117372703875174 8.902193908681546 12.691987228543757 -0.7523109556398399 -0.6778134986518971 -0.06086829624028227
P 5.660731221604675 2.9064545212627038 10.926626224933404 -0.09466210486127569 1.0007245153253796 0.09011999401654802
P 1.0160208354435936 4.403801574793057 4.2226104816353685 0.2508687060942518 -0.35751112324585527 0.7352596565845079
P 2.9464159182144103 7.401842796540437 6.78420185591918 -1.5555438949405274 1.0954043607984685 0.7356931445775007
P 8.952873490059279 0.10126922643285906 4.3960244008341025 -0.8764283896477552 -0.08024155856057147 -0.37384534162950456
P 3.3571282153767625 3.397265776259346 0.4933813940302882 1.019963823170966 -0.5495589025471568 0.4617955816882434
