# total energy = -381168.4956542427 ev
CRYSTAL
PRIMVEC
9.27016905424321 0.00000000000000 0.00000000000000

0.00000000000000 9.27016905424321 0.00000000000000

0.00000000000000 0.00000000000000 13.56782945393152

PRIMCOORD
 96 1
Ni 2.6652199956422202 3.3215665152904363 8.347064290764191 1.7128642980629727 0.6091305914632026 0.6085549214653906
Ni 2.8252138458527867 4.99536045540686 10.233142324493626 -0.5205848839123098 -1.0496608360147663 0.5068978733435205
Ni 4.599830146180701 7.719844642740148 7.380112408941445 -1.2645019590614996 0.025284742708717743 0.8911327857374652
Ni 1.042282203753108 5.2428647028587365 1.9793025632651846 0.36451737936035933 0.4672311508815179 -0.8901873911050604
Ni 4.951123207987842 3.28071287962916 12.312900149270009 -0.08785845167588095 0.10312489091664821 0.47028870676091905
Ni 6.0250074185413345 4.305724758163989 8.446095654286381 1.6922381371721886 -0.20716432322776576 -0.2459699832410538
Ni 7.743075686753572 2.874290121593835 9.391515714109934 0.39746195260718004 -0.1808765931758304 0.417676479881842
Ni 8.194143579652684 6.141524175207225 1.3113358865256564 1.4886880136582428 0.2394959454809359 -0.2622131845727936
Ni 5.758211948985733 6.642011340107759 3.9744376485058384 -0.23540172080690425 0.9657256306526915 2.296349678154245
Ni 1.5471726990233046 4.220207447300527 5.717795865310663 1.5225818381922103 -1.2534559856599832 1.6533715420139783
Ni 6.9158614084240195 8.700591463348362 11.708982925562223 -0.3202892627799193 0.43271254827935796 0.3121095551826044
Ni 7.908891203221294 0.6765953502302282 4.149069095882086 -0.24961683596502174 -0.2265481270710163 0.43795348496332315
Ni 6.735519536821009 6.589106484487404 7.90540469258544 0.891720025699503 0.3038444869603348 -0.49402770224907183
Ni 6.154761976823813 1.8066910857574623 10.683159907222455 0.5272589534983758 -1.0392478682115585 0.5250447194558764
Ni 6.268154686469543 7.616964304966414 0.3356913670447334 -0.233117809868734 -0.39154018780610633 -0.31515914064220557
Ni 7.6914130338059215 5.636791272813416 12.552019528681125 -0.3956390404658283 1.2707685087965017 0.3218375811036457
Ni 2.1518658358930707 6.8036460102666005 11.859938360803481 1.106226648224953 -0.7495488195136705 0.3792963374417468
Ni 1.2600477484136579 2.0230568348689193 12.231384770449882 -0.07114371002436135 1.101188314470097 0.900353790115101
Ni 7.751632052924518 6.845556445216596 10.42086695884695 -0.5263912061814419 -1.5807509903337742 -0.2641140011399322
Ni 2.8831431331791575 1.2111939567333934 2.3995656839150517 0.04037351872104014 0.38624885750017995 -1.0836006832953209
Ni 5.664805724133675 7.749472103501083 9.593690688211115 1.1678351650653693 -2.8823879065743583 0.1377321965778725
Ni 7.088462688745623 8.089455558885088 2.5059649779168365 1.6019980726380088 -0.09065324081219872 0.6296107136944253
Ni 8.190444782142166 8.95458482923974 7.007132713309482 -0.6503176072244735 0.8185330599928679 -0.49070326586152907
Ni 4.576385888275694 7.286946281471647 11.98485759883161 1.0956648135487066 -1.2165398293599243 0.3438595939006917
P 3.233815093649946 8.527990183026757 1.0013803632119955 -0.9838017714281121 0.2508746196315228 0.37947811443524965
Ni 8.387602740672692 8.79464660004437 9.443602940806912 -0.4334915925372276 -0.7976019662671553 -0.09114663550884948
P 4.11502810756537 4.094207307543761 6.218271906008157 0.5978861288976348 2.9898062826600382 1.6556060877714518
Ni 5.275542049286238 9.05412790610173 3.5228330128100875 -0.5361793959164572 -0.22015302217794988 1.4647513003369872
P 4.901119915326865 5.64577406676753 10.292989609827329 0.1201409658586705 0.3248159470056793 -0.574350764779856
P 8.457759381172929 7.607619974413529 13.262404645642771 -1.0837557208159463 -0.049724363808320814 0.7777242535066219
P 1.790292156443916 2.9244324667928008 1.1587711499114015 -0.17544385219603334 0.1917950398605471 -0.31658301757292573
Ni 8.53293118320998 4.6854865095821525 6.273276454952152 -0.4410385516465501 0.7739791846418929 -0.1125721523724771
Ni 6.462856050162256 4.375714535618638 11.000768882227053 1.7347721538796574 0.38816072981091215 -0.9097812540765879
Ni 2.338993471349963 6.752632269162901 5.950687545053697 0.6249945550786526 0.5880084647726067 0.46092732015067717
Ni 5.499055098850348 3.9602348222756047 3.6398281102066625 -0.562629876798502 0.36222395534049234 0.6985129359827776
Ni 7.76728936870212 5.101615134769135 3.7663612846923877 -0.04642898088650069 -0.7006045284044837 -0.11606473890676786
Ni 1.7534895847227299 5.496431640966948 8.047839915315631 -0.7007796205297673 0.5511699557880185 0.378227015636968
Ni 1.901200460744236 1.3849447380357085 4.433166409231244 -1.4779868251906547 -0.7319537321397265 0.46742218384640144
Ni 1.199884350310258 7.7001733436992525 0.8095351386495837 -0.8393523107310641 -0.19847270899103883 -0.7917514210236493
Ni -0.12665832176991582 6.789444111053285 7.426256530164756 0.2523049243201461 0.6219303143310322 -0.037803701111334895
Ni 6.17246799999446 5.811116804606088 2.0852800645684018 -1.081383363929028 -2.324365703751197 -2.479780405210497
Ni 0.14451359466467062 0.33210844664920736 13.139466442772529 -0.9708192431255152 -0.0077529044725414865 1.839631253878593
Ni 2.817260040679795 8.845057780150116 12.52733955722185 -0.6724753742684354 -1.0239665165724559 -0.5683228134182213
Ni 3.6641641583886417 0.843994211597189 8.531600913929882 -1.3987845065278748 -0.9040361240626946 0.895638901137935
Ni 0.794739948607515 5.782620304487467 4.3472680944136926 -0.9976859856093723 0.8031730325970295 -0.6055726989086151
Ni 3.757273737826323 0.5209872170678458 5.995379957780399 -0.5314819904407879 -2.1575738708032066 -0.015742607546237405
Ni 4.896076943282451 2.3224925701752244 7.420476579668998 0.5782732397627138 1.0877062208232624 -0.5419669491325118
Ni 7.364370734624128 2.8616734213135993 5.186628148428156 -0.9864973159824044 1.6389412255212614 -0.33548885333849315
Ni 0.8583666819237701 8.639334185279445 5.448731985351995 -0.23968672133550337 0.07818801846565245 0.3329185215081557
Ni 1.1358460214815542 3.034005866728423 10.181475963478295 -0.5700547085076634 0.6158771661584167 -0.5575432063042141
Ni 3.305380799868474 1.5355849875241907 13.194185470505186 1.1761714528452065 2.1223392159706287 0.6545331879677179
Ni 4.5475185813891015 -0.0532886406252056 10.615103887062778 -1.7809219129628424 2.596720861853999 1.6883346883527244
Ni 3.637428990417886 4.705917962497391 2.0149992038008953 0.09185548865041598 0.28468359776116775 -0.5086518799201498
Ni 0.5374037597028707 5.491898528228496 11.270307394848723 -1.4090738042690247 -1.458110912202334 -1.3235440007263206
Ni 6.010768438651223 8.323054552538027 5.779270992355762 0.1479836991025516 -2.9679274803090756 -0.03768748724844477
Ni 7.266811473970787 0.7439320052600398 1.00746993735901 0.10107777857963239 -0.3731809685726283 -1.2356639517838848
P 5.096136464772354 1.8249162384032689 3.181927175590753 -0.9043698532530295 1.4642316803880913 -0.04508892191883848
Ni 0.2677178513909306 0.6252840366952315 2.2531683908690847 0.7742987727648406 1.739601199837185 -1.716029583164832
P 9.22113000422696 8.379528423300108 3.49272535728463 -1.644575026768271 -2.326009667112523 1.59453056061637
Ni 1.882224424393287 7.637534810419642 3.0704672962230752 -0.917948877489045 -0.19114995007738048 -0.99585047506253
P 9.214399861388276 3.350304039808239 3.9722267131518074 -0.6687012519379839 0.35509660026709167 0.7738629707790028
P 5.125986409594072 5.45298235792987 0.01398590427097065 0.40364005639343387 -0.5738581414141536 0.08947310446116849
P 5.842857863944461 1.3477898998849493 12.714399520443589 0.12450387081305654 -0.9639651963181591 1.992318271994085
Ni 1.9957098357310101 3.6684840572355117 3.3754456656936367 0.15042239045103126 -1.2210649709237873 -0.12537727455694536
Ni 6.008821703119372 0.48752097924148463 8.72429065090635 0.9620751783842979 0.7525248714228588 -1.3517263766978076
Ni 0.20354417809191722 4.298308622804556 13.396508767313557 1.4358713840778432 1.6433714933784729 -0.5929879202650691
Ni 7.061773871620863 3.5474898088463624 13.468459185553856 -1.1098015100604048 0.2644970955109638 -0.2822590474800752
Ni 4.603176677261645 3.2606707738202925 10.040465565754037 -1.9922959033965815 0.0699903131462085 -1.6241820649342158
Ni 0.38454052364039837 3.4070189349695026 7.983745038454811 0.3138784741575691 0.14605819994506458 -1.7724791815121281
Ni 4.892962166431489 0.5488616888331945 1.2383805819441547 1.1600519215755247 -0.7326129629902802 -0.8068484245660879
Ni 3.3275550445931787 7.219802445961181 9.886619691756438 -0.677191291686866 1.3207846928136286 -1.3737059662926923
Ni 7.903477424408908 7.0390619570826 5.250099142901863 0.8411238008091902 0.22496844128872223 -0.1892326784500096
Ni 4.831955182930953 2.9145504664263564 1.1113338400847885 0.8122647104856527 0.3349782322506618 0.8043308003505566
Ni 3.684363857073897 2.5862288838950596 5.051655411903396 0.41367892868667466 -0.8109087106783904 -1.8677642646693833
Ni 1.9016732393734 8.371129650005551 7.96230777218145 -0.28798849376468466 -0.04298190287816468 0.10278524818904233
Ni 1.9387168354937676 1.7485300442011091 7.045895925816318 0.7690506369920239 -1.608128868126095 -1.0964520853366924
Ni 8.780741346245433 2.5531807306995864 0.7907519218179798 1.629987358762083 -2.836754682116276 1.8304182199207573
Ni 0.16288336194998612 1.1941739260834945 8.513500908568266 0.5230739688827507 0.3223284046971352 -0.33151444207177744
Ni 4.212680069910703 7.135286313371243 2.311646472212054 0.15487142736132037 0.057685784747242584 -0.688522400428969
Ni 3.5130047794249992 5.387692556259262 4.297406635341464 0.14430702158191278 0.2673420211589267 0.592486040927986
Ni 1.8531068229383132 9.40152749684517 10.399470481318067 0.1696637551791465 0.594167285285151 -0.9212558303750907
Ni 8.496749712825146 1.2609006039799928 11.125457293042118 0.5384656208474726 0.09666010912791095 -0.44834871215471817
Ni 2.9611330666527946 4.046122939907037 13.099712249178289 -1.5720082111441376 0.1445348213220027 0.5655611915126839
Ni 0.27252165307000326 8.041945941738721 11.489780504675782 -0.36439319507766926 -0.013958519062621123 -0.49660291917541577
Ni 8.480378594019198 5.017024840825604 8.937807677022864 -0.3007059413313531 1.5340150197298161 0.47748959538473246
Ni 0.08709509366118079 2.04645474192793 5.843745946153753 -0.5487883429297195 -0.4265943511967621 0.17635942203176722
Ni 4.114332844875422 5.363553035664308 8.054528342392919 -0.6587027459643752 1.0012289657656241 -0.3990951173352288
Ni 3.123555701193576 6.295733439837435 0.32796838908480386 -0.1353510979402056 0.44200040133918717 -0.013780598723860138
P 8.594030868402509 3.445360354777771 11.491883906067102 -0.06278093988196284 0.5898568308352551 0.4575144378143863
Ni 6.058732294088355 1.0993771758515427 5.720685377050082 0.03724474328407134 2.198323541916743 0.14731572650124952
P 0.8140877187433556 7.011631526421898 9.608737099838484 0.1059711021161917 -0.07229427868903679 -1.202629389926419
Ni 5.819506307731446 5.578444827873078 5.973440248336437 -0.1806703907022953 -0.9743930765197024 0.4826947937347558
P 7.280911401322909 1.9046767741939703 7.577008948700549 0.18728172537122584 -0.7090434032004562 -1.770917236341647
P 2.97610438990965 2.02082272409189 10.828010009029061 0.5397586286272834 -0.39284785087393637 0.02104370804417666
P 3.514145010236512 7.790687275761132 4.241669743030726 1.9216391603109682 -0.03262781333735026 3.1476347357671535
Ni 7.068059046337983 2.4839418369500805 2.672373785213313 1.3528741171490055 0.15506708831189425 -0.4629510354489253
