# total energy = -340865.84316228685 ev
CRYSTAL
PRIMVEC
9.32738938164345 0.00000000000000 0.00000000000000

0.00000000000000 9.32738938164345 0.00000000000000

0.00000000000000 0.00000000000000 13.65157718700134

PRIMCOORD
 96 1
Ni 5.99851856915013 4.466317684017738 4.973432907238381 -0.4330177382246026 -0.9621206869102528 0.4932162620913699
Ni 3.5054193831487117 0.8822227062893835 1.6065177907711974 -0.2534819753473828 -1.996331506918536 -0.21881630564439736
Ni 0.3813745558257445 1.1323543678719514 8.200911950849868 -0.3428774324930805 1.5024241322974126 0.7566247525238453
Ni 4.923313114482777 7.792418011126234 13.520289326300535 -1.0812213844298668 -1.0530824601018056 -0.680754326447776
Ni 8.84473405286653 0.27695723272283645 3.8097179916307518 -0.023800701964023525 -0.003895478399664259 0.10318428339967389
Ni 3.917755274455335 3.4496322687572145 11.24171822483039 0.6010907518778615 0.37944880385921104 -0.5722635432335241
Ni 8.711100548789119 2.1295641946273 10.398228434645693 -0.7323113725894614 0.5591606873029789 -1.0156271434688249
Ni 8.856682438343123 9.234749501983075 6.490833091297972 -0.6535970493066937 -0.7839607213346369 -1.5062087961508255
Ni 3.7518023670395992 3.6323278396627914 5.454405324203134 0.4727387109633085 1.1931361057240033 -1.7271020389289093
Ni 2.960765149632128 7.035593657050648 3.953960468105567 0.016607526649693977 -0.24808882935626955 -1.053348826389315
Ni 4.398917970158356 4.721253883741596 3.146825109797195 0.00022394308534800142 1.3733843212872154 1.4662697938640425
Ni 7.95645880377015 8.813860394843479 13.43211378589114 -0.8314199432578648 0.17659493508134103 -0.6085646916574036
Ni 0.4061051953672284 7.797715968152545 12.047735229181974 0.11688414948426967 0.12443907901339216 0.354693451291402
Ni 5.005431448390608 8.501215638567173 2.927211732711791 -1.2755679870676742 -1.079452208344586 0.10408699771960139
Ni 3.834303123901795 8.877398569602697 5.082318049734957 0.3365653742321236 1.9806922577193824 1.2884952366523035
Ni 1.975447744018588 5.23781402119612 11.677176713792342 -0.08466437021861548 0.5105012744240627 -0.22562947191148883
Ni 2.5725685413960937 2.4087236239239256 7.065687545342359 -0.8833598266602658 -0.719799870386012 -0.05405307309066174
Ni 3.7205742682295786 3.0796240693263006 1.8775698534353051 -1.1366823936116488 -0.11815453155626102 -1.2590957004442638
Ni 5.62047948767757 4.878420390596089 0.9745927735909108 0.1313993123813092 -0.25644131508602286 0.3294413615928326
Ni 8.434935211403491 6.779836647083276 10.292797224344264 -0.17263903575738657 0.5450597291252226 0.28380505181095633
Ni 7.389250943335217 1.9380635683822194 13.100203307365105 -1.0246257474230096 0.08205572895117481 -0.15850413901790122
Ni 5.021073479963011 2.1535915490283193 8.31072516856496 1.9297749020442252 0.15978429128190544 -1.2687561063521633
Ni 2.2479474174758005 1.6920443526674347 4.776836728311128 0.21618246756597606 0.07315379847585465 -0.3621910452200278
Ni 1.546826231289535 4.389357396299255 4.782993737876389 1.1605522582507108 0.12257297233893084 -0.6455374122270108
P 2.4169223989699256 9.275258352978272 3.443610506334351 0.7491736955624387 -0.5069204990513398 -0.38493579511571124
P 1.596391977130768 9.560667132992553 0.43619628544220057 -0.764375857224174 0.8062920378419857 0.09398950427428329
P 1.811369641818149 3.9848471844733986 2.504681937824083 0.055729432351820145 -1.4296197467411764 -0.0029012328071950032
P 7.939007258706365 9.01702958489123 10.902599539984047 1.5825507625466744 0.6720220887811007 0.3420780765202367
P 3.0025145433817246 5.772002924107912 5.769579668411722 0.3464641214030743 -0.42550728878017047 -1.2549626521124966
P 6.633014214774874 0.3762053167694382 3.2994090703717114 1.3028823586119112 1.421102710409101 -0.49043895645654895
P 3.2120170306493083 2.3035759662520734 9.091676680105264 -1.9372354720873282 0.7336108081271753 2.501652265582924
P 5.452260024703043 5.263716180812435 10.383307410253105 -0.8300549445895381 0.19866117085276108 0.16397364677290469
Ni 1.7317697029756416 1.0870605662526385 10.2625998020332 -1.0547197385949125 0.6738635128652136 0.27106497853646866
Ni 5.033991913909211 2.242472240056003 3.9502752166599753 -0.05125956950592462 -0.4623334564695844 0.2782753802419788
Ni 7.5261956705540705 3.63298075690195 6.597342547782925 0.2690384350247431 0.7848395243951646 -1.2336839452393784
Ni 8.424656428581317 4.940363581813934 2.02637155771727 -0.26643879261836695 0.10790997101011737 -1.0769551529543453
Ni 5.996466543541348 2.3642599599372565 1.9144288970636079 0.8142583438769138 0.19006802986711138 -1.5414773895451324
Ni 1.7241678808340146 5.896057199547957 7.4834398515172555 -0.5270003005203504 -0.08142015224970493 2.019373219229348
Ni 4.5575955140520445 -0.28081877182300025 7.944958132971835 -1.873274395854335 2.439952988800914 -0.2909959131324408
Ni 1.1830300730197534 5.960574750165912 2.50634780952285 -0.062435640727402146 0.9138112011715875 2.386365285382445
Ni 9.019445378676114 4.994462438772752 12.18982028055083 -1.3895231358306068 0.40480528034612856 0.4624915793140035
Ni 1.2850157457762539 1.6403053251587176 2.43789876438625 2.3212047895247117 -1.2051089618151631 -0.5066482192265597
Ni 6.820457426748043 6.43013417379018 12.548897712659324 0.32916085423793634 -1.114786364869506 0.08684517992001818
Ni 8.553327761641123 1.219145723734329 1.514246593794457 -1.3253977661056078 0.013498548707067074 -0.4700531937113453
Ni 6.089441958397465 8.153845012556785 11.417605734409374 -0.8057459355305285 1.5585014349069546 -0.7689956153843724
Ni 5.904386558041789 1.8934226840020647 10.688652551795622 0.1825619512980533 0.2368911608682372 0.8521857150503066
Ni 7.379615750363069 1.9349855299690453 4.872247524469307 0.11351394746045611 0.0951290171953652 -0.9582354929232336
Ni 2.7970601429969215 8.765255370082722 12.28752468169628 -0.11749658625728797 -0.033971728959754394 0.37116008148785756
Ni 2.139749703558167 7.588549266893671 10.315022527165207 -1.3894719708776972 -0.8027930235497915 0.1096737477787595
Ni 9.26996039595196 8.11729097455306 1.8498292654213022 0.45809113625346265 -0.34692949107526705 -0.16127244579165775
Ni 4.412349410506752 7.387917126689508 9.948381515210523 0.027563511440565434 -1.041290095452568 -0.14442734920986094
Ni 8.231504854460079 5.581546965445485 8.259381622355392 1.805655668264097 -0.023598870365862584 -1.3326305364086213
Ni 2.7217974401002505 7.576274422797499 1.0995741915105608 0.23849861456467314 1.55229016388992 0.9468480770218983
Ni 9.27502516825 2.9344712396723165 3.603006259191113 -1.025652388915311 1.0418567665893153 0.7880935125560878
Ni 1.4381808026936211 3.721702882314409 8.870070972701516 0.2516467219108569 -2.195534666317696 -0.06904800383759722
Ni 7.13444532705919 1.4358955923565677 7.087352272076539 -0.9897677592035601 -1.507025635625166 1.3300514628275353
P 3.1571160182252402 6.621774710872223 12.770545393314162 0.06567934447568043 0.7703996948207507 -0.35317470065403045
P 4.4423089843949795 6.513129282276309 1.841392641952466 0.863715827177093 -0.1492507387404333 0.8638150717591186
P 7.673484472319014 2.9119922318670146 8.628370338154307 0.4130340960138242 -0.8965770966814882 1.0081107804871217
P 9.307176678583973 7.402337270285772 4.07371201893956 -1.4537354088424574 0.18865855111409446 -2.5063324446674127
P 4.528130291787751 1.727180627523273 5.973357004230802 -0.05485602860793134 -1.2954048192879433 0.7966876819830021
P 4.8062077439452 2.853266989899306 13.510173772788148 -0.12946172903896414 0.7194512287973416 0.4409650180961373
P 1.0372429809048729 3.3023248122140094 11.86413490153071 0.20821693286199627 -2.1691687747296577 -0.8771747808954765
P 6.907845735514794 5.896103836493611 6.3415808741209885 0.4345208051326903 0.00951848101339651 0.7768153685391073
Ni 6.326441588822737 0.1096723741392179 9.166064473901464 2.046619456539811 -0.49845565611343834 0.8476785712085723
Ni 0.20123375680310224 1.1338840596894078 12.206612379203063 0.8594082009406748 -1.484713859501843 1.6397606360987633
Ni 7.469326579023397 4.465133105598122 10.432330302046925 0.35048249853384805 -0.4224605315340466 -0.4073470729313759
Ni 1.121749126430197 2.8261242875285895 0.31773937621956655 0.16058364725474925 0.05458863387915759 1.3407487946403813
Ni 6.257409581865461 4.448810174619169 8.308281392612683 -2.9962810917511042 0.33909122597777086 0.5066011680387081
Ni 0.23597175214305421 7.682727914947667 8.252842189835766 0.7941934548062387 0.5120891877364728 -0.01463163387024577
Ni 3.0103402228624914 4.712113042393382 0.14565371045030956 1.0736821386300284 -1.1641381758297564 0.5078862053987189
Ni 6.233419537020965 6.813359283619481 8.70615703254978 0.6099096357210723 0.7836226212689279 -0.8892160283307267
Ni 1.8388108206410523 0.04942396952644456 6.6815324948167145 1.232239499483368 -0.5578985327611037 0.24791116612782466
Ni 7.146748153322755 8.154572548908988 5.057308521258461 1.7250430995173518 0.20417464447182254 -1.096877088689253
Ni 3.194658759476833 5.130315861463298 9.665438896882433 0.866275103263837 1.0269384547165863 0.12250689498768579
Ni 1.1001375658140629 7.1879192489462405 5.694358938766139 0.8365927457080561 0.37095593589685144 1.2263915253430233
Ni 6.224316005229275 4.1077541910503514 12.427685492687443 0.08049969731796458 -0.6286226387495432 -0.6853846261309356
Ni 2.8939437338988583 1.8828547521168335 12.660609054062542 0.3893534645674327 -0.5919857042527998 0.5159093328135115
Ni 3.614092793912018 4.493926755844996 7.554086429533079 1.128741027277385 -0.24049404772814711 0.11819644053778998
Ni 4.075462769879417 7.043978979879265 7.097919271222858 -0.017089094271802826 -1.438066591956949 0.4289564236710354
Ni 1.1491436683074463 6.148736171102155 0.32544659785837177 -0.6840787628353187 -0.4846668298594621 -1.722672799512962
Ni 6.611253415932646 6.034055921738594 3.4004713316042596 0.47400009417423533 0.11212452331209721 -0.9780661544959155
Ni 8.743690446412241 5.254631303799007 4.531804350366385 -1.409464354839224 0.746095056637115 0.6165284265891704
Ni 3.8365137151258013 0.3632365149219315 10.119463553909304 1.2601249130397267 0.1530865675467557 0.6971625926024704
Ni 0.36502550815722473 3.964494821389927 6.813092520290339 0.756250142793246 -0.5018294576816777 -0.39963556321973104
Ni 6.636036288853263 7.293113543563747 1.43437149697259 0.9429605690420341 -0.06332601375215546 -0.5632410280199396
Ni 5.797205529539416 9.600215262907275 0.9043379459185825 1.083099061068554 0.7362950398275577 -0.26850415978782793
Ni 5.300988427779234 6.956264212492935 5.053731467526788 -1.7569972838264452 -1.2749115844305978 0.3063137744364337
P 2.6979286513144554 8.164049176265912 8.360649086148818 -1.9092708685536022 -0.2796684039347635 0.20896872342635625
P 8.461583562150274 3.624856600968996 0.21649243268222781 -1.2254453593796701 -0.16481259773443227 0.13634971440804905
P 0.3743361079876198 1.9124039208833046 5.862314436628265 -0.6956500126126859 -0.01971290504789508 0.17463832557560247
P 6.168211759607329 8.537480527507842 6.879316050380322 1.888052582604774 -0.3303469041262375 0.001803628867642055
P 8.485172529262144 6.7111497535238405 13.792188315897722 -0.3865612465342762 0.41399928814057085 0.8220174189970424
P 7.053436952457926 3.732765165823574 3.206045636127751 0.3382502181337142 0.0685875192614109 0.7396295035174294
P 0.8510897468484975 5.418578822551614 9.801204642115149 -0.9993865132402465 2.87040630873245 -0.07235058584826895
P 4.822903770489387 0.4435304115157726 12.429596674720349 0.3458534844022689 0.34708247171336354 -0.3975686533883733
