# total energy = -340868.9679031843 ev
CRYSTAL
PRIMVEC
9.25641631811152 0.00000000000000 0.00000000000000

0.00000000000000 9.25641631811152 0.00000000000000

0.00000000000000 0.00000000000000 13.54770093445449

PRIMCOORD
 96 1
Ni 4.668695771801346 4.334446575134296 0.8747600459026829 -0.3374385208656963 0.20293768674092794 -0.12039576218195394
Ni 1.5585861391747766 7.14114013416493 -0.4108275296503371 -1.07586500521396 -0.9999539557079423 2.9988953894454995
Ni 5.543973251381506 6.270213170298796 9.46008904572123 -2.575261149318326 0.10124464317479982 -0.19084604568371646
Ni 4.452919448802022 6.18432288240421 12.762597921696537 -1.1071833557112676 -1.67372953684504 -0.33419173179362444
Ni 7.594454615150125 5.7000179192688805 9.419256215999344 1.926163787654199 0.16247443651955892 1.992571268545155
Ni 2.969014077245903 5.958086808858394 8.341278952886254 0.04257155481362346 -0.5635318197874811 -0.04466751811070372
Ni 0.593131725259251 9.132130509648334 7.9795826302719 -0.5861667835781776 0.9187862857886756 -0.039166385786816416
Ni 6.311219095007604 8.142490005287742 7.949330810151511 0.7359253151929648 -0.2803726290906397 1.242362446849983
Ni 8.954148134862567 1.9537240430053782 11.178627911792875 -0.140054674063462 -0.5014754167763685 0.471334117306298
Ni 4.103906267956519 4.105850115403212 10.113480967469602 -0.6548008398068077 1.2521025569558821 1.0265710440748383
Ni 1.0234912191822865 1.915180325062382 6.686088223819047 1.1171371244898696 2.055773612235253 0.7806689379572427
Ni 3.181411808254547 0.5059594236914874 6.7783348928643194 -1.9234792988435003 1.8570275949781694 -0.9627837744155483
Ni 6.605545367686147 6.532373395942779 11.75314590928758 0.2107967777740305 -0.7490171153799164 -0.6314287407397706
Ni 6.887356965374553 6.658547608065973 2.5586734350988807 -0.508326378259931 0.14431653466360952 -0.3232360041130692
Ni 8.085887018923328 6.2240329088152215 4.643705298770005 2.3732696285407515 0.8033992896752228 0.9964109755516904
Ni 3.0308561952999757 2.39489410565695 8.889662384280992 -0.1915387008753669 0.7704398040300666 -2.1406578117741586
Ni 0.17655410973326802 8.23778481225776 11.763942593391498 0.06227854632424758 -0.6733410647028404 -1.8699206488907538
Ni 1.4441768323122803 5.1197424307654 5.613734233676748 -0.05268267510569636 0.44826437997102797 0.6499741078421257
Ni 8.589991456765686 8.871349490049864 0.8724302058915752 -0.1277023231456962 -1.8078449626059316 0.3402628776883688
Ni 6.855200174756405 5.322707873449377 7.317736823413697 0.23266812392582506 1.0892920772531431 -1.0694979253453516
Ni 0.23649310857286412 5.610471346891228 7.8756441816555895 -0.3315576366048871 1.2006876928190162 -0.9668605155880834
Ni 2.428485640819086 5.968565072237711 1.6729510152384914 -0.6124696831387645 0.46899158521605033 0.08563650432389767
Ni 7.789431770469836 0.6577387348958338 9.27871234303688 0.5780472397948366 1.8913824183089554 -0.8202952940996131
Ni 2.934135900202385 8.277976172322237 11.793328012935646 0.5849573366511087 0.5050402513094915 -0.41170637834133605
P 6.481435336423012 3.2876939815065844 6.856369260149344 0.12798900114817957 -0.8950650309123359 0.15216302729122183
P 0.609826597901419 5.105376472492698 3.6587596488139975 0.5179939832566821 -0.38805839990509294 0.5669629569562171
P 4.39911190019428 0.8333514670799178 9.166591222311634 0.3589090320346464 -0.011446808384360931 0.21415258162014086
P 8.114369012225586 1.2791626969208794 4.547489478366913 0.7058081840926103 -0.3303448472437085 -0.011317739005664379
P 6.413900522275053 0.8386711295923673 0.16453557866285826 1.9684769466001129 0.4688874555380183 -0.5095666784249354
P 1.376253248674983 0.5781622486364332 12.184558783398396 0.588308769621845 1.8710308512357972 -0.3655329651090673
P 3.226629402431189 3.707981568730827 12.545767292867792 2.2034953159256694 2.1607669238192075 0.014139781835491777
P 3.0356139933361668 8.526668312085562 4.845118440421552 -1.4135968889503592 -0.29105479139483426 -0.7068998744948922
Ni 6.098997235910804 5.285358233223635 4.913900093860318 -1.3111762231895872 -1.320169942047765 -0.48833579407061706
Ni 6.026297341404489 1.2168114759641013 11.351293400991118 2.8649370580877624 0.2964260830090766 0.5537919667918979
Ni 3.587796258026729 -0.2226260711448135 2.7181975899158366 -2.022198090272653 0.48588861808170514 1.4765593487155084
Ni 6.723018548381288 3.0172122375074744 0.9543596732031157 -0.46699743760415696 -2.073338874812526 0.6780294713174452
Ni 1.9848626278181158 3.0332165814852456 11.128583096456946 -1.9331965261312642 -1.1172435681607469 -0.9383413251024678
Ni 0.5937407974592147 0.7979845512498025 2.5711233151741277 1.2432085969003621 1.7217860260326348 0.542257483789737
Ni 6.011912870298962 2.438121570304835 9.13208515320791 -0.12803270990192145 -0.6594236832907998 -0.46246201162764866
Ni 0.7067662700679938 -0.13377650692304635 5.565666588886598 -0.38077137932537647 0.10086720523072304 -0.6507773204697115
Ni 4.893311972474916 8.323684356568759 5.7759131287209025 -0.6272818084509325 -0.8880891138151351 0.564137314581964
Ni 8.189438549333582 3.6321900311426294 8.452803960394514 0.15917365428110006 -1.7299356517229625 0.4027041748427258
Ni 6.924938016010615 5.091565899204767 13.95765496780722 0.3794495751901594 2.9815034192212972 -1.0091734174236813
Ni 3.838080501413059 5.412994959140056 5.63923103268587 0.14335159964717892 0.6052785647069641 0.24635616293587898
Ni 8.864212792995575 5.4548709869916685 12.077856368841216 -1.013291810467429 1.2631063642655536 -1.5976626784874484
Ni 2.288389778411005 5.708043232298799 11.485497554352436 -1.0703196499156986 -1.5269663404131508 -0.2813797301989154
Ni 1.3263519077934525 7.627250098500758 9.591176563676349 0.9616262637723375 -1.644383222472439 0.4382977556766194
Ni 7.879061650595204 1.602831809628072 6.634891910281362 0.1101828262046941 0.9371956415337989 1.3388379507709136
Ni 5.695398967478882 8.962099396561182 1.835930590302354 1.1126196962354904 -1.0698398820658026 0.4306749490240389
Ni 7.894232917095821 3.935439489243134 3.316829477807587 -1.615556528048734 0.41558437323950365 -0.3479368492938589
Ni 1.1910508690872144 7.267555013114857 4.199448221244757 0.814660721521655 -0.4880529727228757 -1.1473871816236627
Ni 5.654744786593762 3.4968612231871523 12.194989839054006 -0.07792910837731094 0.3775225333707756 1.0309187795205728
Ni 4.489852550289187 1.8810889434139537 2.5011762789089875 0.006555798840646773 1.8064629946567408 -0.004633127896637182
Ni 8.641966234923688 1.713112754770449 13.635354879087485 0.4969633878386279 -0.028836721726034204 -0.27969745740048607
Ni 3.993801194725985 1.8580404665460235 11.24556753836549 -1.656235493825335 -0.33908788354366115 0.0015390623523457365
Ni 4.548242025021276 2.8743394501755466 5.754399365694218 0.7545976947914875 -0.18674487903114934 -1.5796950382654342
P 0.44847059827636565 1.9813081639155916 9.125745433606768 0.5490935328749641 -0.39980602735932436 -1.0180154411953435
P 8.058969359994837 3.524658241674861 12.696106305678304 -0.9569334862823583 -0.06592514193789936 -0.1883880710615272
P 2.745203184800248 3.6679290549125403 6.654671020872283 -1.4371348241712991 -0.7646854180447927 0.1990892595291152
P 5.032778398566926 6.509769227062664 7.309648566752172 -1.3602778658122443 -0.7061830509335257 -1.52371749445855
P 8.469019350666498 6.789340771979166 13.659334551446545 -0.5484882951907972 1.2511746458249744 0.3926455050551432
P 2.2793555159920893 2.3633852641876993 2.7235079960118735 -0.596518816236463 -0.5867164854340604 2.1369291979696614
P 8.337309801528436 7.381334883661283 6.927359494544209 0.21690469044398128 -0.8329014128993979 0.19274789069211967
P 7.16641940738835 8.14313795443664 10.006941465841289 -0.01719630927362845 -2.3822360937054197 1.2695199811013813
Ni 5.414142754775245 1.099217961855594 7.243725294701685 0.7799048060977085 -0.009333104475467797 -0.768379064846296
Ni 5.190202272499811 8.298747570752614 12.76960225199612 1.0805531547182488 1.2080166223802613 0.15557231008308692
Ni 0.3879502964860443 2.8385448879071586 4.18621247141606 1.8990728449746779 -0.8173012444682957 0.44067294077701524
Ni 3.837904629501215 8.256843773651761 8.135245008161426 -0.2356320916501555 -2.0683933578817926 2.2757898517250226
Ni 7.143482007517374 8.842636086337285 5.978858207288771 1.866278681262792 1.132965606881694 -1.0792668318066576
Ni 2.867665573941901 2.7928274472442243 0.8217753927140409 -0.7422782539941861 0.20040437879611295 -0.3021359889096603
Ni 0.48146509457987435 3.1583263057209656 1.6958060330033935 -0.22314218671326086 0.09366425972438062 0.43038184326365236
Ni 3.673344058514042 7.99147157151253 0.7347039860851771 -1.5373453696546298 -1.3194173801524567 0.4032639040009377
Ni 4.372944010995228 6.860615178357906 3.454690841293612 0.3880221473505189 0.1978661857552915 0.692227360084382
Ni 2.9734756699568843 1.4102335533264572 4.648622307168497 -0.7042763208291162 0.9546290065188979 -1.2161379659358151
Ni 4.359624027777175 1.0768729726350386 0.24369645182532323 -0.6279304977785249 0.29538067246369776 -0.9131290875028983
Ni 3.746377184011218 4.573086246673294 3.037177402068293 0.33532507406711926 -1.2421770703120543 1.1975401483289698
Ni 2.217670757017035 0.5409347931073403 9.919030502243782 -0.7144591748993889 -0.004224065383676596 0.7438137168021062
Ni 4.529719935779217 4.130342593231542 7.719534718853325 1.1055123957667479 0.6646882741238488 1.1071224205663448
Ni 7.348465348979346 8.649195496142104 12.207386031914059 0.3130577780284866 1.0831882783482507 0.6351802373624029
Ni 5.098832186088832 8.57836539775118 10.542807445320966 -0.7741303655077765 -1.2048371962110154 -1.3540372842191715
Ni 2.006966950211938 0.3779542924018364 0.706527454524543 -0.4332249691394023 1.6145715384276453 -1.2718596849781514
Ni 8.72206200614385 3.8849735069604217 6.1212709507249805 -1.2024951783414 0.17602183618669037 -0.30958164655442816
Ni 7.147332676745108 1.4798973432493656 2.670563145413807 0.7498013018441086 0.7485157502634657 -0.9530948292625585
Ni 0.9072843162524201 4.1117464526581795 13.093487039205732 2.1362393709914884 -1.3585223165737186 1.2389163972829116
Ni 1.4029672664423911 4.023088496256158 9.130960498613753 -0.3177114747504141 0.41142355699359473 -0.5838476485266977
Ni 8.294489619202714 8.71852605507415 3.268573002122615 -1.4798717009181932 -2.2914452988740925 1.64228185985872
Ni 5.605278497283634 1.1049106579494805 4.393004516645099 -0.011998824233089013 -0.5031533186994238 1.1901837079638984
Ni 8.911818542606726 5.486490905457873 1.8686205505058806 0.5405124760741724 0.8707331390351908 -1.6257383536777419
P 5.079569583533747 6.4986059888688 1.3417425513630536 0.11183450287550416 -0.6602076126446759 0.024458904373312714
P 3.6690768505477305 6.729997886356557 10.329986696082257 -0.22090172741851635 0.8626351925184046 0.019096611620134853
P 6.210814746177709 4.12305779351465 10.285103258538117 1.3305690258939022 1.9815669470148516 -0.25247873089384903
P 1.5538838796370624 7.303108908556512 7.282024643251383 0.6342371567228432 0.24263834776465953 -0.3532068394435465
P 1.4590426370712746 8.044270170731275 1.9497715531971027 -0.15369926143009016 -1.2973470306159784 0.729857254622014
P 0.34242076107629027 5.732443145963001 10.072187168210355 1.2803450967413432 -0.27118427772315234 0.31089419471826457
P 6.414131932685374 7.689064447305593 4.451896614788405 -0.2437845455539608 -1.867637509283532 -2.6509117460741054
P 5.73686771300833 3.5503725664696844 3.3236440515707075 -0.21884613044106827 -0.4635693857592146 0.00598424260789292
