# total energy = -340890.41290677624 ev
CRYSTAL
PRIMVEC
9.13185024409853 0.00000000000000 0.00000000000000

0.00000000000000 9.13185024409853 0.00000000000000

0.00000000000000 0.00000000000000 13.36538589380766

PRIMCOORD
 96 1
Ni 6.069347267437646 2.1292917782586995 11.54759991551392 1.2867947090214291 0.12044461314201836 -0.10101401522123249
Ni 5.071583049280655 0.5126218909115119 5.879473271848792 -0.7664322255325704 -0.11632313477447707 0.6115551417442953
Ni 3.0383583352804484 1.681940699941675 4.912661459994478 0.42370880211885087 -0.3464432954674679 -0.6932894828003092
Ni 3.7467981430855524 4.578134391079897 4.657996987132431 -0.2920338674786519 -0.254825890969787 0.14131374328154372
Ni 3.7825676003764763 2.629580192270257 2.801812366429359 -0.18970267610789265 0.5682616211629826 -0.08159293038214335
Ni 5.052844492640118 4.581430989007398 2.431805319875658 0.8758596616284787 0.640147351559691 -0.02782833506617788
Ni 5.180946087451731 4.725485926144065 11.369973557433005 0.3591113778534396 0.10221086374281106 0.48772592840076
Ni 5.491565972504265 8.114753869624241 12.345165668229335 -0.31713194809786033 0.3328323895522526 -0.22534973588754093
Ni 1.8636188599628478 6.678158589400528 0.41711095633109246 1.3178834600064335 -0.21764593948538 -0.9630701953077155
Ni 2.7527871153667967 1.9107666026212702 0.03722324784510195 -0.9139053035472906 -0.6667027334507163 1.0422534878071017
Ni 8.43549184471465 0.23711853585955095 6.354305740201892 1.1296902785645317 -0.8758989995068465 1.9810758663110462
Ni 8.88977399734462 2.4951684889602976 1.321298365783135 -0.3517235700298007 -0.06375590220072246 -0.3319517867195122
Ni 7.13065089938842 1.2030116835822677 4.844297689732277 -0.14214832336769712 -0.034095399021812245 -1.8812219328361859
Ni 0.9042979048396402 7.531621310465057 2.459070285061645 -1.1613256460816257 -0.5654362358990456 0.4533327956328709
Ni 7.6881320912945545 3.9325856357033335 3.4842090506072 0.7401056718228997 0.01944293921596006 0.4421289564972514
Ni 7.666553529237252 3.915509075801871 12.5529307847588 0.7587891071650158 -0.47173983738514885 0.7925777735796866
Ni 8.024631639855508 7.082462125805524 9.088435572395063 0.26378875659002954 -0.4157874903892453 0.5224407061741261
Ni 6.838011627408601 0.8970755245048453 0.15594825885627397 0.3217547915818523 -0.7586991185543708 0.18767793236838
Ni 1.9722970093678227 6.892428322837914 8.971033766480002 1.0577644389585075 -1.572104627512686 -0.4439230722831968
Ni 0.5256475620577397 4.893557629345356 1.3010831889628853 -1.0162542355298625 -0.38851811315033086 -0.2775809252781155
Ni 6.729443060206203 2.125465533018746 7.177185894897438 -1.1327167240956815 0.11373634788390737 -0.6081916245887009
Ni 3.3000406350324827 4.603064342165989 13.561055086984352 0.457074007842858 -1.7568748993159677 0.07881562474732232
Ni 6.166446230770399 5.650067496680565 4.683472109676339 0.41174880154349736 -0.03967186466832522 0.03395887344394797
Ni 5.307148257418688 3.0539281398964877 9.483890345942031 0.23620750453765127 -0.419917967617851 -1.1612567405169032
P 0.4079708874512135 5.556676064534974 12.475304578823843 -0.3968623713499681 0.6046352746960103 -0.7476837412804735
P 3.974409509686594 6.291653029063955 12.609840475296721 1.0105397016435886 1.4009753435316064 -0.113551742676927
P 2.4645037359393833 8.479123825040418 1.4774502648991963 1.3048554231778817 1.126589271041705 -0.523496658242466
P 6.746775311913677 8.165079496157375 5.788173946587387 0.1863378734007178 -0.7744368410046018 1.8535501779525305
P 4.530557451461384 1.0779692585925762 12.646502114353622 1.974490756894361 0.48741585335950893 -0.5489397809059191
P 4.1519418097103 6.6005378625757 7.95772439970255 -0.49655741064946096 -0.786204265953175 0.645325553326521
P 5.129168496734462 1.146321157449499 3.668611241547413 -1.1747810002555832 -0.46215039392450086 1.2995118994777812
P 0.10641984284688301 5.6476749519243175 3.3134927635837363 0.5759906143761242 -0.3444056962121488 1.2194914557890804
Ni 0.8056054336444243 8.998817420758181 4.384300825237956 -0.94714349677513 0.6424911692015193 -0.4771851767704363
Ni 2.1631161514538952 6.608035111601956 4.414012213096457 -0.4975370009539109 0.1740767966451776 0.6229068193116885
Ni 5.891577539308359 5.441660411081007 9.040641294741443 1.1099310936597335 0.8819513763485133 0.9670237806388248
Ni 8.648528778373052 2.5045012398797066 10.325562935194377 0.16776191017074335 0.4767174931053983 0.6841468970690927
Ni 2.659970989784731 5.313412706665962 6.788225693223157 -0.8593709199448362 0.4668071759702219 -0.02458000333220928
Ni 0.548155746466897 8.69101014557177 8.66302833014393 -0.11246725136349664 2.2700079549359224 0.42095875017753953
Ni 1.4767297619172577 1.2102989000535869 11.230345741280416 0.26739832831815885 0.17308435082492127 0.4218637784903122
Ni 4.536666659255009 7.184903221513869 1.2654644072005035 -1.1746917829758865 0.2747270007690882 0.7869007777995674
Ni 5.894527126927703 7.959612866326946 7.9754867615551355 -0.2734833581699742 0.7328034817345315 0.24435430201450173
Ni 5.667573253542118 3.0977701527771937 4.770653883675943 -0.652943731993411 0.11024324712898431 0.3177014474480851
Ni 0.8073322665200213 7.444211240210085 6.627280485929407 0.4236797486531284 -0.5180415486651658 -0.5048682445080015
Ni 5.1032431739749695 4.850665328886977 6.969366900451705 0.17028750480607446 -0.2162166632380212 -1.204152768549481
Ni 1.1067163230684067 7.409701978248787 11.35043322434362 -0.4516584932542415 0.6990927197456477 0.058932255559833994
Ni 4.600845302563821 0.31589718129160177 10.272716004816969 0.4148613790305501 -0.2175173843273157 0.48219008618419534
Ni 8.257685589184502 7.345550730490619 4.3972123482565 -0.03358940591967118 -0.501364088009485 0.6061807648062592
Ni 7.397903627771413 6.265508541899309 6.9615354257075905 0.28890946291705727 -0.39754705612181856 -0.8511858130308825
Ni 2.560689514250668 5.170563173757634 2.4867900163883236 0.6122724795262938 0.3175281550950144 0.44559377511740034
Ni 2.5873636487277647 5.546895852955046 11.154550471313504 -1.4110283568922344 -0.865197296818626 1.0112956059730067
Ni 1.097091352942128 3.3441292078689853 3.802786429936812 -0.31517199615801206 0.34778566842797526 -0.8001391308667123
Ni 1.6481437222971234 1.2804863008036615 2.4268065450681386 0.09610937883076351 -0.8863276510393381 -0.005983471276944534
Ni 1.375430147485749 3.716261235967643 8.13127338666261 0.11095055760865409 -0.9968583475017542 0.3809392723618084
Ni 3.7910510892259195 2.868789008643949 7.128789828314668 0.2990627493009753 -0.1524605039269826 -0.1252752017614423
Ni 4.276582433290544 7.046455240409018 5.7054430363824205 -0.030493026382534587 0.6455813780910687 0.26054093907669323
Ni 0.800572870991111 0.002767863800071243 0.19063011278662886 -0.3021614428309571 0.9530475209643909 -0.006766629299872217
P 0.3645854670812416 5.623822559163559 7.8750994189600725 -0.019008422781702745 1.3457719588865855 -0.24376294828740602
P 8.958774257566786 1.7300016276215664 8.290241548384879 -0.424178799776734 -0.40135357435210234 -1.1381152694034335
P 2.005609998950996 3.5715031463644453 10.377407188418212 -0.3723451029348942 -1.1803667218734768 -0.9097457728529623
P 4.4259064480010855 6.446045220643646 3.457945849389764 -1.1061752261617273 -0.6322088134389048 0.21992599376880834
P 7.2386167644766495 4.225772818696034 10.475388288481703 -1.689567275208245 0.37040006339338144 -1.0925249823681442
P 6.703307704891773 8.104918866943025 10.394621639257917 -1.4476933164134358 0.7797721371745862 -0.6137228388195752
P 2.4195202417818416 8.76106970041884 5.575878519166416 1.2515435991286188 -0.6062586692320462 1.405231290594483
P 7.057933976128878 3.8870542305329105 1.3943970003816513 -0.6754650530243786 0.8001242184683769 -0.23632628950370266
Ni 5.244850775254101 2.8371014883989902 0.6500379729421026 -0.4618272062571272 0.7091621881665077 -1.059595578629975
Ni 1.6904241887911182 1.3580522365272019 6.995723246541332 -0.3995376041892861 -0.25303743161079645 0.09555196366539673
Ni 6.924846391100049 1.0524822646433882 9.233049378764871 0.020780427080460986 -1.2036673442726302 0.9307570849973067
Ni 2.9152427306860558 1.7311157133477577 9.204621015861534 -0.5049212092331239 -0.08190403386465894 0.008665131874165722
Ni 6.613486826180124 1.9001827882224493 2.4211393188249053 1.3270687260501275 0.013659242654647442 -0.057832851848068134
Ni 4.319812612206867 6.9870890821633465 10.536241111942328 0.4594471360607249 0.40010350399508515 -1.251808165643915
Ni 8.55448898486222 7.282750996564226 -0.09835185318220818 0.38366618437466826 0.615743725904346 1.9400994238986846
Ni 7.978497532570917 3.964090518943999 8.239733284847453 -0.06894541682146191 0.004524884453547046 0.7845093947492554
Ni 3.0426411730311362 8.687284350684179 12.684298842392206 0.011524712810147894 -1.1583958740293405 -0.6925248367201428
Ni 0.18389537325329816 5.171229798823306 10.166393872767385 0.19787698438856888 -0.41487500587730486 0.3535791351813007
Ni 8.876532814533325 2.570405802879093 6.080394979827373 0.33591745623547953 1.3220985265290457 -0.514646664051004
Ni 3.735173297762257 2.7814428613404805 11.44749292072045 -0.3180207784607168 0.43426086660308433 -0.5339222244511643
Ni 1.1751230130266175 3.5481986646165673 12.489364888599395 -0.3918109249689898 -0.46397999093407194 -0.15746232801694818
Ni 3.34240328817841 8.713017904589162 7.548863156855404 -0.45543518668785443 -1.0146544951429106 0.859170888118888
Ni 5.868419167163916 8.08064640907239 3.912128464852394 -0.6415015515947403 0.4956606098668045 -1.739153827887121
Ni 3.260216636246238 8.65947786678046 3.5206296088184312 1.401138094361716 -0.10233890468024309 -0.11718625410572076
Ni 3.557787107341987 4.7209656602877965 9.186136324656966 -0.03489655476686893 -0.32358053193668146 -0.9471972328312009
Ni 7.256679564201298 6.426548720435293 11.70908024923025 -0.3570480675665077 -1.2429836253737496 -2.4248490432799397
Ni 7.905415335302787 8.688681523767025 2.323518926844893 -0.10348355980764758 0.8523371530265063 -0.28742105129698886
Ni 4.547314396605333 0.6175103224773921 1.5202996456615663 -0.3170131631318089 -0.8160766280325752 -0.07672840320099043
Ni 6.115545297673741 5.7018724829484775 0.29524824158615437 -0.3701802340730915 -1.384132818052971 -0.42366920713016715
Ni 8.44340915885078 -0.05734254023809753 11.268757956023471 -0.5174450527317476 0.02665462647305087 -0.10749113830514391
Ni 0.2626658000201557 5.107964340535962 5.601419391031871 -0.04759060529476965 -0.40604326651828776 -0.19618494139812664
Ni 7.2673912245031245 6.222716691793292 2.369121560446991 0.10309558034060955 -0.19109852801415475 0.09761604528327705
P 8.769379684114202 1.5086729739682283 3.4282481593065843 -0.3520783822660582 0.6262322841404957 -0.08033694648785518
P 2.0658345511168483 3.2234335435814843 1.5334641209310573 -0.6411040590460055 0.9975643724298432 0.3759341058377332
P 4.77606724448321 1.0433778099793467 8.1812867039184 1.8441011167244887 1.7743506875032282 -0.4861264451241241
P 8.703630362568466 1.6973096038529913 12.566683351182117 0.27871709576508774 0.2674183829228169 -0.37755415793965946
P 6.604893755128105 7.798947093649765 0.7552405401553681 1.0699003029900929 0.3955017435570156 1.5661113860437288
P 2.052894719362639 3.389843250043702 5.729821423715545 -0.4527447843398848 0.4401057554196356 1.274505607241431
P 7.078033178451402 4.140883139100315 6.227026925094624 0.158623695314901 -0.17149952283630462 -1.3966816012522592
P 2.430688494594402 8.692827383764493 10.030468108691828 0.08621268854234185 0.77754041963059 0.4767275204077273
