# total energy = -340892.86593915283 ev
CRYSTAL
PRIMVEC
9.06333558117393 0.00000000000000 0.00000000000000

0.00000000000000 9.06333558117393 0.00000000000000

0.00000000000000 0.00000000000000 13.26510775904776

PRIMCOORD
 96 1
Ni 6.203626583345252 2.1583699118851505 11.665070215566992 0.5904625827400541 -0.5136686164084509 -0.8519257765207006
Ni 4.727970546537567 0.27797340687951677 5.864411311991033 -0.7806177730043331 -0.1806269390588696 0.335700455128667
Ni 2.410158436099935 1.4050435897338804 4.7846046112314555 1.599235422291207 0.7936051864029365 0.1991982743031537
Ni 3.6814362568231247 4.1521859039818265 4.834056888855484 -1.0730452763769778 1.0970943469063816 -0.40957364826904946
Ni 4.836349912743262 4.49601260045107 2.5633623408106887 0.20038638107398393 0.13035235917403357 0.03416121926274116
Ni 7.308900350595997 6.135080576771104 2.6160520418841795 0.6459212779289908 -0.19864343024094822 0.5614939634218459
Ni 5.124518665754638 4.393270628941808 11.564786220652058 -0.4979386072677037 0.7909710912141991 0.2369577524401145
Ni 5.770498841950043 7.903763314431466 12.537145266097891 -1.4512728062345779 1.5291330090471664 -0.8761404260936911
Ni 2.134587719468046 6.388573008064553 0.2142064971276015 -0.3853646551230137 0.24020042774712827 0.15943693524481575
Ni 2.6140200420595168 1.7116562305382486 0.15040152136648205 0.7576010003941855 1.1123926678263487 1.0386796544129142
Ni 0.6973013136046489 -0.11223309647084398 4.6343644172373155 -0.7510819683287452 -0.5944457357575182 0.1697632568714883
Ni 8.887905602393106 2.354944596082784 1.3535448109483499 -0.5720326581696406 0.3529471580242567 -0.15529334539008738
Ni 6.949457527017503 0.7610582536874869 4.783052968189608 -0.8456540845793757 -0.8823247005275321 -0.4849805044451389
Ni 0.7581724876563869 7.322613177245038 2.0733494803275527 -0.5158113737830665 -0.7903619968752905 0.9384878779826611
Ni 7.797386945376755 3.7507526469168817 3.864457629076955 -1.0114717265395547 1.4990747562092055 -0.04274896093175218
Ni 7.503009807530882 4.014006290570553 12.69582251913208 -0.45766844689374725 -0.00075461877783741 0.14017628724299086
Ni 8.11925317986938 8.983922578942957 6.704451096775936 -0.050571285189648395 -0.8608927559060013 0.7205722297756623
Ni 6.978369567341652 0.8639189548921233 0.30089548875531713 -1.2325580591650513 -0.7522785597400076 1.35470679948237
Ni 1.7433688415395634 6.734665538415 9.302899422070274 0.6231680433928751 -0.5132487552622128 -0.18260386027958228
Ni -0.09131491807957937 4.8595792416933525 1.3057592807273344 0.33956713717292486 0.4287288810412616 0.9136847028960522
Ni 6.383724123558779 1.8540774849751342 6.990552502954103 1.8506497164762838 -0.10413893400345937 1.0906241658010056
Ni 3.428179472253321 4.293655508188607 0.2751873375391897 0.16604595592090113 -0.43533558772450187 0.33590125828556344
Ni 6.089963292528593 5.286235761523847 4.679372941453528 -0.909301486226692 1.4220948991190412 -0.03025545645043176
Ni 5.201946741143102 2.9482939828856094 9.20223114172909 0.9826005520311593 -0.534391450778099 0.315151941553354
P 0.0072388860836668295 5.895654442212163 12.641594770020028 1.0245810102280033 -1.5581497079944906 -0.07433624881973004
P 4.189264009613829 6.145059309183922 12.554216964892428 -0.5334221448862942 0.5093684463712002 -0.25019970505168526
P 2.5602110190487117 8.297338659596399 1.4467720928236643 -0.2390344324634851 0.8950526896171617 0.113917610656778
P 6.333368231382927 7.767070088046261 5.932262160730429 0.4371469299016278 0.21035840468503128 0.40114042990003174
P 4.666276421620176 1.06082716983707 12.742090846986242 0.2878136587497172 0.44908173366600074 -0.5194191457389827
P 3.8938445881826036 6.060743098796602 8.377273653591025 0.10789068773640774 0.12833995672969511 -0.3432263311920669
P 4.605407060235543 1.2212028919486069 3.758495454455728 0.43025071700242673 -0.2327347154977024 0.38512142876395605
P 0.3042743002389668 5.609289292970223 3.6489659509719354 -0.4367152416808479 0.3155293794974308 -0.13992354780223643
Ni 1.4603752531128538 1.0148760587262764 2.5055536678327845 0.32795706373782224 -0.7442708589441828 0.21218980146681524
Ni 1.8243588077892778 6.6409325224174 5.023058249888585 0.5844271751792516 -0.13731670630700868 -1.270703202776205
Ni 6.011592630245549 5.557247620386756 9.178777948391534 -0.06056259207440537 -1.0438000063586153 1.5690704686720525
Ni 8.269042926087938 2.22495823798594 10.170225284786174 0.7765672570840433 0.20496320181138894 0.36391291300714096
Ni 2.457632187578897 5.219846828804605 6.934083390966766 -0.4837682293045926 -0.42921481953874474 0.817430056736676
Ni 0.4168200817854168 -0.03520652684612971 9.347337862481977 0.40599492977885565 0.6452296511786049 -0.8357723066892896
Ni 1.2856160175234412 1.249833968871486 11.411256035862412 0.5017875487001487 -0.02075882981390618 -0.2648506221956407
Ni 4.175931843056832 6.815129831204275 1.723044311625174 -0.467747171285988 1.2133395772550717 -0.17410379322837113
Ni 5.661738815652306 7.53794896597903 8.093095487211222 -1.1237235194581354 1.5228273785441127 -0.4333992899337375
Ni 5.38847018624372 2.7219824948310696 5.20733761311326 -0.9220808973795475 -0.30995059985807266 -1.8533987399763305
Ni 0.7615648941433238 7.272909845226971 7.0511345566026 -0.22630335805006188 0.2362123896336577 0.30386222757214765
Ni 5.267529037000637 4.486332958110571 7.0704213345993985 -0.4167657951421144 0.6377850219751017 0.305648372938293
Ni 8.132159369656712 7.120092944943127 9.236547649026683 0.1844141740154437 -0.40326647510409896 -0.5605472832378604
Ni 4.69924883625944 0.4997867615130924 10.537761666988326 -0.013899383689911546 -0.8377556556679057 -0.5559653202941328
Ni 8.08400586801339 7.189699361773679 4.816415106256438 0.5461002545745949 -0.4298431971513629 -0.22571123299201773
Ni 7.260139605472513 6.071900064827645 7.09435216571911 0.8856283109794683 -0.786200152188117 -0.8177532444040497
Ni 2.3421652929928 5.3276280148656605 2.669562881156218 -0.3233722725806173 0.14875580138188574 0.009705657323538125
Ni 2.4933598562177033 5.1162619670915355 11.322632022100148 0.18612138651453752 0.5863621874184354 0.07962552224312737
Ni 0.9666863037408544 3.30837123995084 3.484703870587359 1.3169280380716997 0.38352657347301045 0.9068723079599091
Ni 3.239988373416138 2.6034250028310124 2.674829585429686 1.0586517266594673 0.4613294406851023 -0.10021851590313062
Ni 0.8999810606117953 3.316899838679687 8.348634419666174 1.7821359878756018 -0.0016647892969326168 -0.18338264742713578
Ni 3.6105609730191 2.922173449903103 7.24189964272883 -0.6975413160981278 -1.4085014767053228 -1.281508006701193
Ni 4.198925525283278 6.7108380293202705 6.037839143591851 0.6544105463469245 0.560468607481125 0.0544968454962997
Ni 0.8236994971672205 7.5163329107523555 11.505783000051984 -0.6823273273618506 0.047856200251330486 0.3250761426456015
P 0.18599323997241624 5.372999072502867 8.13017087384257 -0.02104782180923472 1.3755075382778053 0.05775623297386183
P 8.546933856614178 1.6598773946850014 7.981509512896849 -0.23052022434488686 -1.044325282734466 0.4711705951452401
P 1.7111940004264832 3.138868738965818 10.513725701176524 -0.6764348731368157 1.2682943362243964 -1.0741097130857502
P 4.067915010272131 6.290480527679519 3.799935743475823 -0.947541246434181 -2.109026815132439 1.0871045826835213
P 6.904911232913055 3.878445981125949 10.47228541215643 0.03404269140700589 1.251790167921786 -0.6736341704632269
P 6.229366456235717 7.726919511671348 10.364891230522284 0.6283837832658596 0.4685434419350382 -0.7239974534071273
P 2.5749751926186293 8.486590168689984 6.108343736972911 -1.0668849132025369 -0.3174530788827049 -1.4596867413298862
P 6.746339114570956 4.1399594643588555 1.611485527317376 1.092884422590092 0.1414906351790402 0.4083716575411483
Ni 5.326241324530365 2.83342526844415 0.6405322052114404 -0.5690856597261746 0.04713706269711882 -0.11080194784593175
Ni 1.4589069927578342 1.0425373587480007 7.071150933109146 0.05303388779752802 0.2303839558773387 0.289174800763302
Ni 6.945614672754983 0.3574198870893557 9.14889159949847 -0.36284693363647186 0.6162831433475838 -0.9564784010228108
Ni 2.7065566977678404 1.5713557966141687 9.150908191652741 -0.15172105465779678 -0.18054672064023744 0.6059066852092663
Ni 6.532761612928778 1.9654296252329664 2.6451951972642105 -0.8923034090067987 0.42445416492530774 -0.4790209444275944
Ni 4.17293187899812 7.1004798868674355 10.379588335409318 -0.8520923840055519 -0.4703851231294673 0.10769245568267259
Ni 8.015124518024823 7.577764198939526 0.2011571066389781 0.3313146673561455 0.33399812772557963 0.691781530796215
Ni 7.639748350593711 3.6980674775111537 8.201683310133987 -0.9275172379037703 0.6015417233723511 -0.1354796530982699
Ni 3.1770163181897484 8.5219190505657 12.437590869692707 0.13620110464532673 -0.6814570089417554 0.6302966840178564
Ni 0.03951342388752007 4.828845470928717 10.335336599709425 0.13599413084084322 -0.2109063067687013 0.022881789694179946
Ni 8.836634313329249 2.034972598714844 5.673486711159567 0.2941025770822225 1.7924317133746548 0.40169758795508237
Ni 3.611693889959701 2.533437925908419 11.194145646032661 0.7706951145739823 0.419789926680419 1.1172145146950243
Ni 0.7918473107988234 3.653240220005437 12.457594557529518 0.6342680099607786 -0.532799937921263 0.8348603363979814
Ni 3.2186079649131076 8.543045685674036 8.14302540261741 0.7748482175104074 -0.7243982883899718 0.5670665724136169
Ni 5.702804788915227 7.680324903738292 3.785079123883552 -0.08291113497293462 0.809012264986626 0.3009234566587979
Ni 3.1434457234058475 8.379425289444615 3.745363587613829 0.48984554584692414 0.06082844414128234 -0.5238517275890398
Ni 3.2183904448605127 4.125249670802087 9.196964437455621 -0.4567773025380456 0.7970160118566983 0.09328527911840709
Ni 7.3857755625174475 6.257780013106 11.360795008994472 -0.6651161056898868 -1.0545346191673002 0.5639149141585127
Ni 0.8367534193236063 0.1686405777766124 0.3479541394672427 -0.6203796820144606 -1.6107470224752325 -0.18493019441991376
Ni 4.620252803825183 0.5137968655673458 1.6142570953208633 -0.25652359038718403 -1.0282885409865774 0.31604848522569445
Ni 6.004296645148076 6.096053854001267 0.6000671310938152 0.8297548968506162 -2.362711136298615 -0.7657249150529005
Ni 7.871715360015734 9.087534630662601 11.278803544169264 0.008675416286810867 -0.7640475273504777 0.6517371132798195
Ni 0.2874563748391269 4.8332593153293 5.901606334651307 -0.9765558884989761 -0.6278507935805251 -0.4479977565732026
Ni 8.1903822370681 8.996484361980347 2.4566180003336706 -0.41099906786166635 -0.32294572656615994 0.049554156779043686
P 8.486118875242694 1.7492146929530668 3.570714924717819 0.8500820384437424 -1.4984165537999161 -0.43433851391855527
P 1.7380758535930736 3.5410995695569456 1.41695190627993 0.20334186415788205 -0.4606563258774776 -0.94894661142214
P 5.00047785576207 0.9411276975608863 8.258445167858776 -1.7843846747004621 -0.05005989277086863 0.16745929132865997
P 8.646150190604288 1.5848692298816625 12.572536684988728 -0.8775889856147596 1.527422711224279 -0.29652301359825706
P 6.355691226780538 8.009786213400709 1.7194497927560337 0.2358148970849229 0.09447184322734054 -1.0804153435888038
P 1.89440026472502 3.2451726013363302 5.766686803028307 -0.13127641365019974 0.22721301434852484 0.975011426829992
P 6.990876970365892 3.8966360955242454 5.981263990578874 1.8253084094980179 0.039980654157995656 0.5707913295633719
P 2.283008902022356 8.662872044647566 10.465109063087885 1.5391245730422396 -0.3244757900574412 -2.1605897748113954
