# total energy = -340889.8172607401 ev
CRYSTAL
PRIMVEC
9.09115768763647 0.00000000000000 0.00000000000000

0.00000000000000 9.09115768763647 0.00000000000000

0.00000000000000 0.00000000000000 13.30582822415576

PRIMCOORD
 96 1
Ni 6.301799496383086 1.7976854930902284 11.444701866394293 0.4581315025730949 0.4264971634972655 0.28922390883368254
Ni 4.715074314141238 0.3673282206347258 6.232968524372947 0.6097389144711628 -0.35418154465199003 0.2871708829593958
Ni 3.12017618126579 1.3052993092566094 4.952655352514989 -1.845513937911615 1.7443384574118541 -0.6373978138390118
Ni 3.6130623787644236 4.3890744957093455 4.850000728856008 -1.4910092055922515 0.35481223625745345 0.2753643772427709
Ni 4.971817694389853 4.3957019495601735 2.9434086230626084 0.7240784431567079 0.2930006022672954 -1.5102595691814311
Ni 6.979763479197442 5.716356223911499 2.2119740880273593 0.17133008713797587 1.7117404688711746 1.0366045170514404
Ni 4.788912695727557 4.510450540102223 11.520452118412477 0.6075683891824052 0.20897052319856912 -0.3970911995313226
Ni 5.6560818493833915 7.901897771374685 12.588910409519556 -0.14306363609311493 0.2674800893986877 0.40139214089952163
Ni 1.6889188842132612 6.807349676342905 0.4575825054013479 0.6867236566573334 -0.8751387243020542 -0.4283280460584172
Ni 2.5577153550697784 1.8405230274456503 0.2095057256410656 0.2981551498850414 -1.4617006864361215 1.99789525186123
Ni 0.5227206492164156 0.16780549509461287 4.968023954346025 -0.37347587410522776 -0.14510072112780173 -1.228126505756259
Ni 8.706937954363083 2.353909785209878 1.3345082893352458 0.20671489439517304 -0.07729867388216366 0.7067312101275119
Ni 6.982008995111234 0.9975181705463347 4.892486435414411 -0.3704663978549426 -0.1260781572787119 -0.1914613106702122
Ni 0.8880469969595745 7.556215596856314 2.946269610342246 0.17449820045331238 0.9093379958915824 -0.7259710321937304
Ni 7.609362503868579 3.702755739110475 3.673379481732997 1.1443021149404358 0.793090451550047 0.8257372910507907
Ni 7.898570407712953 3.7695757470715003 13.049052075770023 -1.1792827447806786 0.7576606499875275 -2.280283368720002
Ni 7.908316128601961 9.119067399383106 6.897422137958612 0.33428917660343715 -0.6753519244852821 0.3273140308371847
Ni 6.725401982225805 0.9743266276472088 0.409324822917169 0.5067418073816305 -0.5352365723872137 -0.47454156850000206
Ni 1.8632236478373077 6.114094366536651 9.03203592996644 -0.2831936434792026 1.3795272009601596 1.1841678407871221
Ni 0.049230436341570774 4.874324120869576 1.5700347261036647 0.6028241896292005 -0.48863095671353257 -0.11475990405241526
Ni 6.26593487986523 2.235079264929801 6.9431006590470705 0.3047798542904106 -0.6659177756555756 1.4513067447963068
Ni 3.179341434573321 4.535469405668038 0.32681256791648006 -0.37167738744390827 -0.9887640005293938 -0.08862052665288608
Ni 6.478758878010483 5.830141151753704 4.737779480111668 -1.7328759652982093 -0.5130258406181294 -0.8541487523139484
Ni 5.53061478409494 2.8765240678830084 9.414778208219932 0.008246299169192249 0.5519181468079527 -0.03364597018921947
P 0.09684082840849464 5.648581644408174 12.805209957194537 0.5505955713417873 -1.6964367486345688 -1.7698170612989326
P 4.0215462696086135 6.236497711732196 12.708849141904457 -0.44197160498378074 0.7642002508782582 -1.0987879325587206
P 2.4788586545182225 8.467867784383344 1.5726020689945754 0.0877214118773844 0.9542446265962857 0.1784867527874152
P 6.442485159403068 7.997236740556627 5.810655164670212 -0.3383139814921141 -0.8876880217219744 -0.13374647245724708
P 4.547751559512303 1.190250710515551 12.663688816796103 1.2178824594307478 -1.648408027361116 0.5350311412446269
P 4.130058326074301 6.239170512050636 8.190482021811421 -0.6871982823009068 -1.1210930238138241 0.36491590035035865
P 4.883924383237853 1.1062665971082104 3.7525761915767624 0.060113163241812595 -0.7134399896062551 1.3783113262751876
P 0.21688047264215185 5.634163068540666 3.5630210111697744 0.05291098906641856 -0.6871612584153843 1.136500873728462
Ni 1.4881861256038134 1.3151904886663501 2.404296616791264 0.2874228510692018 -1.9234792988435003 0.8165548532205743
Ni 2.1364402055587632 6.607826041687037 4.76699936957936 -0.36886202948230024 -1.036697590985879 0.18253264072201467
Ni 6.004764105891851 5.511332438940474 9.352493778758465 -0.3260971277109481 0.38421588623055114 0.04622663506770749
Ni 8.696264935404411 2.5408603489800172 10.431808730206638 -0.21543556209762252 -1.7828764655860523 -0.02789389819679067
Ni 2.4398757709621846 5.161786522465171 7.052288188518405 0.9048797030099125 -0.1330892984892224 -1.1090265795675933
Ni 0.37041194127423327 9.077538991714267 9.194047630357167 0.5689650749879105 -0.5600508032174162 0.20303410310947612
Ni 1.485431504867461 0.9072729769372583 11.354222120920538 -0.37763540479955604 -0.3248701972823824 0.05893174133920173
Ni 4.261634649233474 6.910807049213172 1.5287199606371502 0.47522445349963965 0.7301123080556136 0.24676214012504602
Ni 5.425193721194798 7.991791137186742 7.924964765415434 0.7952293522699208 0.019109210025625153 1.243254362536633
Ni 5.40211127218622 3.0099458960239622 4.8503998306722655 0.1293473149482869 -0.8480426394162103 -0.29105402006388587
Ni 0.8352955553005471 7.632581320240342 6.944258872518395 -0.910600921764406 -1.4551466873676875 0.3167177433785771
Ni 5.051292593654518 4.536560344573524 6.933227661952422 0.8165250284239034 -0.5855111522720496 0.7973762234095945
Ni 8.004009652928186 7.038919641347427 9.342859879107266 0.5143054786615014 0.37504913212961866 -0.25869668677910285
Ni 4.33017288597064 0.4375401394760586 10.439792584763289 1.0840040893813265 -0.8268760326409242 0.489251363906351
Ni 8.408384340561712 7.003518673864402 4.983311644874903 0.9830237556115071 1.1399183840504432 0.06881968987687502
Ni 7.032510375277696 6.134349465548511 7.061070246707569 0.4927647763762481 0.04923688264894101 0.3078116991381989
Ni 2.382719663472257 5.483922598940134 2.399999226619403 0.1172685294068819 -0.4434651588101718 1.4431483773552305
Ni 2.221124338097124 5.3246546098967045 11.45570580348763 0.035062133810455746 0.4176829076397452 -0.05227901190937448
Ni 1.2279881054878254 3.410902308420298 3.74625601885098 -0.42717747739374173 0.8706007272223845 1.2803687508904273
Ni 3.481667878756165 2.60732580179676 2.77485038012321 0.7163286240079598 0.3217378223009878 0.43732690712291783
Ni 1.062019933333202 3.3682375060582443 8.04830904541696 -0.43014787287597533 -0.27466915094795924 0.35328371542806897
Ni 3.557315400694082 2.750866088286098 7.387888269318577 0.7260558785980529 -0.39147668155802257 0.10050956478098819
Ni 4.293108236656749 6.513668922986039 5.988886399238255 0.222936498460358 1.972706411300428 -0.15413197809213455
Ni 0.6180768915976945 7.225206550616729 11.33985172818802 0.6729821387015249 -0.05084587900727372 -0.4488999566724979
P -0.0655145177374604 5.63009932111773 7.91136621195855 0.829784464536971 -0.021963905865600885 0.5970674896510815
P 8.564488606779232 1.6417903234962605 8.119708269433763 0.370411119136975 1.5135945470919352 0.3759652161859848
P 1.8048402340787084 3.3957382576340405 10.259924032721264 -0.16768374863464025 0.02965921762732957 -0.8496814605712142
P 4.328418292564317 6.218360852428488 3.798521083581311 -0.5139496379839794 0.6484170477676511 -0.7115633414088326
P 6.892033808881266 3.914825171179433 10.825395850296417 0.31030875452843976 0.7692871784828623 -0.12464013928060469
P 6.307981483514174 7.922261964277093 10.408723553850798 -0.3007794748817659 -0.3558612463472581 -0.0738636800586857
P 2.4915680927671358 8.454621967839232 5.7427151260995535 0.43949871796325596 0.30835831567028826 0.1659865634378754
P 6.687610040308256 3.671736709564486 1.6200115464797389 1.1961448106433399 1.0935022586797492 -0.705769617545191
Ni 5.000236652877767 3.0240280990622788 0.5473249579981462 -0.6554299887503744 -1.4108028711449896 -0.266282983766793
Ni 1.471322028356507 0.9468258760714126 6.9783616227038925 -0.14668246379262478 1.6027439496650977 0.45183641359300253
Ni 6.938598717830432 0.6608980618695344 9.248800944907764 -0.608545408383694 -0.20222292006209042 0.19041615723514949
Ni 2.5001956012780218 1.4303663636130484 9.233925083815704 -0.12932648901268048 0.579167469442209 -0.29781884959154514
Ni 6.4832953656257954 1.8865788315722567 2.658690841930065 0.63549056951397 -0.7630607379571762 -0.12576114025892535
Ni 4.156549959162522 6.902370455010747 10.355859381838206 0.5655282813922196 -0.14327446655234036 0.16567366018314694
Ni 8.191260224897334 7.282662666305666 0.3263343730295753 -0.2899980679955457 0.6598119198681539 0.4768085101573079
Ni 7.526614787887456 3.845832376564981 8.412423541859274 0.7532370669985351 -0.3672944278848642 -0.8703220196397012
Ni 3.1683047693128197 8.295826718988181 12.233245234900231 -0.21989951140624708 0.019246249824121694 1.5920648726846969
Ni -0.016011346669518107 4.780412463422312 10.080469128347568 0.22671422033523536 1.616398564334055 0.5448812945658293
Ni 8.641690716657466 2.4372120618012896 5.909157856678063 0.545684250083099 0.08170503047997542 0.15404636035686373
Ni 3.3901835603736075 2.5272145215038955 11.572877187515614 0.46874784463636043 1.624352529073809 -2.1324876172585405
Ni 1.1662409634373105 3.307117653878384 12.344947378548712 -0.9879371337527244 0.625881071448664 0.6682088856825976
Ni 2.8828787870074652 8.306154273960116 7.934225018491503 1.2359002361644071 -0.3241027229887386 0.9821963746142051
Ni 6.465976710501203 8.239316083683999 3.529570096980306 -1.286327025356391 -0.9483493441577733 0.46787829754721355
Ni 3.4585490651174045 8.371346964720457 3.5745176890020893 0.4105846060320671 -0.2798704926432406 0.036410934528866325
Ni 3.6869553072960177 4.305290387768011 9.431823219502398 -1.1675677703365956 0.5310770416928854 -0.6864758023125854
Ni 7.140276956824635 6.1066214350340715 11.642159990055772 0.4916972543436822 -0.9108400343584055 -0.3728510960370353
Ni 0.7312454389582983 9.040928900277661 0.30209461966542805 0.2901379360075197 0.44415781400182214 0.04104971885245833
Ni 4.62059900492614 0.7380619888860774 1.643443095938072 -1.1985547056364132 -1.8353318551722908 -0.9365677781418127
Ni 5.750984443003139 5.206251374021276 0.25209234404822584 0.6382154246443008 1.294134951436584 0.27327664147580677
Ni 8.048719965738027 8.790631150728961 11.612249172614607 -0.8308890104550594 0.9632653420376572 -0.20995731259187064
Ni 0.3479886011877204 4.731583856244262 5.926176503603648 -0.49017464705156877 0.7227337562033552 -0.8978688189097183
Ni 8.302145073482455 0.040094732123879005 2.32885273678237 -0.05584975997976833 0.12322911786569102 -0.24293531017978803
P 8.769703306058718 1.7940672123870327 3.636828482820439 -0.5029190912014306 -1.0804084016102684 0.4828421179458975
P 1.822986184539961 3.360237287418013 1.6780649512194288 -0.39856932673874584 0.7298176596333302 -1.6570533617409398
P 4.716492534718371 1.213760443928777 8.479351734595094 -0.23203640387909713 -1.5664392016967925 -1.9425427432328546
P 8.830059501004738 1.5588153285764945 12.55737500222497 -1.152778527842563 0.27485452748588796 -0.18883467168064252
P 6.49874124229597 7.892288417848861 1.4284335835188287 -0.6867439683723076 0.13757304529218886 -0.3605095437525469
P 2.1230943862816494 3.163404635395678 5.918924487229429 -1.8260895106384165 0.03369919202465809 -0.16832729575591007
P 7.04409250999094 4.056801778570907 5.957883733775847 0.03773710953945759 0.32316452744518537 0.328210317399209
P 2.4024020195587363 8.244207126443596 10.20163153053812 -1.6327636359556397 0.36055248117534033 -0.6318002651465764
