# total energy = -381165.929180464 ev
CRYSTAL
PRIMVEC
9.29902379654604 0.00000000000000 0.00000000000000

0.00000000000000 9.29902379654604 0.00000000000000

0.00000000000000 0.00000000000000 13.61006128597132

PRIMCOORD
 96 1
Ni 0.3340609151275985 3.2140773365394075 9.720619059335535 -0.036417876507401796 0.450032013394412 0.8349184433294266
Ni 1.0118918559704682 3.7885524192759616 4.729060320236116 0.5630960178016431 -0.22317072595835116 -1.4190545696308208
Ni 3.714411303754926 5.473014758413362 1.858699075074839 0.03662690719441434 -0.13061409747585248 0.577075877020503
Ni 5.092535906957361 3.654441900268765 0.5603917114263057 0.5368000602195916 1.6647227053607396 -0.19460062763014227
Ni 6.401866333234595 7.280280003805722 11.717201267310319 0.639925208246556 1.0327450340960342 0.02646282217721894
Ni 2.128258242591737 0.2140300478211923 7.359776427043874 -0.3346679000990946 -0.031104948934920627 -0.24395758079671534
Ni 4.687768005740799 1.6187368400150273 8.182232292929264 -0.44152500436466546 -0.19992589649779763 -1.3485536353967806
Ni 8.326885115042717 2.2783723812918604 4.712728445008524 -1.2066074007375607 -0.47027225170068687 -0.9778401545280385
Ni 7.107318164010003 7.585167092052078 6.6810834667091195 0.8123241029686783 -1.5434823357903031 0.7514259819317253
Ni 4.176331004293234 4.745273167961054 4.288516285350411 -0.47282432869857927 0.48122643671934545 0.5412431835926097
Ni 3.145301757661497 6.462793536156184 7.9941688387341765 -0.06079064892481144 0.06556287350247418 1.0816345607078854
Ni 0.6674188240676403 8.230677416412261 -0.09240811756913837 0.12752645968946424 0.45296795609428436 0.7513563050360543
Ni 0.8185949112680143 8.377155636867215 4.832388281271497 0.034068145328302615 2.2077504916575976 1.4447820563039118
Ni 1.7483745286490116 5.453226436096949 6.331059847592631 0.4852764384190029 0.05161592440407885 0.42065664555608845
Ni 1.5794391660915483 8.180788154557206 2.763672616980618 -2.1965764773186494 0.3061237699128147 0.4281809789575916
Ni 1.9635353377454277 1.3434671420777766 10.897711789967662 -0.5566674885674799 -0.26028948518751943 0.7409693053747755
Ni 3.0439052038371686 7.763020218285031 4.514280771109142 1.8546614087388382 2.1388097028218263 0.5469008960990194
Ni 0.41864948371371435 2.9094413219314648 1.1013503232394344 2.4435095958039206 3.035768865433081 1.9710012556838634
Ni 5.869264753971166 8.425073505709545 5.003711633100979 0.7720362019829091 1.842932807448 -1.2586609268996902
Ni 5.606362757481675 7.286454555505957 8.43156887372553 0.5510347157617349 -0.013694209657640932 -0.4818558427732283
Ni 0.7235161141080517 1.5893426262734 5.8055348253229955 1.8616620084263875 -0.8963739795317467 1.0260251988736975
Ni 2.6606924394295577 4.010064461521865 13.252402188215836 -0.4457899502886065 1.8759686548570467 -0.016683117082635784
Ni 6.601507071867622 0.3907403240481826 7.805737143202751 0.6456464270010494 -1.1317399620047088 -0.893561706893932
Ni 0.14515589929264558 7.823761440733721 7.211427243031559 0.20688021632844372 0.014685627036632773 -0.03857888871446259
P 5.22963141255458 6.376619484038606 0.6940409988607136 1.5271036373219635 -0.31839667374289676 -1.0116745865789802
Ni 6.699993031291086 7.058210020141122 2.1623252157149424 -0.4853409731083512 0.46012230775087853 0.3996085666365376
P 4.837314903998582 3.576581175289757 6.606854010463457 0.4221417147420472 -1.195272692451032 -0.6353949244763702
Ni 9.250213069818862 6.253779381689068 2.909191178195416 -1.162104176118863 -0.15021387398465097 -1.2021514218487361
P 8.048100386167683 5.87408164821924 7.809888227357848 0.7439610410132478 0.8021394491261927 0.15055145982972784
P 2.1086651997718673 4.118323694796153 2.3729276434206135 -0.8024744638681083 -0.0882492593563964 0.04813645049591065
P 8.21587337076953 4.3141518337347575 3.7130964218115325 0.6615687546582606 0.6209880050224209 -1.289604153445766
Ni 7.878132831985632 3.327004679683451 11.283829569361949 0.12289487445472386 -0.17518957009338218 0.45443502755811416
Ni 1.4000331029098925 5.859342695742025 11.246660441950795 0.6197600461525907 0.8986879723769039 0.4762459527856185
Ni 4.517772554487814 9.012446334241618 2.988837315714251 -0.38237986146307695 -0.3574455601152425 0.2901212238369713
Ni 2.8542702146460885 8.357953153040434 1.182229511293587 2.213844006149845 -0.9469779177315433 -1.8400004642925538
Ni 5.935808567174293 4.682597748594217 2.5330503212697755 0.25844291889708393 1.1033737521571902 -0.29236811088961906
Ni 6.858290310798749 5.107153972127192 12.58539996040749 -1.120148914733 2.063271206163879 -0.5008501244875438
Ni 7.591760099816335 3.9411958924075057 8.657768553790843 0.5242492201377745 1.271582777167681 -0.5633364159472234
Ni 7.870777304282492 8.957637888878395 3.8730963525485813 1.9147025810921345 -0.8771624396003022 1.263097108294173
Ni 5.9261933767254344 9.274939173690735 9.864109503493374 -0.4948178022505349 -0.29838346384576353 0.9968614328255476
Ni 3.7870831735400627 7.008980988964857 12.765393721883504 1.0408859180356138 -1.2927506694945476 0.7268313233114966
Ni 2.369223842302837 1.4271955509767362 1.5357588623242135 0.06291078059160778 0.14247202525570302 0.34562208511775316
Ni 8.575289933669762 1.1636519218557437 0.6089902687994446 -0.9185124633019988 -1.5019819025536714 -0.2967999214087276
Ni 6.973960865918047 6.126150282162388 4.628918204701488 -0.10131226318794165 -0.0941226874180379 -0.8013912581062586
Ni 6.882002821093323 2.1094277197107516 9.57353454253893 -1.3479841360465559 -1.2948592311971183 0.5503083791186716
Ni 4.094657679619804 1.9944080962465989 10.355106321067016 -0.27111202972432014 -1.6011673492065972 -0.2671296480378044
Ni 8.500330504067973 5.4459731976539025 10.57801135705493 0.960333770213159 0.8872961856001944 0.029751520230819728
Ni 8.437664383724783 6.20284862918578 0.647287367778729 -0.8095354844799477 0.533663571473139 0.7066229666844217
Ni 1.6439464931164354 6.089642315332389 0.9284861231919875 -0.3485225465939998 -0.16697875214781563 0.33776505096717957
Ni 1.9647442108192688 6.040041323210326 3.9913408774127963 0.02244187394328393 -2.598096402045287 -1.2976784458134683
Ni 6.1013776831722915 5.317079430911512 6.749338300262914 0.1087877456293804 -0.8767484919913352 0.6310101651451132
Ni 6.987993092598248 2.513628380484972 6.8125567826106135 -0.5104915042320498 0.17585831402563262 0.0903753045604637
Ni 8.787316971797837 1.4043292518338506 8.303185623381246 0.691241599132345 -0.25810584727263935 -0.41690206360966264
Ni 4.7371923164136085 2.106740301877367 2.3947450126963505 0.031330691792481526 0.0011037745871400344 -0.16834169393361328
Ni 4.479051420030321 6.990857191880886 10.303142447036775 -1.0321117713874095 -0.6389091082772158 1.446644306323631
Ni 2.6928484631937293 2.9497153933376614 6.425650446011235 -0.1143230736253128 0.35186703758620047 0.3533217677548561
P 8.809904300231375 8.397027650396433 1.9856670140203638 -0.02209734611967162 -0.2469727134739553 -0.8777589355337205
Ni 2.3936616764417162 1.0522775156604038 4.001126239994358 -0.7803737753143271 -1.0113115468126068 -0.2602352349108163
P 4.002522953345826 8.302707653565898 7.35071266869716 -0.7469553477548813 3.2560895235371476 1.8028184559256175
Ni 7.180873441041409 2.6505936997511625 2.351491534114318 0.8980457108072147 -0.4063638830825001 0.8374679492241578
P 2.4716990828699776 4.405254368384147 8.297550415052418 -1.252502106387146 0.42810615985559825 -0.25949038632499183
P 6.273205042083329 1.5019132059637577 0.35640274933690996 0.7983666123473218 2.2006372776515843 -0.12450258526147592
P 2.6510028567915396 0.35723315214840234 13.131082476232242 -0.0466305553743455 -0.2704006054795924 -0.6658691818058274
Ni 9.271200966185472 6.424407166549908 5.122731696537181 -0.2500444104207436 0.7726098150981919 1.2248056689131421
Ni 2.2124794997438784 8.165323878235686 11.619276968915006 -0.9403866376672707 0.699253413693228 -1.5610586541111697
Ni 0.3382268777205277 3.7378913384583767 7.316238398338307 2.254817106128097 -1.9305444332203978 2.167411939939551
Ni 5.405940900862474 3.2727634747625682 11.484904217441024 1.329185515282814 0.07943191817508255 1.3685344493940819
Ni 0.9280369803499374 8.725441268464465 9.338366884070446 0.5843266450456454 0.5342186726456606 0.4854394463594285
Ni 8.417280923895094 4.579276296875388 5.8806356000841875 -2.9064747723202333 -0.24247816803771147 -0.004067485201154285
Ni 7.369857498577344 3.453071543237782 0.18009605073610974 1.6407739078546257 -1.7829145179128392 0.3883751598145634
Ni 8.188655128560818 0.1121378560365887 6.041628666546516 0.27220526278849894 1.6525685864967086 0.73967861158781
Ni 7.472602410830188 8.512781896728535 13.684371593398549 -0.486044426933279 -1.4091432240543795 -0.7985671583939022
Ni 6.42282633253027 3.56327427245386 4.5536816641950795 -2.280211634941802 -0.3468919529691123 1.2839904068034147
Ni 7.994751887516713 8.085268583676473 9.692160327372587 -0.15973801142500232 -0.5187884541335194 -0.06118685592196559
Ni 9.123653358011351 0.25321892316802547 11.555772076639045 1.1131917666888764 -0.338945701538842 -0.30301813440429753
Ni 5.011764587577489 9.25328174762169 0.5231147153408704 -1.5392623841716846 -1.6824802864544766 -0.37784032172151055
Ni 6.773427421015107 0.2376142315894666 2.1383718607079643 -1.3262793973796125 1.0073543619370717 -1.17426652251301
Ni 3.993400611150149 0.5128504530415954 5.730094636198763 -0.06352270314399382 -1.8864111903466092 1.4769241882540953
Ni 2.623217374140485 3.972812572800272 10.560481767581871 -0.19904657921663785 -0.5617269053682584 -0.2095557062780778
Ni 3.3846214301874444 8.887337270122716 9.456637446200865 -0.1294560726120093 0.7925782878003188 -0.5334547978964426
Ni 0.7811998175822883 6.258828751528265 8.82721350284405 -0.08656775788891542 -0.8643999977283113 0.2818548700631211
Ni 4.6231490904321735 6.985519552308697 6.035844673839369 -0.16344091419788626 -3.5043588443353384 0.049245367289373246
Ni 2.13533479958553 2.3182372956576796 8.65134385835456 0.33935862070654454 -1.3509828136635635 0.08343332602499179
Ni 7.09226304472886 1.0171458043298542 11.962018522615148 -1.9678123164329206 0.4223479172155823 -0.10005293685954382
Ni 4.562296279699744 3.9052086709016227 8.838836352497848 0.4474431696213133 0.7309391748322831 -0.008747407175326872
Ni 3.772855667363318 2.1517196792478983 13.339696772682627 0.6036633977010442 -2.4030610008705713 -1.3036439193682838
Ni 0.28848082082960425 1.410894362527172 2.8534714285149887 -0.24716580332136792 -1.1991072357057735 0.5568526079950926
Ni 4.069903678676997 2.3562981994363827 4.705991302377771 2.087900060456153 2.0678840223455417 -1.1601781627407437
P 5.060277593933095 6.7276111315165315 3.8610792242922374 -0.9827689592882236 0.0009147985047855213 -1.417676201226055
Ni 4.526262563075636 9.113284946647251 11.679283568495746 -0.4517561951743703 0.4850576375399775 0.7075621906692395
P 8.810806305524933 6.871578615587355 12.25918091191966 -0.5447882206313907 0.1580490537583536 -1.0978757051570962
Ni 6.351679502622902 5.310133060248749 10.132458868034066 -2.0450924783723234 0.11890632212062101 -0.379544706007127
P 6.083895518719821 1.1236289240879602 4.193450506823552 -0.09142148643679095 1.3129114607131387 -0.6453075556043919
P 9.31734272151162 2.5403909705350842 12.712817972097428 0.06375384531819343 -0.6269377948479525 -2.150646033335122
P 4.342476659757218 5.027600824844807 11.27239734969287 -0.28325457862412506 1.4572225960601097 0.3674589784871865
Ni 0.3242299873301773 4.708365343114322 13.093763634540405 -0.28457201188396797 -0.8945186714905627 -1.3302820907811024
