# total energy = -381169.9326996698 ev
CRYSTAL
PRIMVEC
9.18285349339505 0.00000000000000 0.00000000000000

0.00000000000000 9.18285349339505 0.00000000000000

0.00000000000000 0.00000000000000 13.44003430463558

PRIMCOORD
 96 1
Ni 1.1755980715856205 0.8427829985250694 10.198982930587439 0.14002330660489432 -0.7221683706181885 0.2504079644077494
Ni 5.553358125507681 7.466376054309006 3.2419375117189086 -2.4445755751745897 -0.5541148973489554 -0.19000658050155664
Ni 0.0907679141593025 2.1550963094040396 2.8816638705042634 0.6341638802827465 -0.0494579975208116 -0.586555534376164
Ni 2.48176713527313 1.9402726376105526 2.7639562194064062 0.41100395295767284 1.6683903840203138 1.3264280071423349
Ni 5.591641441217138 4.791603706855167 0.3840673325878225 0.035506934657358206 -0.5289720795347407 0.6637513641318763
Ni 5.377800334734496 4.796158402127867 10.307067869636379 1.6909767539612621 -0.5558048834568686 -3.1840788375268003
Ni 3.233200026735088 4.214828686535899 8.369190120185344 -1.8419375334142665 3.5976718913678876 0.4953875587110759
Ni 0.638442472141493 7.1117067085075245 13.442856187797247 0.6800519010641126 -0.523322337448131 -0.9582406351295562
Ni 1.8409325298281318 6.782418769427306 1.9992853265228234 -1.462895220964855 0.14757052282453295 0.7037240478700719
Ni 0.8364615222635223 5.457287113525828 6.971601159749092 -0.9137073286038716 -0.035669171266835345 -2.2376117979934045
Ni 1.0741459075275523 2.907300560549278 9.066122776882217 0.2510566537353418 -0.48365381521391543 -3.0265776858521165
Ni 2.1783381112895364 7.707820818029026 7.27966017840304 1.576765009102833 -0.9433973994691366 -0.9125927553834541
Ni 2.7065909343891406 8.220187304794411 0.49687409484084005 1.374231756889175 0.9642955830743845 -2.189210523871881
Ni 3.190013067324779 7.051402910411097 3.9742177259020917 0.25038225337613657 0.30940758287040904 0.610547012194755
Ni 7.898236465558723 3.9922455036427507 7.498530733677735 0.49223230091154574 -0.07881536763700621 -0.0799152855694043
Ni 0.15413603042609383 8.362383789265735 6.178128247263035 -0.37196920765271424 -0.3736144565656211 -0.2701437522737799
Ni 6.702482030820725 8.301143340125323 7.4384408960648845 0.20123253112436312 0.37383968520254973 0.40595507767985567
Ni 3.0532161006364156 5.973648141508199 13.409431519807116 -0.2967814094659663 -0.263019739634489 -1.399069127647829
Ni 6.065531772352245 2.8735260258456594 8.749220670430667 -1.2515256014064897 0.9024397261098523 -1.6750402852366637
Ni 2.9287792545872775 1.4438843157131112 0.4866994933042416 0.21812750710748885 -0.528303078492174 -0.14013155004798447
Ni 2.9514884509771764 8.373880721687955 11.010371590003011 -0.18895037132290038 0.9342949229472362 0.015870134263037183
Ni 7.102101443880014 5.984658382701683 2.4831941506871984 -1.0110832328518844 1.9202286531166863 -0.8728288452219549
Ni 5.022203520742405 5.782176465840677 4.658477126659743 -0.08281960370039286 -1.592372890843419 -0.6298621675835991
Ni 3.944108986264728 5.9359066141477115 1.9944073948114143 1.2013803480106664 -0.8595568107033971 1.6361148118160596
P 1.584372789457172 8.409051050104177 3.8030594401796147 -1.0172862763388026 1.155511867613326 0.3051773468391454
Ni 1.4803494264548371 6.530092324461013 11.22625863621702 -0.5176198877467151 -1.2688201268208792 2.3680032379354894
P 7.568847515091408 3.9658998973173887 9.585580263021756 1.5628288586377148 1.535438382439904 2.446668967368509
Ni 7.169228102032121 1.9241383642352785 3.6093214362997896 -0.4706208932893572 -0.140804407745293 0.25149194150054754
P 2.2613327400691183 4.0713649682991875 10.361742578615537 0.23706393900067563 1.5391351145652008 1.7158349506555224
P 4.851485093696464 2.5903543764015384 13.404135768267265 0.41917543302487165 -0.013033179034874326 -0.10826992545269741
P 1.4240952666956297 0.24312338931649163 12.311998814412542 0.337589958841896 0.10612305431302368 0.988921866263497
Ni 4.518018956331812 0.985953783739203 11.796802172237788 -0.13027034098318854 0.8726290705063229 0.27516537385808737
Ni 6.217866126946678 2.704267672485928 11.118066257783624 -0.2161289886202213 -0.38570738317441317 0.9354400922952728
Ni 7.4856875949511235 2.9523700049009247 1.276426719899704 -0.9399027560523169 0.5696235345075158 0.379666576296972
Ni 8.451347272737364 5.949598248525932 11.337354632886763 -0.16627786942604914 -1.472023408518368 0.09089852405378537
Ni 3.5601922524722123 9.056901355525673 2.6604415864809012 -0.6491932638120432 -1.5320902919032775 0.5205905403392647
Ni 3.321364601963321 2.782395388978148 5.750936398667836 -0.7649008764897085 0.28869554713403833 0.03828346896123084
Ni 4.44775176232635 -0.0993906134759685 7.407649870421953 -0.5497262813629564 1.250376318293395 0.607615954590889
Ni 7.026223526464027 7.241019649697398 4.928863489353497 0.6535952495344808 -0.7773460442315967 0.7076992304677361
Ni 5.2393320887323585 9.196903138040998 4.763605186922776 0.43441333302054863 -0.12657952239516265 0.03570079583571916
Ni 3.4298416488512604 2.1989627999639048 8.158974404214117 0.723360848264393 -3.6687834626027334 -3.732181981464037
Ni 5.873031617107017 4.221752557978675 2.789720551113296 -1.2273659734411506 -1.5671807078485076 -0.5816084747835338
Ni 3.248434380479869 3.78519970865567 1.1874797655641447 0.6034304557546318 -0.5452998701604868 -0.5140180293280695
Ni 0.9061153016637086 1.3486581262415176 5.009100507265353 0.9695365197583498 0.21174345795801597 -0.2922971484423676
Ni 0.1756661484429789 3.23594569989343 11.004256727942343 -0.8870946111123496 1.370762567393652 1.618084179566594
Ni 8.4072144794297 3.2719057536996754 5.378163975728043 1.4947128796960838 0.032846357106059564 -1.153144138712098
Ni 5.11828371557763 7.500380160346933 0.9089684142065074 -0.4175900908156227 -1.2560695120234304 -0.6353550723773703
Ni 6.1186913105249605 6.084567827393191 11.97705974736696 0.6596674238704897 0.8230684859693761 0.21178022473322236
Ni 8.089350009944722 1.7077076931016246 9.617419970519814 -0.08362950119619791 -0.07562514283448267 -0.03878560540862997
Ni 8.322539388482973 4.349871728230138 3.205783699706507 0.3536585822689845 -0.776882731441933 0.9662879309140648
Ni 2.2508918357847207 2.4070462573820643 11.976306753390423 -0.48164655497589953 0.11412252757873248 -0.7083664317380898
Ni 2.430122767906858 6.5998636443843655 9.380875177359297 2.742494697789425 -0.3373351625186126 -3.0430047210598885
Ni 6.8258903972921585 8.860810704611843 11.078956485270652 -2.005117223530966 0.3093070527368028 0.6566402070083917
Ni 8.52980557195099 7.664982807046867 1.8422796544178601 0.7423098785630698 0.33080121805483675 0.12755474182423837
Ni 3.034124948475235 0.24076890571181306 5.409882469561584 -0.6955584813401441 -0.3267134211387083 -0.1977106340140337
Ni 5.155051860480644 4.068013226818268 7.016517250449421 -1.0236579841931017 0.009791789279441201 -0.5628522772219532
P 8.23279536247469 1.0317303078005233 0.8209819863336992 -0.643932015413104 -1.9240457128699313 1.468024057550988
Ni 7.413262430403152 6.677449572527615 9.366574719802488 0.8290406443924109 -0.17892898253115636 1.4580980566865278
P 3.238562813104559 0.31247046141404033 9.18719043402903 0.17871326697592446 -0.18913189120608717 -0.058269425164854484
Ni 4.983479428071073 2.223848332603058 3.9762076502278862 -2.2989364650448154 0.5919949602241804 0.3488534475708573
P 4.863312608840091 8.106439300070724 12.113690504409282 0.636590487446368 -1.6965658180132652 0.27476428176492684
P 1.1326957806298554 3.0369257187538112 6.919319502358777 0.5718750495458538 -0.16180697813888906 -1.6787113063303474
P 8.561458867525587 5.455872954106481 1.0469077278543952 0.811727349924944 -0.37663961654519007 -1.0326049089737441
Ni 7.61050093798853 7.504448164390898 12.98496789694885 -1.1860406323298027 -0.008939982802107184 1.6778810971195683
Ni 6.272513287365719 1.9803649754343688 6.421621705570434 -0.6954939466507958 -0.5112468943408357 -0.16255542626913938
Ni 1.3300169338955836 3.7792492196703673 4.176449869151369 1.4042948948231428 -0.11288222741372816 1.0543577272698035
Ni 8.942354442558589 8.222666675204954 11.343012188849487 2.1724759847260198 1.0911928938202822 -1.0028019666796988
Ni 5.597738855856399 0.8898460403438607 9.366897037955857 -0.8581442466265866 -1.927943248152125 0.17616093286771597
Ni 1.028158177838667 4.69254826752729 12.974095398555951 -0.49087707243523204 0.012676567026403974 -0.2213107899314769
Ni 8.554709470296887 1.4617174169622755 6.771774924083378 0.08453838616371247 -0.6662813296425817 1.949070002828411
Ni 1.556025321096631 0.6593233624249506 7.7478837707220505 -0.41282300844428255 0.6389512743690607 -0.502913691884792
Ni 8.531421754144528 9.043127075467101 3.7667036053930203 0.6005919578645722 -0.060248403268096246 0.46449729689012265
Ni 0.8994770169608142 6.1910981093661865 4.130243587552221 -1.229577893490805 0.15942536528058995 0.8408525494256744
Ni 6.604804019498706 8.961399680452908 2.1893410062003236 1.5514774381806378 1.8043364352320408 0.5340564360361835
Ni 5.2947965231015415 7.468837059012804 9.487871029998269 -1.5342821573482737 0.0913762350211523 -0.2975213729557844
Ni 4.8778490657285705 1.3851875169568504 1.802415969643016 1.5469204149375744 1.4933548230062925 -0.43681911424856384
Ni 4.365207093362015 7.205601384240123 6.217911122928203 0.9767970579755048 0.8436884762125727 0.22803165359507824
Ni 8.107394316821452 1.5802588711463452 12.199438152629904 -0.03988912288545389 -1.035610014348655 -0.4468572152108562
Ni 3.987415322768878 6.279281050301163 11.20933831059307 -1.5899424270250553 0.790604966124032 0.49489776355885085
Ni 7.660694414521965 3.9652846461414386 12.536904340923567 0.2708796019985399 1.0644894163871668 0.862370111782476
Ni 2.7521562528228958 5.687179847703393 5.869262974082992 0.5408526330224105 -1.5611265312346276 -0.38424313992406084
Ni 1.1225762762134912 4.337171842016135 1.9521378024530063 -0.12666205480663992 0.48131822510220335 -0.32940433770731015
Ni 1.1766816482835616 0.2986126173897798 1.6996405564139878 -1.738266025965529 -0.8066455645266625 0.5088372564580785
Ni 6.057891638346423 0.07540408218197144 13.519196002737862 1.3588689012798596 2.8639962914410484 -1.8935830255047004
Ni 4.093862959061521 4.095212838507261 11.995378621559523 -1.1544011510476506 -0.2748676401120105 1.50610620913469
Ni 6.52664875444637 5.9493778600449945 7.511890867049213 -0.6127404203016479 -0.17963577879019385 -1.8772675761741284
Ni 0.36549684821285594 7.482758264725334 8.672437323672165 -0.53609686350498 3.0843678573877074 -0.26910605503788493
Ni 0.49383732523059354 5.388470810353203 9.053220867894023 -1.2985269098566927 -3.112727639477323 3.1027594725210177
P 4.350441065139226 5.971820753687094 7.9905976047781335 0.21514451321976497 0.888143106981522 0.3103519490615494
Ni 6.260529663714761 3.9307387517545407 5.027889543550582 0.87357497935936 -0.02395522526401681 0.3047400021914107
P 8.195402783542354 5.527315553343608 5.635002874841522 0.17084106331669932 -0.4822523068806984 0.013385677278286623
Ni 3.8920697562034436 2.576626010609828 10.188916686720635 0.7842175745404494 0.33277505395175594 1.2939403189272747
P 7.204811658850098 0.07647572117052832 5.614520520394427 1.1924071979777786 1.3355484813863645 -0.6241802867074734
P 7.859787858488564 8.829240054717598 9.215495661264058 0.5197163652644275 -0.4307266281975808 -0.26442099085738974
P 3.7516731109931065 4.267721921960816 3.396189246097495 -0.9065794593098387 -1.1692374447295346 1.0691497979773135
Ni 0.5799256573113306 2.408579793895252 0.32027588678056446 1.0805248725834746 0.34762857402482067 0.10515297709027052
