# total energy = -381176.5687691053 ev
CRYSTAL
PRIMVEC
9.14577949733638 0.00000000000000 0.00000000000000
0.00000000000000 9.14577949733638 0.00000000000000
0.00000000000000 0.00000000000000 13.38577276391223
PRIMCOORD
 96 1
Ni 3.3078271357054425 2.174180364400313 4.695046123273975 -2.011746813032342 0.4713605996688592 -0.2502205309872916
Ni 6.825824277821313 2.036957093025984 0.28550653355597383 0.07631651247455243 -0.9696720168949495 0.5565607877862866
Ni 8.622640645942223 3.0450506072378865 1.4773607021108222 -1.0415112103244384 1.0633367908399622 0.5152002225616289
Ni 8.61100721477799 5.403939128708044 11.43822273804354 0.34827340669767115 2.4117065923607113 1.3983132233184112
Ni 5.550609990013703 8.484447921970874 1.4856065366530173 0.3638797457763604 -0.32698338697064333 0.5210402262821736
Ni 6.691271573978398 4.159317472381845 5.457781245537409 0.39321937528074213 -0.3774394867386661 0.3416831550746631
Ni 3.8601773257468452 7.8535629257916835 3.078526902906472 1.6629931242641423 -0.5029468591155725 -0.10887567735749636
Ni 5.607460153627594 4.826218547118228 7.657277126810833 1.4040701804068465 1.1629467266248166 0.4618578023847465
Ni 4.981120609719334 6.005027176197713 1.713525756790196 0.7093984725470299 -0.5886381279368056 0.3514829147739043
Ni 1.9041512330135455 4.3408886271802025 4.909419529812611 -0.35320863921575946 -0.09673210001642696 -1.5302159576987002
Ni 3.2615403470873754 3.798891459212629 11.53840194527667 0.04357479926715722 -0.21711474957225832 0.08253369702885785
Ni 6.735902976558157 0.4859225664312972 9.005251575758512 -0.28444705627032946 -0.0013506004906234804 -0.26009510978852624
Ni -0.23372404620631296 0.592099575675041 1.4066309039569627 0.27210164733109915 -0.4672866867098016 -1.2889523787943802
Ni 5.801679921083289 8.02771685364492 10.696436937654942 -0.05106905076167334 -0.6023091976659949 -0.5217223399508627
Ni 3.934880050392641 4.655091872185872 6.150669137341441 -1.068514992606792 -1.1796200735154394 -0.26329201945926917
Ni 3.6035010320171375 7.342158389305524 9.701124649899029 -0.16430223375691705 0.13532795801175404 0.7140750520870928
Ni 7.679034020990543 8.673088764104099 5.5908889162640145 -0.9081486035691715 0.07053204458229144 0.8316089193402195
Ni 9.373417661879216 3.307058890251201 10.712646916739445 0.2798692070916599 0.5828881128269059 -0.32937039914558114
Ni 8.475457621000402 8.254843134723972 10.320484135108746 -1.427253046281213 -0.8294378798308295 0.48497073425312615
Ni 8.307916091521175 8.146639420805705 12.881717534291127 -0.804847334975659 -0.1257354292273125 -1.5485404670395009
Ni 0.7035125435206111 1.7425727515839091 3.2858452553569886 0.4380172483217231 -0.15307525469284605 0.13086015204838755
Ni 5.216907943717039 2.319168402330014 11.863020403654845 -0.2659042602711356 0.7225229257441298 2.0820232899604014
Ni 1.6185925685160338 2.0042517865454057 0.9231594063558652 -1.1648300596904584 -1.8800153141225944 1.1753759535271049
Ni 2.691474782702326 6.939067316088238 5.221562230760654 0.6501569132768932 -0.45003355605630885 -1.2958773880489876
P 7.823317833920523 2.4293750418968396 9.25208518189471 0.20158631491935608 -0.09915845006973245 0.33012373237183795
Ni 1.5415942532867302 3.892955798461161 2.2076081874390474 -0.02538424440105951 0.32712376920324954 0.6158938783289651
P 1.1093281443666907 8.091206852970473 6.317414984028775 -0.3675985893888444 0.7291828542628087 -0.8554325041223784
Ni 6.26660560758782 6.331165663081782 5.632010168780226 1.835726519507548 0.8307769103572272 1.8853475249687852
P 6.328760323147668 5.588967388050488 11.659047577241967 0.8428055593869872 0.7681481797824126 -0.8767585192936643
P 1.5564561445146217 5.059911497675203 10.929255551718757 0.7416025680834003 -0.2349749176821308 0.21484986479748158
P 1.9324299823530167 -0.08427195344071428 10.047373790703716 -0.04283252178449397 0.6928194851424262 0.5782441862969911
Ni 7.516394629171716 5.693229271126158 0.5760981203566908 -0.6220395862153868 -0.9846942013353944 -0.5582556589902063
Ni 7.041847582930727 0.8029280781891056 11.434354073434683 -0.6783701424863156 0.053980825091829616 0.6341798211223466
Ni 5.739333144159881 2.9615496429851786 3.7961111423306115 0.48826457451304933 -0.0501118290547266 -1.1714483363379244
Ni 5.531367270540789 7.287548941599838 12.980652000972798 0.9256871266735671 -0.38911923706943957 -0.06479565631914648
Ni 1.1997158803699224 0.9223152509341211 8.328212404759904 -0.11318896002086959 0.1966377126648291 -0.698717595794416
Ni 2.333152298753057 2.480527385058438 9.697296226718722 0.3287605334757241 0.7202071331267597 -0.8872671321344718
Ni 2.6433131093447404 5.851771353855695 2.927321564264943 -0.1586388648235526 -0.1936611465350084 -0.4608116205084193
Ni -0.021241072231863396 1.1237601839713753 10.698002695056921 2.3520657407696266 0.1327069754491392 -0.8245077895190639
Ni 3.158220479271074 7.099969009855804 0.7420446259404448 -0.5983273302001115 0.13955973670491448 -0.5563769539102547
Ni 5.563414080917731 0.2690578496339044 6.5653863250995865 0.6840584511203445 -0.331263502403236 0.5027121173969471
Ni 0.206109280438008 3.8858037991133387 8.501063059074696 0.3318851951476348 0.14670868904486992 -1.7025675441226549
Ni 7.5503711989634805 3.5379623781469403 12.208052241245731 -0.20012155744837146 0.34866832814324467 -0.6369260164089159
Ni 4.127874283433235 1.082814530416132 10.402699202803522 0.1096593496010563 -0.3514219796289819 -1.471403515546182
Ni 1.304746008899834 8.009672231249455 2.2909079445489766 0.9822436829123729 -0.5195127338940537 -2.192189403994547
Ni 3.892425343266565 3.633672957654561 2.595086500954713 -0.3144358893229359 0.5285540181607155 -0.01350291958244126
Ni 5.643723168223649 2.900794231645558 9.773755855552135 0.2242829851859234 0.16444338732047162 -1.2077785382275263
Ni 6.673675094764573 6.938079571932785 8.363912039356183 -1.8164545586518137 0.6118919562584236 0.5813791323815473
Ni 0.9726536197453918 1.3207602683090882 5.648113142247888 -0.21773104300001855 -0.9305981908219393 0.27812497070704356
Ni 1.6546360844108772 7.593118571024505 8.372586810943663 0.0618471152137838 1.0296219150860204 -0.1083740551307295
Ni 8.521680389163949 8.22640890713781 7.786490524746768 0.7144982556674404 -0.15860261226897848 -0.4241949977266501
Ni 7.912681242651432 7.648176161911832 1.617376179880151 0.0740300304332209 0.023022943257734543 1.711895249281484
Ni 3.1987820100991957 0.23294391123908886 0.6952850005368505 1.6301436818342891 0.4620503780115269 0.4540038535579665
Ni 5.1254227142077475 0.7176354557877559 4.310379222289665 0.22746858200275663 -1.3280079500349453 -0.9180000424419544
Ni 7.1907225770277226 0.7783085551144219 2.8202747914176465 -0.04725867587664764 -0.3599145904810253 0.7969247376944726
Ni 7.164876604960018 5.364968963463707 3.2695950348439315 -0.16407237713429806 -1.8351791316445103 -0.826877318192505
P 3.860945571201087 3.8728533757418346 8.355318665203736 -0.5771049304862255 -1.185278043132165 0.641962807501875
Ni 1.60889804254584 5.7721390542118485 6.784391154233796 -1.7221274685324535 -0.7046856404523928 -0.12645893765689836
P 5.223630091441655 0.30265029669854776 12.643799233735823 -0.017643424113376067 -0.2907426594710541 0.6370358025139029
Ni -0.13828692549728488 3.4701189879140175 6.016878276907314 0.4151933084486721 0.746550913227611 0.6928228275765359
P 4.81086278381261 7.709443736887613 5.247838054451567 -1.1775667905308365 1.3583179138723962 -1.1231059404787946
P 8.891627158498233 1.580299190933768 12.816595927953232 0.12228320901265392 0.2466029888393624 0.34154508683490215
P 8.06280920850118 5.839708071068257 7.190528686508319 0.3987037954340811 -1.065937975908235 -0.4713269182174463
Ni 4.048351733139994 5.984220528478665 11.870128503262425 -1.6108023011931998 0.8518136764228684 0.7088775670465534
Ni 8.263193231149243 1.185869170635136 7.148979411524743 -0.019495389720450295 1.558378279065529 -0.17651163133891537
Ni 4.303418369727481 1.5362256808862549 8.106798577379895 -0.24485952378569445 1.4031846924780995 -0.09829224541469522
Ni 5.455484740375979 4.366789473923211 13.12639639484376 -1.365418015252287 -0.4891323218299834 0.4433486878369654
Ni 4.909820114942323 5.282245390444459 9.926300136271056 0.0891997961951238 -0.3503230901378483 -0.9726588674374151
Ni 3.319844689596796 8.643172920284755 11.703689040178865 0.8413230613041898 -2.0789767898245937 1.770941404711363
Ni 2.9920965455705066 9.438444152113252 6.586777388110612 -0.2737101294687996 -0.7999560683216287 -0.6440109482801554
Ni 2.1985813033517063 1.5918594558642634 12.08036527386114 -0.49241022125030676 0.0656171237791773 -0.844926462384732
Ni 1.3618156712149374 7.2164405081863885 11.134592928390836 -0.0879561535960098 -0.9115447737349138 -0.48316067762758075
Ni 1.3740252864698512 8.523747335267029 12.996339756064001 -0.5898583734971519 0.19089181131998736 1.1820171129927062
Ni 2.957488917012758 4.84023902665814 0.533968088392825 0.39030580117837294 0.1946944728955292 -0.2604841176968288
Ni 7.764803138489107 1.9519013463063588 4.830041482831001 -0.30985906858553086 -0.5175170436202636 -0.282674537750939
Ni 3.878688382882385 6.787823565173997 7.26235689274616 1.1475424762546043 0.7872193374812506 0.7266672869298066
Ni 6.747499824605521 7.5729612736298755 3.644651551026845 -1.679395991102198 0.9289758247271679 -0.07945428677258574
Ni 0.9676417327343858 3.646193529402859 12.878170801110713 -0.00831186229980504 0.5535857643183628 -0.012703563609597476
Ni 5.264740369022808 1.5460573935447062 1.7746186473829302 -1.6740367836728136 0.8095241716260382 1.3197166565604304
Ni 2.444666784747938 5.439918624148366 8.847982585496004 -0.2926743292761282 -1.6392677556227444 1.8041574864520156
Ni -0.29651073511006554 6.439076712065099 9.20415032386171 1.5479624830488437 -2.3563201451706064 -0.6170349339119438
Ni 4.756207607210836 5.477169382899875 4.163484289393185 -0.4452284213581816 0.14139499014144036 -1.2542160037544592
Ni 0.7652867946650237 5.898122162928282 13.621763807472622 0.44696674420552696 1.2165210603068468 -0.8919704511474122
Ni 2.2744546877372986 -0.22709152711802563 4.109566262596317 -1.2317329921605946 2.594189867902029 1.004002157635387
Ni 8.941471655231776 8.222393910061474 3.916877498581575 1.2587336891191547 0.10942872164748894 -0.5310202203130209
Ni 8.808921877037418 5.769020343498796 5.0887490541248415 0.013329113008738335 0.37494551667221876 0.06590277334039618
Ni 2.116488789098442 2.9693875757742885 6.976303441592999 0.7355813015899848 0.2857403211604563 0.7718976195225158
Ni 6.674114092166997 2.8581657547143573 7.409292981649117 -0.22728012014103438 -1.0279049323949137 -0.149220142612814
P 8.894974513691714 3.7259172868388775 3.7123028798962077 0.21058774708701794 0.6920880062930405 0.43421844340092314
Ni 7.353215636379075 4.714283355279357 9.63570763489242 -1.1959175251238823 -0.5664039991289536 -0.4004344049719426
P 6.105109438171139 3.9480682640237914 1.7225215452281986 0.5638681200809772 -0.22404387259192382 0.6787005292425409
Ni 0.24347710516349666 5.841372602885781 2.422945559107174 -0.600413780415495 -0.00045842769365727503 1.29480266692757
P 4.864155239311024 8.47033598463879 8.481064898238445 0.6857355817124513 0.7184652107349885 0.06776913712517361
P 3.096870592282338 1.3528985364782025 2.6037740766330972 -0.29351919377492675 0.14631582448182545 0.3159960347212042
P 4.994784403869777 2.5501176191218393 5.8198260616280635 1.5025362323952445 -0.11095338582213148 1.3111965349045613
Ni 3.639379923886072 2.6310577651937406 0.4106162203571688 1.2812213286987097 0.35288493732775356 -1.17183117359864
