# total energy = -340868.8232631142 ev
CRYSTAL
PRIMVEC
9.23164748656380 0.00000000000000 0.00000000000000
0.00000000000000 9.23164748656380 0.00000000000000
0.00000000000000 0.00000000000000 13.51144924581218
PRIMCOORD
 96 1
Ni 6.642050159945559 0.27189785910078235 1.6570437485452665 -1.0273655149516758 0.7372334924814271 0.07034178294835627
Ni 1.0703079464867722 3.6442665913905175 6.975176919201367 -0.1412666920936922 0.406705582692635 -1.4989410588448187
Ni 5.544776571943095 5.7122755790162625 11.106830171649497 0.6547586737149627 1.3939752580646898 0.17511526521202098
Ni 2.57772515696756 1.0309165078193776 13.436163089655697 0.45260414499696244 -0.13241515524033326 -0.17480107640571185
Ni 6.627362609226125 1.8683284583602793 12.958749377084702 0.8132463576726316 1.5552153079565152 1.294041363281513
Ni 0.8400023507494957 5.0355312166092565 3.793947596173566 0.8674740086679447 0.8953853903662321 1.1557916036372742
Ni 5.482822987481674 7.293490577335614 1.7819977862623164 -0.2387780934783049 -1.2096449020123037 -1.3748629627152709
Ni 8.194914769666934 0.9491518084340687 11.312568507817598 -1.1643790881959688 0.5520721558873137 -0.06904491851380366
Ni 8.620807582294443 2.1547126182712035 4.837612085632457 0.5493820106496603 0.25069438529991667 -0.8775573610458757
Ni 1.3764293681438622 8.831926122459581 7.6566404996648 -1.3294359407307232 1.7525677873001815 -1.4214184418773068
Ni 7.385133139241222 7.926763113006094 10.842370250710026 0.2766149618204204 -0.6478634892570262 -0.9089613292784539
Ni 5.739093514176512 5.402553814945232 5.248833041340798 0.06166482399964863 0.6995046104720856 2.323879508143398
Ni 5.157628982677915 7.95453190782951 5.147916366642769 -0.3055830669179963 -0.5841482104862521 -1.7014306023047343
Ni 3.796736476797287 7.660310079432854 13.067692045871652 -0.7113273141386266 0.9131427143496531 3.556372261288153
Ni 3.4218577466811504 6.768514495147022 8.9599284500871 -0.5652115214827491 -0.8748703011320158 -0.46404246874089117
Ni 0.3045252698535764 5.175104490856349 8.647300563472715 0.44014355063610644 1.4846796638297979 0.7922728407447581
Ni 0.6806890452620741 7.580197844899072 3.6929626072861446 1.1811053998117145 0.7445184561786146 -0.11614341466350321
Ni 8.628534471013591 3.125484944483345 10.594894714317139 1.6373859652189997 1.5675455473870938 -0.3721095898853204
Ni 3.7689953769155156 5.447604253355564 12.468595068191963 -1.0631275030426337 -0.600499655261082 0.9428081026245697
Ni 7.859445941512622 7.940305939470838 7.184847937083158 -0.6857996021811673 -0.2886173855979352 -0.9707418529203604
Ni 5.007642410372042 8.292696376970671 11.386057035474451 1.2886317622301677 0.8510068642508569 -3.210409762111845
Ni 0.663989918614441 8.811081063047588 11.778389117815706 -0.1269597885527168 0.3723165636898039 -0.4920191564594752
Ni 1.0696801944761363 1.1998925784469825 9.794246875646177 0.34054261371231676 1.072659353792469 -0.7631293864115825
Ni 6.656636162545626 2.0212414628333804 3.504977651877655 -0.8621549104478764 0.12252720670265997 -0.42638454917880114
P 2.212613509605138 2.2713175542467976 1.7045636525856727 1.5564381246200227 1.448901477788924 0.2580821931235555
P 4.18353326346829 4.701797938131409 2.0539694985408206 1.8701893291711083 0.2003043628831389 0.003808060892180538
P 8.272931420282859 3.369357368968126 8.283504425838464 -0.21182419059728036 -0.11360702139489466 0.2994787537924713
P 6.692205699265915 7.829812353951728 3.415788861801857 -0.5990266702599811 0.18394829012261868 0.5306034444905765
P 3.1237124682180206 7.306027154253899 11.138933224840466 -1.1747334348470995 0.11295061875781838 -1.6741195731946072
P 7.862907809218333 2.2285842592874894 1.7504218601273371 0.8078285290911701 0.02407195334753919 -0.9207806905108851
P 4.961853440184492 0.4457999366824349 0.1484661200095241 -1.0570792399660245 -0.3810045783821051 0.8357815626606703
P 1.3501191735804512 8.456890454340785 0.26265144125000606 0.6674352407413666 -0.3307127721060885 1.7302308143658782
Ni 5.330777757846804 3.1195489953239512 7.8133329405078165 -0.520994974866535 -0.01373071932253119 -0.4510493989153329
Ni 1.3355608659220304 6.7134754144498086 12.536205806066878 2.0486593697879747 -1.0629889205822405 -0.01497436192164518
Ni 7.190354614647044 5.014353817897516 9.65953775631679 1.6285922781867694 2.04412702913526 -0.7872573898080377
Ni 3.7221263040037833 6.178824565979653 3.724876411709201 0.5180232938327207 0.36310507239386497 -1.0391823050809457
Ni 2.9914875851542537 2.3624800704972126 6.056952975267769 1.8462400174443623 0.8345096379267822 1.6019129691233702
Ni 2.31181679058002 7.140743742512386 5.519386772607043 0.9929916654574964 -0.023325304989501763 -0.4364694442186289
Ni 0.25398107818546023 6.214486419172093 6.091379634062812 1.8661228724112182 -1.7599537953516076 1.9813286057518007
Ni 7.982116069708623 6.70357908863508 4.7547331264282695 -3.1652431928775355 1.0985778734304434 -1.4646065472290066
Ni 6.396331406017731 3.0735569288976654 10.138585470444884 -2.2401232515613487 -2.5343546409119515 0.7485692292092204
Ni 7.955944349853441 5.5121334673900355 1.088629996714843 -0.5585500503021734 -1.32072350055839 0.3562024317367607
Ni 2.737515738616009 0.3428513764323332 10.962810936103551 1.6808327235487248 -1.003942250931729 0.3858680771219935
Ni 4.2847305802416615 1.104409651299839 4.133651904070226 -0.1767026643037989 -0.015447702013637911 0.22231326305406232
Ni 5.664409488205285 6.950968770708865 9.103771361171237 1.7534062240410768 0.20694423679715973 -1.0097876539689126
Ni 4.14593276436065 4.361944077549861 9.962152998361539 0.1605741341730525 -0.8714098533872411 -1.5757962174316602
Ni 8.496254198066534 7.2223976621311134 13.145869327149121 -1.36761476579329 0.380192624003771 -1.2522005159863272
Ni 6.742222763878042 8.81696162232369 12.80308441857674 0.6159967224554166 -1.0602568663630578 1.3786838791232578
Ni 7.497306884553505 5.331285498443642 7.149934770479873 -0.5003490164814092 1.6182746983108451 0.7503569172372626
Ni 1.6166460603314117 2.90870740457527 4.440024426531571 -0.09410777501970244 2.4941017069291758 -1.9531326029335587
Ni 8.294219598761183 0.1386851897849859 3.358230464579607 -0.30439521725748225 2.0311005349686053 2.7536977655940964
Ni 6.231481881695335 3.6637915252507325 1.2017379847253074 -0.3111263653337287 0.3116061331836246 0.18136407433521023
Ni 3.348484614614487 4.504397625728105 7.508244540174111 -2.5525400535717266 0.14568538998667813 -0.8504587050568709
Ni 2.213333578087926 5.424303575784319 10.620120190332761 -1.8716216907422605 -0.6745556538362318 -0.2966325425929278
Ni 1.367428512109011 4.317946046922066 13.083432927538343 0.1093202210940827 0.5345603722557956 -0.22675870041992557
Ni 3.364953873246461 9.284913819663796 6.249531598330557 1.3130968372510676 -0.9631473284025541 0.6512923124329171
P 2.7202248633818797 1.2011757774098997 8.019490393459488 0.08418177415524211 1.7089924738123923 0.5838957281558138
P 2.916425061647203 8.646748510969244 4.055582633065175 0.6016741351851573 -1.033338444705659 -1.2161927304331508
P 9.053236401150336 9.084319357324022 5.616587709300941 -1.7429978842235594 -0.4824569666923369 0.24163998840713224
P 5.185370082559687 5.259823317350532 7.720819834269814 2.2382216636632615 1.094632001408818 0.15479995069343663
P 5.5328677470354455 2.307044028969745 5.3787324724710475 -0.915273644649727 -0.42104796745723616 1.4862662915906273
P 5.980824196507359 6.26829769078968 13.186255014221597 -0.5790129461422158 2.1848720443975274 1.1476702600817201
P 1.7392146404080457 6.824467508918542 7.528471079222684 0.5129898451738714 -2.2127266047159506 1.8190894251714995
P 5.368175160715709 8.175509847220518 7.182239996744855 0.9307851100217649 0.954333072545034 0.7964146308272735
Ni 7.1958289814456755 4.77807903907087 12.472067090709611 1.494171405370317 -2.0688427867143853 -1.2170694766111492
Ni 9.089369068350754 1.6456611275288855 7.099941708150505 0.03712878653149734 -0.7038137793704007 0.5962424226466247
Ni 1.2444629712021222 7.710742568169666 9.651903184069795 -0.5352483994617556 -0.8640120182612732 0.7650456295976888
Ni 7.165530715285285 3.3249439142156456 6.24554537306302 0.3766776688719771 -1.2170746188174717 -0.12050631961788923
Ni 8.614188491241121 0.1297083360328944 8.938701200480397 -1.1958437344631534 -1.7394906424012493 0.9218320145935349
Ni 1.765774089446268 3.387682188690362 9.17531385759512 1.0741909599456467 -0.38563282118273584 0.7257571164107114
Ni 4.083166794944288 1.9350178778431144 9.570186489250005 -0.3665328671284913 1.6146291311384577 -0.573647053844612
Ni 2.846283006105871 3.0365657185062314 11.60821293305012 -0.8658408439398959 0.07299541852111945 -0.8442345785240298
Ni 3.156226329710067 8.116224208804297 1.8158843936952682 -0.9090304919534924 1.1103859218089651 0.9187577465435854
Ni 2.5787867963973112 5.866324076096837 1.2687560508490048 0.10486835597031617 -0.02121880016946023 -0.7464154160910114
Ni 6.580724327494774 5.248283758331492 3.1483969697068295 0.48218931485324695 0.33021089276900545 -0.5972631506016552
Ni 8.294450389941563 7.77877057649871 1.8823070185735833 0.4643276040814778 -1.8970054209226874 -1.0387002232382045
Ni 4.521790049081602 1.8404950420063548 1.904884858167876 -0.21148737608315188 -0.5705622442717013 -0.18139544179377792
Ni 4.770342918704506 1.5518214335860532 11.747623730306225 -0.32142851859068516 -1.5301673638489517 -0.5044872070194989
Ni 6.8102600038543 0.43423360588647086 5.824542563965419 -0.008239614300972906 0.4563340443530399 -0.7544501134700297
Ni 6.7874116769966015 1.2864761976786425 8.087453780258027 -0.15841209352472718 0.28467254201757425 -0.4530026659869617
Ni 1.0696617311817058 0.6822759654183724 2.235306744789621 0.477486510060939 -1.426173440063789 0.4487441478209239
Ni 8.84083466202228 0.4763714596003969 0.38353062988625264 -1.1467228085667864 0.40972740023809434 -0.41184624635331013
Ni 0.5929034655629907 3.652058101640173 1.9503774924798174 -0.8085980602673429 -0.3549611031304919 -0.38809388112871873
Ni 1.5042322921915328 0.8208522217662186 4.921964415732195 0.24058403633879208 -1.807211957007623 -0.2801664266171046
Ni 3.6445158458653286 3.405231550046518 0.37399803097180423 -0.5208713048044771 0.4066521037468803 0.2782159877589531
Ni 8.782666052919105 2.8673865516398913 13.259081632773118 -0.4499618222781089 0.03679171490705276 0.07901565657327038
Ni 4.297562569870834 9.053042536558817 8.916826812403905 0.580627084706871 -1.1246714851937019 -0.48833193741587516
Ni 4.780534657230121 3.764074908949797 3.9124967170526883 -1.0830463534537478 -0.6319920694424084 -0.29568406263672947
P 2.640666527681011 4.9564436949163655 5.055200164166031 0.19875758722130932 -1.7738809469556611 1.4950862038751025
P 0.5808183161935307 6.0109101347818 1.9666990447563473 -0.49231071955796496 0.5497864451769305 -0.5839494642118845
P 6.290776751758771 0.7615564285380625 10.055058449606188 -0.5994964108075482 -0.6846639459148274 1.1437547270773978
P 4.916193713057955 3.623199972445358 12.049685996682777 1.9306135958954365 0.8025292283654437 -0.25102940004183216
P 0.9868353923666453 2.012148290326377 11.830273744659474 -0.39845774086154606 -0.4723790136310445 0.4119115523736067
P 8.3034420143292 4.54977117179097 4.792510873162442 -1.5624920441235866 -0.596592864007508 0.44258429886711514
P 0.038054696150628974 5.285801172614194 11.407986813434233 -0.2784425019474624 -0.6953353095857444 0.4342176720699748
P 8.196724172521119 7.020335367884118 9.07415439057533 0.248391705308669 -0.23978416614531606 -0.1294686710174996
