# total energy = -340857.73798016895 ev
CRYSTAL
PRIMVEC
9.26196369197753 0.00000000000000 0.00000000000000
0.00000000000000 9.26196369197753 0.00000000000000
0.00000000000000 0.00000000000000 13.55582007684081
PRIMCOORD
 96 1
Ni 6.587182734267141 7.22198846961311 3.9926501237931795 -0.8324697246786178 -2.7967909972391447 0.40904400101782457
Ni -0.08572781052814821 8.82537332895476 11.26254147006351 -1.4944359718856133 0.2647470067382408 -1.4150215372120274
Ni 8.431693558592187 7.4486194612847205 5.379382831237096 1.3480216741527107 -0.25614615244310723 -0.7974860095145814
Ni 4.654766611729857 5.194766885849352 12.997835217524294 -0.6491819509581336 0.8274293340412331 0.9825535008433077
Ni 6.309879538768836 3.3059283028851985 6.1476460550457945 0.5444197815483786 -0.7132574412818039 -1.8963878419433469
Ni 9.218302880251356 3.075814812833249 -0.024969328147758162 -1.0980633956878703 -1.679914068389197 -0.8918910040597284
Ni 6.8348291217498955 -0.03547517366057469 5.58136495870765 0.7537338041292955 1.2312658227161892 -0.09106204621484318
Ni 1.7833448155384455 4.119388057535335 7.019380233391198 -0.2285479311098645 1.3503739764349714 0.44772187720399664
Ni 4.398793718811132 1.2663697833698124 13.269941525147045 -1.1952279552560254 0.6715086394797919 0.17683533322692124
Ni 0.4928689190449375 5.197628832656599 4.708533237654614 1.7573405260984767 0.9420881937394098 1.3718390882872826
Ni 5.688077600566476 4.83766261044412 4.163182327060859 1.807897927331054 -1.9163380598130288 -0.47331540940238487
Ni 1.3031027317113717 7.75133748538848 4.821533826721984 1.5218210487667856 1.8091603389832456 0.056342897566102966
Ni 7.704499734565671 3.453739982810297 1.9899264342209049 0.5525316120222354 0.5412354702831259 0.2120237082025961
Ni 5.630764568711315 3.3509692327351734 8.2319481953739 -0.7209589236911197 0.17794245024817096 1.9906977056715267
Ni 9.27585672316473 6.764641960244012 12.064286692927869 -0.15653261711382718 -1.361010887323527 -0.7523047849922527
Ni 4.173237114937711 5.102239867712141 2.294525563167875 -2.4813338657405457 0.649538562966604 0.36498403458413275
Ni 8.617914602302571 1.8110658731244982 5.90240777814519 -0.4243556916742305 0.14316468044735342 -1.089623749560949
Ni 2.4358316397356585 7.000284842671128 1.0635151789114186 0.33030396670344403 -0.4244729339783851 1.6295122188978772
Ni 6.57778184103298 0.0387511302486759 9.341830617348231 -1.2947982960521958 -0.44362328165459086 -0.7971540800964594
Ni 6.73425345709004 5.692236222302572 11.725418298004154 0.6382786737820685 3.4653022446535093 -1.4760302156849159
Ni 0.4998830042136371 7.288924681833091 2.750556873680568 -0.386868750472366 -0.5504204792165036 -1.429604577232525
Ni 3.303742479433709 8.073626038954096 3.327100225884182 -1.5721251963379763 -1.8561760456111516 -0.7720405728582833
Ni 8.377001662486059 0.8451393755546925 12.760622432236893 -1.4454587706559623 2.0395170411670747 1.379329997347689
Ni 1.1077679156439286 8.919132188274377 13.112314016010554 -0.6423996379289775 -0.816727888463329 3.8351294662625564
P 6.861892579907746 2.220176075140384 0.07257489576772262 -0.3988557476309131 -0.21288425643067854 0.7601345654493166
P 4.116470538945423 4.920316375194517 7.200160799578679 -0.2602010392387712 -0.6564841410465017 0.2694055885561747
P 0.3242391231371559 6.796160422978839 0.5177956421593192 -0.6297025020772833 -0.4183567937783182 2.128360225353728
P 6.866143821281618 8.773404450199216 11.305743900103653 0.8516637811085656 -0.9215396801640968 2.0134650812750294
P 2.3310139956657085 6.074477467399935 3.8043192047342806 -0.23533975722071726 0.008417277529417762 -0.9803122702176149
P 0.12310076056673235 5.746733617169373 7.528441843708335 0.7578413985397657 1.1643682895626914 -0.8986977425689167
P 4.888649721039249 2.178173069409428 4.109500911202856 0.10769322701362097 1.1912635712916386 0.8242200830753159
P 1.777611659960174 6.368600389118177 10.624319922476401 0.1197414164274067 -2.6958296896327183 -0.6148050161401606
Ni 1.781501684746723 8.383911087464071 10.221833876954184 1.4113065502542854 0.4845128207801011 -0.09789449575564431
Ni 4.38369671785381 4.204644434107209 10.42376135883845 1.1714239108578923 1.4002191820918723 -1.4627545816219323
Ni 4.866587723321247 0.9425252198895782 6.085940073770968 0.026368719801515873 1.7943438427957035 0.14422114673632583
Ni 4.952381293792216 7.46665250475951 1.6042091741178472 0.11985351652523875 0.3523768873430835 0.0892105948284012
Ni 1.6772860683223103 7.21457889859111 8.365594627897691 -2.533874615951739 -0.008667960087643136 -0.0993926775677256
Ni 5.077352971042003 8.308963276576554 7.7794818147191656 -0.43042092403170384 0.03386142863413523 -0.4679214920803232
Ni 5.322970988457486 3.0994976542123123 1.5719599424409751 0.5464445252878912 -0.4347002681333481 -0.5263613813847708
Ni 3.376837897565727 2.1053369862631803 9.745902311069155 -2.449606452730278 2.319163333614651 2.8545554577431225
Ni 7.436152858040207 5.3796171589206665 5.771282452161633 1.0305678239390574 -1.0949521037523982 0.25407538595700757
Ni 6.177220431583726 5.891627778504559 7.652924489270671 -2.4460053656425806 -2.2948887773380027 1.9064598814673683
Ni 6.295041872797284 9.017623911084296 13.510164448662135 0.01320801404984177 0.5788568801803257 -0.5509784086025027
Ni 7.944125261417112 7.171677482373738 9.941987346202577 -0.12345023273756159 1.1091111688615996 0.28289950927755153
Ni 3.0890038492524066 2.711884470124001 2.3278056514131826 -0.26431737539998995 -0.19780705038258192 -0.4532566909792968
Ni 4.206098562420276 8.181111128591965 5.395446781212788 0.5485438310190811 -1.4050374294161223 0.5272949489426338
Ni 6.873794203361832 6.7782292611056025 0.3496400587969455 0.32409372412767407 -0.439204840871921 0.6981187858681526
Ni 9.141132198057237 5.325045668343646 10.051328533381458 -0.050486695895642086 1.3271026646118564 -0.9740050970526646
Ni 2.7347152108355344 4.14140374543445 0.6001067142499482 0.43115574531519935 0.2349587197322147 -1.1304610952922853
Ni 8.268701520035767 4.967320841365321 13.37982453720691 -0.12242359124526012 1.344287661031575 0.3041347645072439
Ni 7.534746462451678 2.123045861005757 9.465689932748338 0.3329414043262911 1.6621657432668406 1.5025416317118834
Ni 1.6153050067232904 1.7177608500299786 12.523218850495672 0.4915771838260502 2.268874355552112 -0.517901937763508
Ni 2.250342291163696 6.400924642701646 6.3512545833556775 -0.21187278444702864 -0.5877289858589749 0.17730841620859786
Ni 6.833199016125056 1.4269722352716363 3.060307506880583 -1.8139911847129857 0.9156881064793263 1.320102322034623
Ni 7.984609305088558 5.688753723922233 3.3678760214146197 0.5319848982191355 -1.6101299577165236 -1.6295464145699228
Ni 0.38791605030383575 2.3281983586773487 7.898271131147472 0.11068136310766745 0.21579783053304769 0.6980429383248946
P 5.427788632527436 8.688351836830448 3.5624152347935754 -1.266478108951264 2.699730053128389 -1.3094013906773514
P 4.534546321897928 1.3117534058795552 8.467941180031804 3.092558620728616 -2.445028860661925 -2.2938791051265652
P 6.185565460947252 5.287127188638567 2.068035353345683 1.6692797286038026 0.4770697342384946 -1.242874353489395
P 2.9765358231022425 9.215941079488093 1.0792206908889228 -0.859638828894242 -1.1470012590391536 -0.8157290148851694
P 2.7301120148381175 0.1459203869217331 11.712554356513586 1.3933833901169614 1.8237058408975881 0.8511745001769729
P 8.378631768110898 3.643767693633233 4.602769947082981 -2.4235362380057874 -0.4371721267126084 -0.22272438244955187
P 7.658921610816601 0.9248469096274667 7.833054865600972 0.7863654741213876 -0.07116556440123227 -4.796405802894643
P 7.119245505429318 4.1235188933800995 10.124530464096916 -0.7684456564181734 0.9419074451871714 -0.5797408254471758
Ni 5.639906126959707 7.221608729098232 9.904749620835144 -0.3154753863310438 -0.7386887368707149 -0.05101094383022828
Ni 3.968695906875435 5.693190204571655 5.080517784064774 0.5328174214227598 0.40753939144784 0.6126347479617191
Ni 3.63374624882598 6.242776611200861 8.983198117919711 0.8041883612354215 -0.7995482913602489 -0.13169961723054738
Ni 0.355873360419202 9.002823292967854 6.753943465884624 0.6819375481225997 0.38190857825361324 -0.5826541424392289
Ni 1.3783654493673243 0.3745000957721291 3.057216789568032 -0.5859729223998167 -0.44722308319070725 -0.9918079295620404
Ni 1.539866311755565 4.145275246293443 12.158527174363915 1.549334680806022 1.7990849570251146 -0.1289966164770875
Ni 9.119292487469897 9.19128573191239 9.00072545817225 -1.8991301805751748 -1.3141808143438658 0.23931108316363947
Ni 1.8861155656135684 4.153222011214537 9.667984188398194 0.8602836615670925 -0.10279578971200361 -0.3250185499347886
Ni 3.0008670019457306 3.5625124854132393 4.353654612145116 1.2892244015088443 1.2105728131432119 1.7580817751398752
Ni 1.841824854829571 0.7014094430663378 8.55646054644249 2.9422282757707587 0.5181063404648303 -0.9847286541177558
Ni 6.198763759330187 3.716075844844164 12.088415960961006 0.02739381863192056 -3.092533166807319 1.1905578034738658
Ni 5.991166103221336 1.4815252019211023 11.473497514238083 0.6862238342027794 0.1871979074081679 0.2292236170206504
Ni 2.655840327306357 1.1166594008703272 4.744578022087505 3.344721877264575 -3.0273621294266246 -1.373759445238447
Ni 4.1224445055819094 0.7543554590004079 2.6094008409259803 1.7383629565547094 1.1781262625787323 -0.48157919207307387
Ni 7.531838205825544 8.677607958848549 2.481419951644884 0.2464404951195691 -1.9366847417901807 -1.101353893513684
Ni 0.9199352902362593 2.843830406098244 3.5486288017107688 -1.972871733233699 -2.418715419578376 3.817313521127058
Ni 9.103723126359922 3.3752726256873298 11.042408672178192 -2.252707515984262 0.026235793768077397 0.9392671793508468
Ni 4.435100616818926 9.370236134057441 10.535000322395339 -0.08707606498390165 -1.3218941238277235 -0.8203500585969483
Ni 3.5194814017029814 2.533934360066923 7.012981142617323 -0.23250563020603185 1.2770360869727684 0.24503333035939734
Ni 2.5577376069750937 7.416082182534368 12.430564943454712 1.9261992688778247 -2.540384906266431 -1.5548751510082768
Ni 1.156865585628448 4.6471440155409764 2.4180597836393942 0.21703941624963266 4.435101788265259 -1.1716424546266015
Ni 8.787278871937907 1.194876684971302 1.797515620118018 0.5598037202036166 0.7955965058013524 -1.1674417862816926
Ni 8.163680112762712 4.190112412940314 8.098626857778697 -1.3744767830204458 -0.4596492247692019 -0.21941023047465438
Ni 7.649372526162 7.547694687812621 7.583858025381864 2.883465198798937 1.6012056586437002 2.479714070748936
P 6.349428124098755 7.2440967771499984 6.090710911312757 -3.165313641104155 -0.40457028151718716 -0.42207435183922143
P 4.708365596110242 6.957272282888425 11.752407660451784 -0.14178399804974293 -0.49992709845264227 0.5431817953762195
P 8.644487176380215 0.17845303469019652 4.243120484031693 1.2229452186656358 -0.04387818944018895 -0.5651356739394913
P 0.28738113828460066 1.6144529060557604 10.312765984928909 1.7769066211558622 -2.13486588768273 -0.8261309269447837
P 2.952000881055649 8.515116066336114 7.10190803543422 -0.9921218612580334 -0.14642226815270265 0.29996263540742535
P 3.6711831064146287 3.3622503046161665 12.081719561149875 -0.9778108439519999 -1.2517102066134702 2.1643397287721307
P 1.7139819688087592 2.397116631145715 5.755475984778954 -3.3426493110062627 2.2589321567377354 3.220160927961338
P 1.1081013463399185 2.7851002937851264 1.5530497909964567 0.8387576145698588 -1.9632092704432706 -1.7538862490012892
