# total energy = -381162.77300211875 ev
CRYSTAL
PRIMVEC
9.37181219464313 0.00000000000000 0.00000000000000

0.00000000000000 9.37181219464313 0.00000000000000

0.00000000000000 0.00000000000000 13.71659446416332

PRIMCOORD
 96 1
Ni 9.03143713100388 6.323039702563001 1.1070893364654373 -0.7305941327880386 1.217003399259904 1.0104895651319437
Ni 6.39207246953358 1.5758701827454338 8.822650966756358 -0.013708607835344132 1.1566817195517112 0.4028083045207579
Ni 4.537034751827569 6.168254856067469 8.888367049470775 -1.292737042647793 -1.0293882018086595 -0.3264339422250765
Ni 5.996910017821054 9.316799433676588 3.6971985657653237 1.7559295046835628 -0.8755639847649307 -0.3059049690337893
Ni 8.392054631166685 0.30310126836940987 11.297097041448032 1.3307142932225147 -0.6292852120342065 -0.9318796286375242
Ni 0.7988101419826356 7.879782017077787 11.208583088935535 1.616502179791455 0.43962573045942355 -0.14336908314867566
Ni 1.3590908000687487 1.6119516588297034 10.60582188155208 -2.9440175064606975 0.09297726095968503 -4.360222522457865
Ni 6.665720007243862 3.4278995488090938 5.658629778860079 1.1142538894048035 -0.2731496289796393 0.216238260504576
Ni 8.960839271434322 3.102519609024742 2.4322954131756704 -0.46105716086032206 -0.015896359515282298 1.1112631822075958
Ni 6.1875139296656965 6.014922640427279 10.534358066556498 0.20564660103165872 1.2047274101060284 0.08593552362155522
Ni 0.4602009524215164 4.971746250053242 3.7056753696921345 0.7154122828412776 -0.02229763505593579 -0.1911206395013418
Ni 4.510353203149149 4.741443342703933 11.54395431746104 -1.66877450683261 -0.5910390240688144 0.4410904879304081
Ni 6.685850659355293 6.898431470269446 4.1682127148377575 -0.06547262778151304 -0.17308666481776644 -0.6569682797717717
Ni 8.22536758346933 5.619816419586573 7.998365428295833 -0.7436841332027773 -0.3358421229128538 -0.5705905264064753
Ni 5.9057597746014165 3.8235305911201167 7.903953794510656 -1.1553231486412878 0.5745975906833394 0.15146651544482947
Ni 3.9528897117412005 8.295009518217954 4.156237413502567 -0.16860934577270317 -1.7576894247974633 -0.5664243108439277
Ni 6.54861921667946 5.958804230351277 1.628762815141382 -0.9160269778759836 0.47405434445093847 -0.24940034907884145
Ni 8.414893736937428 7.6636211739911175 9.729042949885526 0.03851461113543045 -1.5754658306754352 -1.740671292972912
Ni 4.038510585898574 7.013732872935619 11.090305198787709 -0.48976147077355003 1.0869186919249603 0.7704950827480344
Ni 9.149315781961787 8.274569596311515 4.831670462444532 -0.9802299949164537 0.3205569146190092 -1.42661566980753
Ni 5.858291546973669 3.7301029975917834 13.38628479531701 -1.218691071374972 0.9544238324866271 0.34784043292531064
Ni 2.9274729050502004 5.5893767743082075 3.9620928310956818 1.1018696568078377 -0.4615618684108825 -1.092842256498247
Ni 6.977285896184521 8.282769931785213 1.4862475448768964 -0.7148502396902205 -0.9072389472707085 -0.10656039896075842
Ni 8.087095869664832 3.2556456448015942 7.779640457454189 0.5273111468925499 0.28354768438451167 -0.034026750567405915
P 1.4953007152398585 8.515312702195338 9.11832507413959 -0.48537851121450604 0.05285776723097994 -0.08253472547012237
Ni 7.000940349596651 2.1816453648584244 11.9675086735365 -0.07787074433554976 -1.0703281345561309 0.053872324538423354
P 8.920746659826918 8.221787551296812 2.3909254235967636 0.5554032771430757 -0.2169689680230134 0.6420309417356491
Ni 0.670803373828814 8.985955727513762 6.822647249955722 0.4316887350005339 -0.3642206740555469 1.680695169529596
P 0.43506294117454597 4.578626853350164 0.36475841931964603 0.5256296454250688 -2.7754271868513882 0.0776282893074405
P 5.070900020695209 1.486303775748716 11.239665640515039 0.018827931339780477 -0.5293063229457078 -0.24687989664983287
P 4.380188106698651 0.9980886029866546 8.059500569319344 -0.05702681100700501 5.047459628416507 0.908741499958164
Ni 2.6924559762800118 4.150634944306937 13.48828103652946 0.3691499930363642 -0.10401063595571121 -0.04165109988188311
Ni 8.01210263028137 7.694276370944792 7.019412190989403 -0.1891858843724742 0.8463030310172844 0.3719383544147788
Ni 8.179661256491931 6.816887334318996 11.854621449633784 -0.9061030338940523 -1.7508276646806233 -0.5918247531949032
Ni 1.9138083505695054 5.987697526654602 10.130212733070783 1.2273600599038799 -0.7323563668947839 1.0648272593425596
Ni 0.7699449611152199 3.985063142234005 8.864376148008924 -0.27652805853356893 0.6483293731498512 -0.6573207780151841
Ni 5.437862690190185 1.2778653057252776 5.977157049732011 0.9113812515738562 -0.8683057605406207 0.013736889970118278
Ni 1.64224135511655 6.906406882255864 5.152528502953388 0.9106394883118252 0.8201279152838133 0.6049669470038163
Ni 8.625468980090014 8.206277202486561 13.386833046317252 0.7013203235245856 1.9613097394277126 1.4391837362805278
Ni 2.7509829420322878 2.6775922824956866 8.371333554901147 1.196541017640494 -0.8260746197855515 -1.2023547961087937
Ni 2.964800832126472 2.098742316172334 11.838476629153167 3.269870893591956 2.0436364626520866 1.4006326154802071
Ni 4.108995983724493 1.1018907923657115 3.6430585451961766 -1.3286656382236022 2.4475380002370235 -0.38588967438854826
Ni 4.323826029511431 3.519434036319499 4.362055524899211 0.6836352475399968 -0.0003980067693670565 -0.8523656922715965
Ni 5.7481727563268725 8.929612393950482 8.004839476004667 1.8875054518520524 -2.4067219946619263 -0.9819148388180445
Ni 6.026721751697433 8.431594305867863 12.587526198300209 0.5416959548593122 -1.3004763202735796 0.3839407781922936
Ni 9.212556769134943 5.8884500378929365 5.88650351254678 -1.424098302702315 -0.5581849536532709 -0.09354598897896148
Ni 1.6860639478879902 8.51004574386823 3.162525446705875 -0.3238612964018938 -0.2877000159899884 1.1899595077682343
Ni 3.469913381870336 0.0054028496006704885 10.265279287181562 -0.23897066910508527 0.20529127457476903 -0.7626352203839835
Ni 7.904673549669948 1.344958107618079 6.5992176295051665 -0.6973163445715151 -2.1561476798796417 -0.7880222929985202
Ni 1.1617672990416592 5.994060986982192 12.66743963896789 -0.2724322911976405 0.5481980176438881 -0.03477185626354657
Ni 6.1813191619535655 5.557859370653299 6.168790923712151 1.2771924100449745 1.2884492139057167 0.6139979468578329
Ni 1.7389209673984523 4.63085596145864 6.667060176355563 0.038640080969701195 -0.4115569972476654 -0.4515119403740482
Ni 4.314107460498604 8.939630860946346 1.671545136784159 -0.1354328590207345 -0.2785705428848944 -0.6888116495346137
Ni 8.130937206060212 5.009327216052703 10.088088312628297 0.5248022644277671 -0.17755909876682324 -0.6022420918734854
Ni 1.6759517627724245 1.6263092747676517 3.2416563410740644 -0.34276378973335164 0.383495720235075 1.213758152849729
Ni 2.1572130510527905 6.273528419925807 1.5590965136816353 0.8732517916919864 -1.1952582942733285 0.055837418684594166
P 4.580576190239911 6.935684422849957 2.7173531319593542 0.6103657494218843 -1.672912954481016 -1.3591522368482334
Ni 1.5529186152310503 8.409458085994864 1.0179634046313066 1.3607558338899275 -0.8188950713179768 -3.2856541245681417
P 8.544955743456258 1.0117901920867072 13.176846352956378 0.36049308869231467 1.00526379795663 1.6778276181738134
Ni 0.036528511515235666 2.7296808134246136 5.536716562849113 0.9603533105971848 1.1433832026705921 -0.3265362721308957
P 2.1797428870285267 3.5523665835818687 4.631366725211001 -1.1367582411549066 -0.10918292418527004 -0.2569444799746865
P 2.6397489057610684 7.509548585205302 12.893269380463945 -0.002112418357312491 1.3138455424916342 -0.2008815755428476
P 2.458385600518787 3.6127023090443435 10.207080334848234 0.8255560282779202 0.9172456807744332 1.477863669349229
Ni 7.96535603217531 4.30053707676613 12.216670478112919 -0.5031376349701399 0.6108789416128769 0.9945255856035196
Ni 6.272891136711851 2.300564286944995 3.811731479849962 -0.7654984008643914 -0.378774917720638 -0.8615170197535614
Ni 6.065352360637527 1.028884377119878 0.25501918705763205 -1.9464698462014025 -0.20933999072284593 -3.085860382772834
Ni 1.7333353674643681 3.7024467804684904 1.936549989495762 1.1420282313045944 0.4813133400061969 0.17740663234935897
Ni 0.7632085026712269 2.627303139464988 12.77825569242525 -0.6980488518621655 0.4683526660804708 1.649245692771063
Ni 0.2325427704101246 0.7058436416032233 1.4444398916789936 -1.4370916296381895 1.955300814229471 0.2935181653336622
Ni 8.002890139114921 2.954772993318636 0.4036954865111564 0.7304036140437873 -0.6058097546200857 -0.6274720700848677
Ni 5.951194319031686 3.4757801361635177 10.30610008857903 0.39491347515371344 -0.2062963188005157 0.010339948473427354
Ni 3.9010823351713713 0.0929599401110332 12.689674262866571 -0.2567645027533965 -0.6329338645303874 0.7841453265416173
Ni 4.08755327793727 4.769924279280581 6.264217524733672 -0.3319962668042024 -0.3309284876613204 0.5607198042599827
Ni 0.6143719452330166 4.259957130936289 11.215139608589707 0.9834312754625708 0.029116714860298244 -0.6331495800856193
Ni 1.3963718680851704 0.46749503367772083 12.443474888053851 0.01437066689937525 -2.516381858483615 1.9703955037790648
Ni 8.551675332638705 0.4133943747188474 8.878888398844378 -0.3186913221651802 -0.3938873478820442 0.09622559269365363
Ni 4.966516778974016 7.608252508872711 6.03476651509243 1.3326593327640275 0.4673591918189499 0.15078645865866935
Ni 0.6078360435651803 1.708771848291155 7.82748449474193 0.9715656343732363 1.4035703579522922 -0.6050433087677064
Ni 6.563707833951063 8.871319723497454 10.35117288106726 -2.252285083734863 0.16579321648014672 -0.6179667016975938
Ni 2.322428724270865 9.217495714043102 5.2365571062570675 -0.6331395527832903 1.6974191671524959 0.9058053001479754
Ni 4.514130043373036 4.47258480091029 2.09138263223234 -2.395782722041603 0.771709928991742 -0.6142254894876067
Ni 3.131478508011857 8.97037977601972 7.539353758813302 -2.2978491455179073 -0.7180849445774342 -0.4007064276864067
Ni 3.185216477847494 6.7927549184964 7.080944696840438 -1.0622399582313578 -1.5418643405709058 -0.021347612437840655
Ni 8.312581665661593 1.3358018473234474 3.7960946115781167 1.8191197641888024 -1.312449947695688 2.163643474036055
Ni 6.525555187421437 3.7112000528484144 2.0036240477646237 1.7438412060604611 -1.2697809480722517 0.5898702005716938
Ni 7.275703132931356 1.066409112247518 1.905701733215507 0.9560425990369728 1.6327304687248592 1.4651878736537733
Ni 1.0812072033480535 6.5001763206068395 8.180097045748534 -0.9699772068401941 0.818603508219487 -1.2597387333449013
Ni 4.30844688606876 6.351192625720701 13.598247066641145 0.7386439996757086 -0.2819726265879079 0.7090197490513724
P 7.027828078138408 8.752606981274221 5.487982203424228 -0.492958380444293 1.1208680522872114 -0.05432098204006774
Ni 2.4269712867955473 1.443605800413669 0.8669563355408582 1.2896859145262949 0.5149929916468291 -0.29168496877966543
P 6.348596633805027 6.890034326744379 8.283876742778864 1.3317514762377773 -1.0062431311507638 0.2330735868943599
Ni 8.354717332278442 2.630105311244 10.027653245958941 0.17573541529452313 -0.3989639910740032 0.431190969428509
P 7.785576563155949 4.88292021620215 4.325870958883272 -0.7177635566822735 -0.05657841061567675 0.4539565452597989
P 4.863014487577996 2.120325599139106 1.6029622167881368 -1.0478636349050274 0.6416051670521402 1.1612595687303806
P 6.430806168405342 5.89876840287184 12.795566366314926 -0.8270184717560595 0.1065783966828874 0.557317206336337
Ni 3.3280897513292316 2.103971787251561 5.935705525388966 -1.6797880843342938 -0.24485515291032023 0.9028107362960258
