# total energy = -381167.76697229507 ev
CRYSTAL
PRIMVEC
9.24869512368030 0.00000000000000 0.00000000000000

0.00000000000000 9.24869512368030 0.00000000000000

0.00000000000000 0.00000000000000 13.53640018593252

PRIMCOORD
 96 1
Ni 5.397085325755425 2.34374884241649 12.345846440099626 0.39285273596994275 1.4624859013415779 -1.4249951034849717
Ni 3.9262930760653245 7.928295970941059 11.339117645040975 1.911056756809431 -0.499672559239675 0.5357140262442645
Ni 5.890290494055299 4.157085015791074 2.1947653111082346 -0.4452919276062654 0.6605107457073914 1.1785093569497638
Ni 1.5077407869668649 4.068787722829556 8.921299702340457 1.0825964104005226 0.5853080351223081 -0.5996820444557931
Ni 5.901296441329228 6.768259879573679 2.1281654570581776 -1.26998560788389 0.7204161638137722 0.19703006300724132
Ni 1.3321265627337746 4.091761481676985 2.4695671668869204 0.000791642663359927 0.6390348352218027 -2.0105970156986146
Ni 0.3177823920571787 3.8355633762693158 6.504294719946979 -1.1790703716595565 0.4462702323591346 1.274389907599173
Ni 2.418256330852438 6.188755136472934 10.874859967810576 -1.6181901090168391 0.0142811925093625 1.5988078478354852
Ni 8.381519029942448 8.62162440572269 6.2259052953048 1.6276270860600228 0.9808951393042784 -0.2008260397145638
Ni 3.551138253147332 3.309155392243889 5.432563320497269 1.1686430056786452 -2.7340689356195753 0.9025240582935423
Ni 7.484830285363198 8.427882738920776 8.367241819180459 0.03783532568021871 0.4309726827701158 0.41981820881519305
Ni 6.281279083135448 4.113394179722129 13.234024535366718 0.19514441594875423 1.8800381969407298 0.9139731806707485
Ni 0.14333165367876108 1.4702188305884338 6.94187176129853 -1.3335270800809613 0.6114458698599405 2.585971593757295
Ni 0.39031435920093194 8.367368526304537 9.558742896447534 0.24247816803771147 -0.3736445384726081 -0.5652557444571232
Ni 5.5097899253185405 0.3039056497968391 11.683564950195185 0.31022570789633025 -0.7111414233800656 -0.436209505689023
Ni 0.14367847974831768 3.344938593926943 10.643969067046312 0.5390361486389621 2.415132330212808 3.504276826144494
Ni 3.1300636586200445 7.518874732350874 9.0001762743833 0.04754021167280845 0.1723338458121419 0.20278033522745725
Ni 2.5248475428961688 1.2825720539155263 3.5718766023677797 0.9417598638657136 0.8752158573968926 0.012260562534907916
Ni 7.575227032132432 8.622410544813684 11.129195386007344 0.34534492019696655 0.38822655005184104 -0.9244044033064015
Ni 1.3301935854394458 6.183816333242447 7.905108567234782 0.4954533789520048 0.5141278154330564 -0.778528237465156
Ni 1.6190858283373184 8.831505045627972 7.328431150253063 0.27706799019743894 -1.057670079472488 -0.2249725550537803
Ni 7.972541728721294 5.698861001050426 8.498124729135936 0.12527597309239072 -0.1513580148914232 1.0401621524957119
Ni 3.8610250341223646 2.9252050602019413 8.371721887129612 -1.0142665156758726 0.42943130642492494 0.4827099632434074
Ni 0.9767824449088558 8.809835352802075 2.973798629590138 0.23118999671840185 0.5840957599817618 0.2000068862473781
P 5.58763619271742 7.0419195214966255 12.582436386838843 -0.8259234389196679 -0.9159804409087644 -1.2719435029412094
Ni 2.485494344870479 8.144400982707985 0.09908682076804481 -0.5243173543715486 0.32835764161035064 -0.841279352550448
P 7.197010891107153 3.681461617043923 6.94735438780608 2.110274571496611 -0.5035739511766102 -0.6535029469309906
Ni 8.734680455702955 6.298481656185456 6.3589274284573 2.963649678869328 -1.8255030420073273 -1.3698081739001828
P 5.297587862921025 6.583637426227305 8.567756305468677 0.3005141370355211 -0.0723356734499335 -0.6651114777041965
P 0.5835547467236484 6.049386548682306 9.959230820355458 -1.9273333824822676 -0.6365349516180844 -0.6186066492744379
P 8.310895993485534 0.2994912475835226 3.9791327214144125 0.20157577339639476 0.30309681016103285 0.2083660568453508
Ni 1.853346028758634 1.116400747469564 0.9210914268332526 -0.5302679155280288 -2.312707036466346 1.675970767470733
Ni 1.381690320247211 6.98383771571488 1.785031466620689 -1.0112845502294132 -0.7882333805680619 -0.8465256885510517
Ni 4.311223769797219 7.533136220331042 6.78253524059663 -0.12433160690125039 0.7076426661981877 0.5213024788046248
Ni 3.8298476826430226 0.6069261994641697 5.949180635796492 0.2791793801134869 -0.7331261551812729 -1.977270376522027
Ni 1.0674936473144883 0.6334607059590472 5.135195573328952 -0.4327410875244483 -0.4862652846948335 -0.4180030099833253
Ni 2.0108605565084634 4.853844716487518 5.248955449013038 -0.14442734920986094 3.12516355124783 -0.6719729807107202
Ni 2.3538669149523552 1.9092728885615358 6.940843306393604 -1.3278462276461003 1.0448731848181358 0.6593668619109354
Ni 5.446001674605689 2.2990498985720347 6.934264709506254 1.1683193037906394 -1.0787271572531036 -0.7139891772415058
Ni 3.3220665707265833 8.631113566985759 2.334419683580177 0.46835523718363203 -0.02602367775727131 -1.4747948006159182
Ni 4.02327489380854 6.223539479075664 0.4974262727837573 -0.14517065513378868 0.18751672420016738 1.952968566551869
Ni 8.42679139288857 3.18343787855101 8.672271185442662 -0.9441803003817482 -0.44535389119245233 -1.290831340984648
Ni 6.827433031387631 6.977715079500306 6.648024067518833 -4.732347281851836 0.17642987025838647 0.24520739404341643
Ni 4.219208501370054 6.033007109504046 5.027161564835865 0.9345731163092871 -1.2830257288973002 -0.28326049216139604
Ni 6.263281122299258 4.031561724697146 9.581470640002957 -0.4004482889290136 0.33759870059264435 0.2528296864753646
Ni 0.9508491036012097 3.175835451106329 4.421557003914086 0.28561228022302426 -1.2887572320644385 1.460010443217892
Ni 0.5316205486334824 5.917731372678618 3.7170681686488827 1.2101699212778383 1.7060663013045327 0.7769554936613974
Ni 4.165001898872153 1.8123465629894486 1.8982095993774393 -0.6941140355841336 0.25366118123772446 -0.28310314064792536
Ni 3.005215522274854 1.3744208458293043 10.861052590764146 0.9611752922778478 -0.06169927678200987 -0.471348258373685
Ni 7.356772851787709 7.195531099877044 0.14786998840759916 0.0003499271402510103 -0.2188350746974747 0.12615940413860854
Ni 7.8620845620889055 5.598836362590301 2.293323106511516 1.086196211936639 0.22630644337385541 -1.2495257973676417
Ni 2.6077620952581686 7.9442129753599104 4.413827869345327 0.29262727808827665 0.10289683406624214 0.6115176036381405
Ni 3.7325884040441615 0.47379863118652343 8.421428074548945 -1.0836531337998112 0.7195587009094834 -0.08950550036100069
Ni 8.1263197836151 4.50306020539037 4.25641322750353 -0.8974319884826157 -0.7903419422706325 1.4711566896426986
Ni 8.168928522347029 8.281485142787133 2.1755298748558656 -0.5910097134927756 -0.23172401484500094 -1.3731868605644286
Ni 0.313454927578631 1.8570362581387163 2.878339147074896 -1.6398459967237178 -0.5200578077642464 -2.1799473534024
P 4.280693826981049 3.2775895955666434 10.376557843592495 0.5912405985566592 -1.1725737081916192 2.529125017081896
Ni 3.575157114551026 3.849343932099698 3.348134018114458 0.28442751588630366 -0.5682487656471762 -1.7978086614158522
P 4.673291689023942 1.4560128347793952 4.038436279830518 0.8234888613362463 0.07827209353902648 0.09400570222419939
Ni 1.7167058060485185 5.696844785499405 13.368359058366421 0.6365555204433747 -0.568256221846344 -0.8065933711324884
P 8.512813506833796 0.9633440908004357 9.152921250024587 -1.0408260113319558 -0.3940300441074956 0.016139071653707687
P 4.097625154426289 3.979343591664703 1.0212335237222683 -0.8433521759190766 0.09918184710850014 -0.5611946870138722
P 1.4074201902607173 6.956202614492609 5.704794039013643 -0.924491306593253 0.28899919441738614 1.1620370703263536
Ni 6.908035409952587 2.1160922103595325 3.1954158636892167 0.4957593402281978 -0.621896118658987 1.355530580935246
Ni 6.49086376479471 0.32044046705426055 5.263331620813539 -1.175436374451395 0.4376176988904592 -0.5189427203231965
Ni 4.878446245688067 8.215736168694388 4.006923200715844 0.14486315119569892 -1.030600734059522 1.487944964844631
Ni 8.46371218407977 2.9841469946361885 12.890416086866074 -0.0748152453386776 -1.1042494698939243 0.7998473106579064
Ni 7.480224435159486 0.4799758347027063 13.23715151920984 0.5992884085618001 -0.15751632118333517 0.14463432301434445
Ni 1.1178435439189196 1.8536512356998438 9.58519231494668 2.137706185345002 -2.7161583738877417 -1.7271336634977934
Ni 7.934455601936384 2.322153139152099 5.288224483912515 0.7041007144832002 0.03908873847134558 0.672560477783074
Ni 7.49947096984608 2.222988629344473 10.791895472494557 -0.043317431840712496 -0.9676472731554369 1.4688804920140122
Ni 2.350306167304907 3.706100141025225 11.66389667500801 -0.09085764351352095 -0.37196252278449493 -1.2111286856466819
Ni 3.137730826931043 5.987485031787843 2.912085786077513 0.09929883230233866 0.9750484507155144 -0.5236221280767369
Ni 7.757731534280713 7.3428628142246914 4.343600677042468 -0.8434763602017665 -0.7074909711116719 -0.5290340431209276
Ni 0.6466225240813409 0.9967041343441874 11.998638399431746 -0.4723864698302122 0.6243764618786796 0.6674393545064248
Ni 5.45005260309811 4.652361891813098 7.290420862768695 -1.7506944815368688 2.264061250434185 0.0939841049576446
Ni 1.8546870895609195 8.40828475381703 11.294948651430802 -1.0817379190549692 0.778698187384117 0.11797481144528714
Ni 6.2764327668568445 1.940949669581039 1.1008814369438045 0.23868990463987277 0.22091689692716793 -2.948484798203432
Ni 4.911075642311952 8.563070916486346 0.3705323250629418 0.11867723682895044 0.6675064602989343 0.02026774911010058
Ni 4.102036782031049 5.192522685583343 12.083010546155405 1.5529810193093578 -0.699115602563783 -0.6797312844999004
Ni 8.694716843794847 5.187546887572105 0.02529518133966198 0.34899382980346344 -0.13736144350201504 0.8429374569791612
Ni 5.443014346059908 8.637624648398235 9.50034663502939 -0.08892417393623395 -1.637912784256747 0.3456215708971209
Ni 9.15506139809113 7.007745592776314 11.917230459515903 0.33321908346771 -1.275301363669849 -0.861564070941413
Ni 5.859353608650849 1.631183121643453 9.4426412511418 -1.2580040100419818 0.10539363234616689 -1.0119772054210636
Ni 5.916020364068805 -0.005824828229513387 2.3482677548854327 0.7729286318901915 0.3039105643115798 -0.2401238088729219
Ni 6.329890225044503 6.384494521435495 10.483955541856638 -0.555739834546888 0.8789334154577959 0.361601491265145
Ni 3.8680355450750024 5.21089984292225 9.589605792290476 1.0483233481502654 -0.5324921768728571 -1.706494647091203
Ni 3.653826515821653 1.2704007710478866 13.074064652609133 -0.9790778835898817 -0.6932897399106254 0.444897263271008
P 0.06576932122215878 8.214163890512399 0.07195022421641695 0.9567319117945137 1.6988001066604226 1.0779416852373305
Ni 5.807190967789536 3.548927814997358 4.937334537690223 0.32984373923757393 0.8721030227995238 -0.8941052381022279
P 7.851531800879196 3.4144887817420284 1.5277586628321536 1.2539000151759372 0.17426808672037727 -0.38097861024017615
Ni 7.844983724685968 4.898636147283856 11.409736982019814 0.1717959710308009 -0.16134803622459953 -0.4903039735405814
P 6.244700493666211 5.679466487240822 4.020283865784684 -0.6600620882057471 0.1363988224784296 0.19053854174562668
P 2.99159219426267 4.508350459038007 7.04485690708839 -0.16108629792278065 0.33863459805632645 2.6500355141167393
P 5.5274734305183335 0.16206673552144965 7.2206949497450355 1.073121381030552 -0.8702528569646625 1.4664865378605387
Ni 1.5744978688351208 3.0517549564617563 0.1620010697856136 -0.06913490712444868 2.12246597135648 -0.22296915147050633
