# total energy = -340854.70232226735 ev
CRYSTAL
PRIMVEC
9.44098711158717 0.00000000000000 0.00000000000000

0.00000000000000 9.44098711158717 0.00000000000000

0.00000000000000 0.00000000000000 13.81783894740410

PRIMCOORD
 96 1
Ni 6.401895570233023 2.4431197527691673 6.344336704345243 -0.4977475743028202 0.6223861709215281 -1.92910512967071
Ni 6.176935730258281 3.3579514001400113 0.44266144908778365 0.02739998927950765 1.3655807660823966 0.4101074092853324
Ni 5.428133281552697 0.5376028473896972 13.130719305421113 -4.242711280912558 -2.5765353880450594 1.155126202139133
Ni 3.9813680995294742 8.983391870530719 11.322253858954365 1.6232199581312623 -1.0878941684643522 -2.7764425154897796
Ni 3.061919809479947 4.02737402953606 11.870076574850552 0.7640272156355036 0.8433215797914574 -1.7528624357224651
Ni 5.347271227272704 3.5628302606105446 2.814997401277354 -1.1145912181395643 0.8322115859212248 -1.669750240482318
Ni 7.462722641700283 4.164815919344364 2.4771375173904944 0.5899661027196097 0.09770269145981238 0.8604885784890471
Ni 6.855091272696828 5.714525624411257 11.604345832201187 0.7078357560456003 1.0202409880917525 -0.08708146430054034
Ni 3.056160807365435 4.8291404157210085 2.1560939196780096 1.1918212435673217 -0.511467494992074 2.243888889251368
Ni 3.0560663974947055 1.0326646070285892 3.1328084050160534 -0.23577735897876811 -0.5113186281190355 -0.8826946822724411
Ni 0.5057461247093727 5.346723650022472 8.558548396345753 2.4033595059475967 -0.7332950766589694 0.04998918743393326
Ni 2.052470589663793 1.6944211549213852 5.1695163226628145 0.23252285659721245 -0.5984101197219049 1.6240691935054352
Ni 1.9139901912774608 0.7066305035493323 8.021476132429555 0.36374579130165746 0.473125919099398 -0.9380631317404167
Ni 6.360798953504382 1.521264011016033 10.553098530316872 -1.3026463313417052 -0.8154351377938344 -1.1035131059485317
Ni 3.505485705129322 3.924070748983616 6.448978716864635 -0.2635398738040171 -0.4357364227073463 0.3378442409445472
Ni 8.858204381943128 3.1296777737026567 9.10248709016012 0.20668635515008277 -0.9155204705532103 -0.01113724756374211
Ni 0.5472562566718095 9.015472344604673 5.478441469368435 -2.274956814300766 2.1850432798680695 1.7543760441535141
Ni 1.7881795975430557 5.483495229748595 0.6286526708201322 -1.3590041413061433 -0.8660696721212504 -2.0613778457959078
Ni 4.321507981794456 5.096150412118761 4.503675603762252 -0.3906603563043143 -0.019912422653210866 0.05681880876125698
Ni 7.074764159910705 8.040501609579007 0.07497371064258085 0.3258001652958195 1.410058022559165 -0.6124606842777001
Ni 3.362180962348702 8.158513947991137 8.622525245245736 0.03894218559115229 -0.25540618895328915 0.5942025093984605
Ni 7.323486964348113 1.2200587594399814 8.083393902048925 0.34122806981511555 -1.7812589845872873 0.3344169604305531
Ni 1.3340492373590276 3.0555471432056924 7.5590490328058015 1.8885570330450188 -0.15748186840097395 2.1664115236994945
Ni 3.9143182093372375 2.3991341939961974 10.14151964296943 -1.0919917355724933 -1.8415148440545512 0.897110600587455
P 7.446068740503563 4.603066539271656 5.0628841500684425 0.3279740330186868 -2.775919295996458 1.8881855086382124
P 4.8826236074893865 2.6454212237687798 12.32949199959803 -0.3203453128288354 -0.07342145031494451 0.8859504702055775
P 7.872942971007925 1.9396696761159407 1.5240245556361696 -2.9669738581465546 -0.46945644066761083 -2.041737960077793
P 3.464134181749711 7.440800669716846 6.430269512782128 -0.9146025867246314 1.3499643997013784 0.4359626797855395
P 1.2100324311684865 3.703925812416089 5.572043191604694 0.9430600707343758 0.5309420587769178 -1.2219833689729986
P 1.717372194495777 2.369791606173405 9.864334150704426 -1.2976131397931716 -0.15868720156298477 0.08258177665797391
P 0.009069956281002786 6.6258263426168105 6.624672653996494 -1.0201756820714558 -1.0974267905451358 -3.3169606479909066
P 9.173080182800843 0.2657052519842679 3.293481731714817 -0.07042020159477551 -0.7579943791778623 2.6769693623931055
Ni 2.3661662671373844 8.40908718589485 4.688848291915374 2.7426731323488185 -0.29283373767212795 -0.9852161352771355
Ni 1.7117642481744322 9.056134675927957 9.980417695457552 -0.8225900036710607 -0.22898424731633468 1.7956085684407397
Ni 5.282260590288229 1.2242505577003802 1.7905436207061276 0.2307271981493704 -0.1397955068648044 -1.1638008470949956
Ni 2.0819547922926795 6.08231815781297 5.579546888130291 -1.042641981494772 -1.5953430292153363 0.4867044291147811
Ni 0.02547555951770367 1.9763101469461393 11.410094690878697 1.0528289493301028 0.583698267433027 1.1832586987092912
Ni 0.6993194031600241 1.2381854546200846 0.4960879949337239 1.8243105643611228 1.1427301424676255 0.5364717303458955
Ni 3.970473200447266 7.115284876427895 0.8958080584188084 0.20359717470179772 0.7064399041393382 1.3701251909199694
Ni 5.286820587044473 4.131885756433843 10.696859272773114 0.4347393489013997 -0.25128908146112205 1.073171517542197
Ni 8.825349746929193 2.898307503505368 6.571391499351478 -1.75401968925536 -0.6841936911466281 -1.2074268113150626
Ni 8.967540453235202 8.994267887638781 1.3375235206018805 -2.454000982253548 -1.602144368407886 -0.49363689456855625
Ni 1.4816307472837025 7.47971641843163 7.714250363397071 0.8681208982233243 1.2197912464176863 -0.0788711605756061
Ni 8.947081834248074 2.436293919115409 3.0988576714029445 2.1498855010200133 0.4720493982057677 2.194816557204749
Ni 4.147746614716434 6.03547197995689 10.677085125348778 -0.8662882158899596 1.2817499475086702 -0.8140529127343271
Ni 4.167959768039664 9.43985415452177 6.610191123925264 0.11814630402614491 0.2630359375844051 -1.1913095940382257
Ni 5.022491830975445 6.183365042454974 6.554865051480243 1.957735906033525 -1.2300990561015976 -0.001737808626713136
Ni 3.120699394996262 7.258504650324857 12.53974372581179 -1.492197826583714 -1.3420505441709403 0.3688468599736487
Ni 0.6654347564564254 4.381514895630256 10.801625906321869 1.0324259601937187 -0.09395659415381884 -0.24600109358930536
Ni 6.897452981693245 6.09569603649537 3.876497615122917 -1.5082080859690412 1.6751510997829149 -1.2032158585575086
Ni 4.090269885416189 5.101409041918406 13.621487304139217 1.0376743530768515 1.2084326268717576 -1.1995587214208956
Ni 6.993873782669493 1.7600454560656036 12.997183151964895 4.898106302659938 1.789128874253667 -1.102285661299334
Ni 6.298941606202279 6.060934322092693 0.5217202748368389 -0.46796134417932306 -1.595298549130646 0.8643933128600919
Ni 3.198332631697298 5.804705932932271 8.19421315241016 0.018906349986199698 -1.0363679755606021 0.5209119282344254
Ni 8.914661484639494 7.300101639368366 4.480254403031626 -0.38703458662626894 0.21189669570642863 0.28410227133640104
Ni 6.927173208998957 8.254840339096656 2.541072825947358 -0.34831068769350976 0.43721454991476955 0.6619117398199761
P 4.8871175173361205 5.8567446536784855 2.622418258765487 1.7598170126634272 1.0390851173814493 -0.9549941031678005
P 2.1694160965366787 6.464139998005117 3.482537497851052 -0.37626115015984873 -0.02799931342640339 -0.5057323922805097
P 7.255219186823464 8.29769297942087 9.721610028628795 0.4014739019800505 0.5767159225779229 0.3138669041933433
P 5.212170702258495 7.060442182521009 12.26693885154865 1.1960975023451723 0.39066626984158526 1.4094209031957983
P 4.420440085332115 3.971700528766752 8.758548154696975 -0.8950557749409551 1.0781820833829108 -2.0131064123840297
P 6.837795384379144 7.458729104168416 6.575633334843363 0.16651312536530677 0.6122783930635649 -0.34767845342614956
P 4.993243653023382 0.3981792943947758 3.7324744132260443 0.3833000592845011 -1.30961864889448 0.9844841422071174
P 4.499187358507761 0.2910495817816573 9.323061591639467 0.745792952015664 1.4900941499771496 -0.11127863037203416
Ni 1.495282414591218 8.400363713839424 2.353951518062375 1.7344553939701872 0.48875642654780344 1.9266306999882883
Ni 7.4547355666365505 0.19086843565424513 5.590531476589692 0.27583463201097014 -0.9562701416667467 0.9081483464588553
Ni 5.892044504344322 5.7329544311776965 8.899503035795131 0.14146620969900797 -1.0085756359386824 0.3285131933516084
Ni 7.945317577909318 4.978081427784192 7.408876916028303 -1.2606144510816353 0.576154136537182 -2.658528639189415
Ni 8.794940327567154 7.301007974127371 8.483296176584519 -2.892578731064431 1.9154705696064107 0.7293705447935827
Ni 9.390779903716469 7.003541353432215 10.711947858313136 0.07719223021128642 0.4789283847137881 -0.4696382176611138
Ni 0.12721824490698516 6.102937273580338 12.76983851865552 0.06817074343896647 0.3412203565056317 1.124113812918019
Ni 6.983243231225329 9.086515772328775 11.737425041883073 1.163407725421635 -1.5860384639849587 -0.3364535312446077
Ni 7.343161981408184 3.427531474867804 11.042788368311243 1.2912350041809697 0.43588786068354607 -0.9143889280519285
Ni 4.7247419806680995 7.665694422782076 4.362236400027251 0.7788871634664716 0.25925358772383733 0.09247126785754398
Ni 4.487508857498497 1.9429740215914806 7.822513938557653 -0.14367530153518482 0.20859385658544077 -0.01849188815660041
Ni 8.7723952504369 3.95033557502062 12.564464006363657 -0.3039421888804637 0.23221149600438074 3.0868949946849353
Ni 1.2140731736357178 8.615429399361693 12.569991704294882 -1.3388613478096814 0.508238446531815 0.173341718251366
Ni 3.1166775345031765 0.7385542572378749 12.79466925875614 -1.796722370330209 2.0120838846567866 2.642995576550822
Ni 4.574318733634461 2.584168099639347 4.550062005547877 -1.1636514660013249 -1.3774731466446084 2.023007987768458
Ni 6.732481173580158 1.609008544872221 3.85180565753227 0.5600402616944549 0.7679363208819225 -0.5761626211776142
Ni 1.6730184372269612 2.9909424686653545 13.060593541640502 -1.7677930888903683 -0.3459295890558429 0.7077668504808778
Ni 9.4250695687655 4.986795458852543 4.164461882329128 0.6552096452094522 -0.6187372613150312 -0.012806921956681169
Ni 5.5732978987866915 7.925972995396801 8.433055019777 1.7783857768045501 0.8509778107851345 -0.7664232266715059
Ni 1.8384528537066236 3.0872594187838005 3.369134249327945 0.5600808851244031 1.0366001461760663 0.8735631522848181
Ni 8.721442243204079 6.536873362415283 2.1240918057967617 0.0706801401243815 0.1531053365998331 -0.6157928339747266
Ni 8.81634304526158 0.3943915703811 10.114077525844424 -0.6932905112415737 -1.810102905402173 -1.885485078987914
Ni 6.445786719135263 3.217327897688115 8.55976439548075 0.11374868917908153 1.4124396354174642 0.6890998701989939
Ni 3.7551242853128084 3.1131182823766665 0.564464343809713 -0.4255607677259251 -2.3299588815682584 0.7144609746716017
P 8.745913281697218 0.3432912837499397 13.113751019354863 -1.3441925302146074 -0.8887995096185982 -2.409039329941193
P 9.293415004032925 0.7718006932153406 7.416365506974583 0.18269153489738213 0.3193232993222243 -1.0154962743179157
P 7.9849980465770125 5.155156581324826 9.452756207455693 -0.5211119600603734 -0.1873750564159805 3.122779110176054
P 3.327844092364308 -0.1665956578896379 1.0895588274264316 0.4126851973148376 0.847050193595954 -0.33485456218860393
P 1.9667086630929282 6.149179228263748 10.337857242435046 0.22289690347167418 -0.017128432150170503 -0.3065667709875043
P 1.3653272275317787 3.1423664603287293 1.3740648610678128 0.8148833790554224 0.7827489604147229 -0.8314726508726713
P 8.259013255382909 4.927515501021361 0.728254140341264 -0.04658890350313266 0.4306564370812777 -2.0861149435312716
P 0.8868910461283878 7.324393299107119 0.7256427633168804 -0.6240597019692091 0.029970578220161286 -2.382963201679432
