# total energy = -381167.3441430367 ev
CRYSTAL
PRIMVEC
9.28342147205135 0.00000000000000 0.00000000000000
0.00000000000000 9.28342147205135 0.00000000000000
0.00000000000000 0.00000000000000 13.58722570696997
PRIMCOORD
 96 1
Ni 2.1656458239089003 4.1919567762635435 6.0848083344579385 1.3541213592925454 -1.3011939151658947 -0.7286210682220677
Ni 9.052394159554801 5.767362668570093 2.4621815114711536 -0.4650318292373539 -1.1861239360722282 -0.0922439823380863
Ni 0.99555410923303 6.191020886855794 6.61995487351409 2.0151998045779487 0.572743053973104 2.7737166319181843
Ni 6.976853223600169 6.255169328620063 3.9955817786988375 0.6679540893593142 1.0944057443306248 -1.026012343357891
Ni 5.155501648564127 7.452377917158948 1.7297492712125142 -0.023051739613140942 0.16137477569747694 -1.4627129297507195
Ni 6.61478122277672 2.537846037462424 3.348286867611824 1.012873749093404 -1.5652073861722204 0.5312112532779045
Ni 3.2164455737988287 3.3211904172758544 8.456444923801216 -0.39719430076809015 1.4136308275120881 0.8880891138151351
Ni 4.880963027971546 7.2460260266327285 10.669192042786726 0.29150601999963993 -0.37924131583409526 -1.4839080757710963
Ni 4.983275615045933 7.3458135230906345 8.320952460357846 -0.6699186692848527 -2.964444663966798 0.5737005327903668
Ni 0.2619614413013753 5.916018095194008 9.690952442777219 0.38144732234647855 1.2705257966580765 -0.21432176020815347
Ni 2.154589269040413 1.7022824123633182 2.7244558040731737 -0.0030881520070204877 0.8002026371147961 -0.14658630453439273
Ni 2.951394609860818 4.826422927339842 12.867347480040678 -0.7354244642971464 0.0823938290168839 -2.4416218918629045
Ni 6.553269272685541 8.739515008645803 2.9620018471343137 1.0996698209430416 0.5775127074476054 1.5249377400188964
Ni 1.5589835198780417 7.951009046542802 10.396564878657136 -2.1905480117363823 -0.6010485857860164 1.641560408311663
Ni 3.129543466222081 5.028847930620579 2.6249301000983003 -0.6035842077236766 -0.02659883353445097 -0.5626766708760375
Ni 3.784303176444065 8.9060688716983 4.793763850910508 -1.1785435526218089 1.4337291409238597 0.283402417055899
Ni 1.6435090715804543 8.38540818336993 12.972322552368029 0.9038404631121207 0.8494762865389435 -0.33150467187976457
Ni 7.482864672984399 2.867453913705605 8.107606440160831 -0.2332265675324564 -0.7901403677827875 -0.946387592445712
Ni 3.8583570288251905 3.0994744643589165 10.876098153569579 -0.7540842454901788 0.8451131244742413 -1.9004962076847658
Ni -0.11533444224989177 2.0197568568574544 10.593647272931312 1.1771744401884243 -0.023906631414268506 0.38752078223406805
Ni 6.780610978961256 2.543453223978432 10.42948667591164 -0.8319413629789738 2.1242703715550704 0.5351226725171687
Ni 8.166950711358819 1.2468748929439268 1.0704202609852658 0.4573776551262058 1.2672252715299337 0.46477523314185765
Ni 8.431686038969767 3.958237359496938 3.8682828629690915 1.4939682882205754 -0.3630130269006909 -1.585301071598302
Ni 7.050015867528419 8.34173896917903 7.454739619559068 -2.3647057981311406 -0.027344196340907748 -0.30158243039903543
P 8.734882581375128 0.9176030765548512 7.418244633413816 0.4126268332730765 0.38562742186609716 0.8830739199887307
Ni 5.5844699838815455 6.067235746119938 6.231767679994974 0.621452089143033 2.3548857267169248 0.3302512590886377
P 0.4749918251713308 5.825337635113923 4.690160868263727 0.22652395870130018 -0.9106662277847025 -2.961571713294377
Ni 3.5043708880273106 2.1592216963110893 6.633038927612869 1.029255532885537 -1.7737799026014227 -0.157452043604303
P 5.622931198675954 5.483744861863842 2.564697405473853 -0.7067006139998926 -0.822216422381726 -0.254294186836033
P 5.888223531569952 8.51891306629496 5.3636935132086805 0.3554457560763943 -0.788611589843087 -0.38870657501205313
P 4.45546669225179 8.665368322050837 13.222870955419769 -1.1271343449118973 -1.0486347087430972 0.5039184790002226
Ni 0.45222794759533014 2.5134492060649563 12.938842821488338 -0.18335282263046487 0.678948897807921 -1.8783502677153456
Ni 6.505506069664244 9.18053322491981 0.5439193722641451 -2.7835688421219156 -0.6257725708952577 -0.09458985686244355
Ni 4.710974299006925 3.340509217176208 2.2462946188413047 -0.6089457291459062 -0.026392116840283576 -0.6682873043290168
Ni 7.1568773310810245 1.286942139637789 12.279740326742862 1.7179890208840476 -1.1791960986041432 0.3831679045820111
Ni 4.6388513982736965 6.967634786165738 3.979399846884178 0.7788948767759553 -0.06517617958701678 0.3524709897187865
Ni 8.447672090593223 8.0872803890403 0.719848562572465 -0.5238121326003559 0.1195948635472134 -0.6171884287706726
Ni 2.3255620406717514 6.956977418416768 3.845606249554102 -1.57756745039947 0.46463485090925144 0.45587973042444074
Ni 2.535618016330235 8.747322366029849 2.0241980456476174 1.1947283899117875 -0.0037188436124839176 1.1198951468509808
Ni 5.025051011274473 2.539108582770664 12.589244025636594 1.5101325566852637 0.7230122066757225 2.406150952649804
Ni 8.368818709356507 9.019122377314114 5.6825446890940805 -0.26815937485389946 0.8445976182904036 -1.4647361308283355
Ni 3.381894709706615 9.04200601102597 10.00254862485093 1.4611399288366447 1.0975838849482904 -0.6346130520050232
Ni 1.1918334875574794 0.890196559944652 0.6346648162939182 0.4302206350954397 0.08038811144076478 1.7068713137043314
Ni 2.9641685976853673 5.2452537665058 10.039139230236438 0.041856531024469845 1.185519212608694 -0.5780811783565656
Ni 8.43254939715849 7.969603739575195 10.851587136089085 0.08314124870586971 0.621692487288613 0.7911603244068697
Ni 3.4746639395981265 2.6266233961587635 4.436528512628185 -0.6926906728740457 -0.28048652896068466 -0.42342340966794817
Ni 8.318196212548902 6.814727552547898 5.846175202752718 -2.193037096706823 -0.5021277056483869 0.7371401614366724
Ni 1.0294850143919885 4.050031830143117 10.961181638897177 0.5807623247331547 -0.18377628332112866 0.39877012989564226
Ni 1.0391490560528576 7.287587904169434 1.4219713603540913 -1.8501956596580005 0.5135734855914832 0.7690457518960174
Ni 3.054059966947801 6.95031192186297 11.969897782968612 0.677023398650434 0.15393323181776714 -0.10930556580606338
Ni 2.934034611872514 1.42286071212269 12.300909312525071 -0.8835467458600912 -0.6369010767082515 -0.13317517333480935
Ni 9.004677373640424 7.865601569808898 3.5892148610831986 0.4518299858350993 0.10310072254693212 -0.2737651510764511
Ni 3.0416851662427695 6.7321236690719966 0.957449377819771 2.2928753464523997 0.8335400749246612 -1.2757960439180802
Ni 9.258105494005516 4.097089493139221 6.112851693775089 -1.4452093736493175 -0.519955220748111 -0.9772184617836397
Ni 7.445294666642865 5.717009390982627 0.32792664863051685 0.6027087470972587 1.9437357350996913 -0.8612910197856845
Ni 1.6971208300737475 0.5363273902562118 8.587941802680861 -1.2205975443690655 -0.7298089178825817 -2.0325187554723705
P 9.417566823120547 0.4420755979696565 12.213828963257749 -1.124959962968398 -0.4072941082062534 -0.2448944907886879
Ni 0.4665819737394565 6.588518423681045 12.407813479816044 0.19300294412571922 -1.334421823981089 0.3726914305307194
P 8.37544707222477 4.042382290922602 9.70955363420458 -0.021809125455291473 0.16046691917122685 0.8079987361204471
Ni 3.3202435082946744 7.126483409469416 6.2686432864169745 0.579883264562311 -1.086819961563567 -0.2637946701273005
P 5.450955817535131 2.476993210289517 5.1852791509958305 0.2027001168088251 0.7359330285024487 -0.11312725354499871
P 1.4805664594463799 0.056034731474548384 3.8499815260524377 -0.8443754749772683 -0.9606515585638938 1.3277045598619135
P 5.542369667904561 4.777090826104628 11.989028129414868 0.19731416990656342 0.16453337593111664 -0.2603308799484162
Ni 1.129615997441107 1.8172483027842605 6.276849830920538 0.7424448614790374 -0.04539231209187022 -0.5465463409730782
Ni 2.4224809599219643 3.149085068235654 0.5976666687096464 0.02369040163840436 -1.1121795233742782 1.281282263843632
Ni 7.0951704291407784 4.023834014997131 1.6289043930589568 -0.47529952971194916 -0.6980254548233978 0.8522749323300032
Ni 7.580916169643474 3.540501964054306 12.83096018158348 -0.9659341471190721 -0.3896943928466192 0.6346297641755715
Ni 7.0942235201595985 6.827009519039088 9.28957257912913 0.2573540567082793 -0.5729160892158585 0.4459367602791159
Ni 1.5214970643289651 3.6641478534694 3.900335731982043 -0.9320981724062335 0.861280478262723 -0.44908224788663303
Ni 4.274300723940688 9.140707347181934 7.337183654571956 -2.5646656331906668 0.9368290022229995 -0.3948810792538812
Ni 7.779674221477483 0.7131227237796701 9.439263107237371 -0.9999662970031166 -2.060810403328212 -1.4441176832470355
Ni 8.654330334025119 1.0146315401773967 3.4673922356279454 0.8100391635892437 0.11013294680336516 -0.23472063557947964
Ni 4.3805123479964045 4.73248398635393 4.654304581509703 -0.16994760496815248 -0.18648236939838206 0.14292711051525062
Ni 2.2396996762900256 7.4059886605025005 8.380423914428796 0.865990996364515 -0.8805303276312707 -0.770500482064673
Ni 5.076601850220492 0.3982912693535929 11.480349553066981 0.8024623796832503 0.12286633520963357 -0.9833646838906934
Ni 0.05685724260918142 3.410190578085413 1.3814399425910233 1.0146190139192848 0.9118021411613587 1.2165778816867112
Ni 3.8729041501341066 0.9817218113706911 1.0404013895975754 0.855459500705572 0.9677920262634172 -1.7318115285894369
Ni 0.6902233082514613 3.179961727759237 8.258994906040229 0.12792035269377325 -0.18253829714896952 0.9342129047563911
Ni 6.022972392960454 7.273040782860519 12.557028696749422 0.7249143087944419 -0.6999645808276398 1.1882001018749664
Ni 1.4611269750680327 8.625440326677737 6.2281127969960455 0.036905871887413864 0.36109858348679746 -0.5516034437810113
Ni 8.208447604945835 5.124086550600266 7.8171383968152375 -0.9095786511474787 1.3537313229429782 0.13865470839214186
Ni 5.162640599608515 2.050949152708098 8.787632838363976 -0.1902894018492981 -0.3894876761524518 0.4305494791897682
Ni 5.365947527920745 3.963027604931144 7.029745516936193 -0.8260003149041905 -1.0611402974092756 0.6184264149428318
Ni 7.969835825109798 5.385591247569542 11.533570479520002 -1.2003285097073844 0.3184365258418968 -1.2011674606689118
Ni 5.503564966518939 4.750939428065562 9.346136465622571 -0.1390120917315606 0.12246858555058263 0.7242843885199267
Ni 4.743187771209821 5.231449318907613 0.5443881850440432 2.4405132321797582 -0.502176042387819 -0.3116084471764698
Ni 8.220887389600556 2.058960745362593 5.533873480653814 -1.8571553788052855 0.8430878665140964 0.11950436071593613
Ni 4.677266195961185 1.1124231010377168 3.187943613465303 0.5361436575825154 -0.6899411351533666 0.0207688571162352
P 6.093414994423156 2.057104061085769 0.99295846461403 -0.08910955047416266 0.2650941056650144 0.06494220919933977
Ni 5.9580719940640705 1.1236003403841972 6.7080266921852365 1.5653729652158073 0.879285399480576 -0.6604991757431657
P 5.641163838274366 9.221018225575957 9.102748365484405 0.10811411660112348 -0.15505114747229426 0.9751921753822302
Ni 6.723007349272792 4.325777295515633 5.112289178705326 -0.2858413655146948 -1.238245596468132 1.838866093577794
P 3.279739940795759 5.269316394733439 7.387347550363188 1.4417448121394847 1.4425637084963543 1.9759783971834806
P 2.08488934128844 2.040690972078645 9.858183995590757 0.5966905659276369 1.6038970894329345 1.9848494744208653
P 1.4976572382145448 5.328693157906271 0.8113515337871823 -1.2695675465098653 -2.360099923928013 0.10774259219431767
Ni 9.075574862750948 8.007257296709186 8.210190103139634 1.93377990943856 -0.4189255217975947 0.5243631200078195
