# total energy = -340858.2194783955 ev
CRYSTAL
PRIMVEC
9.43314092876142 0.00000000000000 0.00000000000000

0.00000000000000 9.43314092876142 0.00000000000000

0.00000000000000 0.00000000000000 13.80635526574184

PRIMCOORD
 96 1
Ni 4.573762160219814 8.013368349377018 4.72000603118968 -1.1955786537272248 0.40212696218301713 0.4566703446465361
Ni 6.21034608522722 2.81383991712769 12.027972589217642 0.731840860710946 -0.10379312062826641 0.08399382651415212
Ni 2.831527056432382 5.873554653443001 8.995986570761605 1.028053542157636 0.4609792564345351 1.0243403549721068
Ni 3.0685347231152513 5.920437364026638 4.987904404582454 -0.5584042687529286 0.271225672484049 0.027000182737927692
Ni 5.657281030595713 0.8798375473994532 8.960946225342296 0.3136128792010083 -1.300275002896051 0.23052562366152557
Ni 8.721136915793563 2.8692030214366158 8.640638264075953 -1.17684996696947 0.46117851692953477 -1.1847851626561465
Ni 6.591803439468887 3.5013743961796684 5.43853026493167 -0.7621870771029712 -0.6769094987803891 0.7256519582914148
Ni 6.1749057746311 6.793691522348361 13.516145850776097 -0.28793090105387187 1.3726160756626231 0.026431197608335125
Ni 9.277711098863122 3.4191834389733855 1.5761891833090822 1.8074883505974613 -3.028692932422907 -0.5312976423441237
Ni 9.085378787778664 5.526009440961531 1.1053764013001124 -1.0858172313306655 -0.3483996478628903 1.2368422883627022
Ni 5.720247246520415 2.2031289380743306 3.703844503856528 0.5959218060824124 -0.697179818993651 -1.3778593263394334
Ni 3.0824674723168672 6.062425001794223 12.775821628269764 0.5788771918952997 -1.8124050711727882 -0.5161777559835498
Ni 1.867639279742937 7.600640132844655 7.503284458227054 -0.34338162582300863 0.14346781351006904 -0.5628859586733661
Ni 0.35325980927655504 0.4108198921156477 9.642537825587896 1.6269889382553913 0.11223328097581961 0.15948424354298338
Ni 7.468123368603424 8.802941114220383 12.704967419872217 -0.4079286564664587 -3.1075877471475963 1.4919152623462886
Ni 4.872104109440873 0.6145559273096755 13.56390207021286 -0.20918752430538168 -0.22494453002932227 -0.3718997878673595
Ni 2.238805077194514 2.3372965019840004 6.003196196318863 -1.0857221005136979 0.7080239607970065 0.4062826362226035
Ni 4.296654211305347 6.464248507373932 2.9897387533413737 -0.23584652165380673 0.0756426263359794 -0.22060296523117492
Ni 6.693907757247012 1.6208966115867653 0.839978753576496 -0.14148395031082087 1.21552732893501 -0.5646389368087308
Ni 7.902972300692853 5.362391610966929 8.404590891143066 0.26887388442242083 -0.027368364710623833 -0.2566842843347644
Ni 6.309809123535844 3.691999308749914 9.482522512126875 0.014660173115336045 -0.8291434885188624 0.1373825265479376
Ni 2.8992570085431484 4.273769411330316 7.366933122184565 -0.01470439608971016 0.08286074135097342 -1.4234712106412775
Ni 0.7371575170852214 5.43930000923421 9.88365268184584 -1.4181184309697963 -0.8399441786787921 0.0390069773908167
Ni -0.011569747390509035 8.132782480821334 2.8378821634988194 0.21226822011323443 -2.38732790640603 -1.5164299596582012
P 9.083737421251188 0.1517933877981053 4.283104447626809 -1.02801343294832 0.6182058142915934 0.2768193645217426
P 4.640143173172943 7.883889056525711 11.854785781030678 0.6759147389672876 0.13713467220318964 -0.17966663202812927
P 2.4552296302972034 1.248391308118513 10.264914770069584 -0.2697323757679742 0.4686285454496768 -0.15359821707585158
P 0.953190594837967 5.230384236337672 7.2300988093247955 -0.26599193488893547 0.4538462449341797 0.7363652309438609
P 5.966735219870599 4.8798581513120505 3.6242231342484317 -1.1572728161684909 -1.3430563597276353 0.13200043630041783
P 1.3945672604734483 7.590650436565365 9.782258679582192 0.9774346915595038 0.20060415351174482 -1.1744369866526034
P 7.569199474016635 6.627479578589071 6.207351062971626 1.8035571338638552 -1.2496093582203833 0.21575617866183483
P 1.6540069363651482 9.440404481043398 0.9735718392015494 -0.6959418328214918 -0.8535383724234592 -1.1137399258828626
Ni 2.463860954277893 7.725374555791824 2.0112135718204143 0.6039197366862245 1.048922158076529 2.2986595572343442
Ni 5.665393531823464 5.261381537540455 12.098537200187641 -0.5313418653184978 -1.4505166447948439 -2.1768522594168447
Ni 7.688443808923627 1.2572207280594152 5.773237915877271 -0.6569749646399912 0.8370617149246745 -0.18664229201501403
Ni 5.084991234682624 4.967548629699471 0.7165687436204639 0.43798922329726503 0.5054097188337683 0.3419196965655015
Ni 6.188121605119565 8.13351826581641 6.497450333619651 0.6233901867060103 0.9327643452353226 -1.274566285276037
Ni 3.554690508899731 8.29732475863026 9.806087736967568 -0.1324249254323461 0.11529932149565304 0.5059635344547092
Ni 6.403678309253705 6.239268095418253 2.1551585863377176 2.0933734248658977 1.2425588791315052 -1.3409830221383745
Ni 4.434887458969855 0.46894596341249045 2.1166525049287834 -0.9935022865453278 0.608751610857229 0.5091203349161361
Ni 8.685196648726428 2.4260529253001843 3.753616585516979 0.25278649194225494 0.061090439553417364 0.31492568447516084
Ni 1.6474980691010217 3.0644313067965627 8.98113031705976 -0.34040891634792986 -0.6877664960995511 -0.13969214851772072
Ni 5.4548741249633 0.7151566024183772 11.171081157209477 0.3856600748762455 -2.471160781862286 1.7698049771140747
Ni 0.37215250399625466 4.56002750697841 12.536198151597993 0.6545216180034922 -0.40884782584661844 0.240287845254612
Ni 8.095851733953136 6.232080042004825 12.377811941581195 0.9653453644951375 -0.4192744204965812 -0.5249824987593732
Ni 1.397114208533324 0.5918182843336599 3.0815373646179647 0.36296623282315554 1.053981060656675 -0.32400065019323554
Ni 5.510737185743239 5.726954209744754 5.424309804930697 1.083894817496972 1.4056933178325663 0.902053546415027
Ni 4.27875954289948 2.50056530576299 10.723120159182168 -0.5500960059975494 0.4075342492415175 -1.197884419042266
Ni 6.5329029072990235 7.336644249868066 10.825660288072761 -0.8707830184365196 0.17005379152871355 -0.7187626873707493
Ni 7.308486324094997 4.089077944425484 13.687220578701558 0.4303245076631556 0.35895042679554306 0.9451449782878627
Ni 2.114174418797934 0.7660078354049381 8.061614148829735 0.017327178424537903 0.2961664015897867 0.5738398865817085
Ni 7.614544582623384 0.13943219988084232 10.175960250793187 -0.8840110870910194 0.5569341119653053 0.007674485826122267
Ni 2.985240088416356 8.333463121657607 13.03551882890974 -3.1350373587181166 2.3803262782772165 -0.8418671067331179
Ni 1.2692668490685306 4.369251664152765 4.991867267100802 0.8030336788056879 -0.7157138732420965 -1.1691286870658122
Ni 4.034214796587571 3.54096528879929 13.256255270746388 -1.537721779157442 -1.2049050733344733 -1.3431031538051705
Ni 8.59698734758607 4.32723645430578 5.904964182905845 0.7090284908021208 -0.13453143025238765 1.7700662011952613
P 8.660245990880611 7.94012944294415 10.95143612978219 -0.21465060430248195 -0.17270485599831548 -0.17691992252092756
P 6.3861703996273 8.154318341638726 8.564151527209697 -0.30130706525046175 -0.09463022318207574 2.025639511854034
P 7.852042772636303 4.462809556218862 10.967727164224431 0.13713004421749933 -0.4522215648465631 0.02715573447918549
P 4.729673114048051 2.671361756030056 1.3235658950768863 -0.08361664568039147 -0.7847009419347711 0.09763250034350927
P 1.1408440680050247 6.124174342534762 3.3713460945243443 0.40647598318033223 0.3906181902124692 0.14420803411020325
P 7.473575724079749 3.9635228382145793 2.3941047634883814 0.20499199816679534 -0.4841855193476693 -0.9101540640349743
P 1.6236793881707035 2.7261400055993064 3.510459454240654 0.39080176697818503 0.28413698122907843 0.30220129492995695
P 4.119301728069342 4.681422598024852 10.601127006998704 0.22630412938101027 0.5480843748841593 -0.20353264001244947
Ni 8.636399010527404 0.8031234718359997 1.7376817266448321 0.9857709793393411 -0.35356550833454586 0.17447017542885435
Ni 8.963738435067196 7.713460498756183 8.517471629156754 -0.720911615392952 -0.15534065368825506 0.47848384097720176
Ni 7.305807312061647 8.104313261396502 3.9093520829233137 0.4634631991986534 -0.5909081549179049 0.879279485943305
Ni 6.346305945919766 8.727098660881865 1.6301297699608626 1.4214166421050942 -0.6896302887811671 -0.39541921114553835
Ni 3.3664710472749233 1.27703032408067 4.240815676691911 0.5718981894743055 -0.18905861476599053 -0.33595113768689244
Ni 9.045825627722891 8.89551795962638 6.310166639578323 0.5985574439330466 -0.7860715970300527 0.40395398808942684
Ni 2.06564090854586 2.036624566945203 0.7217230118423751 0.7484260187631369 1.4265197676596142 1.7925006189393775
Ni 2.700415830194563 1.444015785398885 12.438035000114002 0.7607845403284897 -0.4270023852684582 -1.4865745668596657
Ni 1.8776855748680021 7.986578229043511 4.684206317922887 0.9207498372729497 1.981382084697555 -0.182961243619001
Ni 8.058260667217565 5.796448159215509 4.109212983809946 -0.43161288745727605 -0.5858808769066426 -0.955189507008058
Ni 4.224934040567442 3.819346711743695 4.534876866544187 -1.0843131359813132 -0.2649375254824921 0.33053048089195336
Ni 5.058663338256281 1.0848583763925737 6.108000279040455 1.1008751541050523 -1.3323777969678667 -3.623587325682069
Ni 4.3102756668552 2.208317165603707 7.761739314202269 -4.085783485242841 2.270931752301773 1.9027379525310908
Ni 4.152147924900775 6.720763909567255 6.973383424543067 -0.7387946663209598 -1.0767515215839714 0.8365117559584755
Ni 4.21795351625519 8.882849251313738 7.536889079591872 -0.6648384265484678 0.5354903402692326 0.5006133258863894
Ni 3.3898086380161536 4.461988872955124 2.174846494840556 -1.4792224973699688 -1.2172304276690458 0.39601082198295023
Ni 1.358240234626852 6.633280960281009 0.580293816019771 0.9561194750214953 -0.19036550650287215 -2.4299390562083376
Ni 8.99780150708279 2.462125256340793 10.847791380084887 0.024455047718570787 0.25554194320020507 1.2916019006020854
Ni 0.35185332795904595 6.546920554769302 5.47549025453685 -0.48626605602578193 0.16779199207773038 1.53245538855218
Ni 0.40440724288933866 1.2160450677580927 12.959943333460462 -0.7033615223243306 -0.44745885335059715 0.7914940535972046
Ni 2.290036465761864 3.6384568006467513 11.101221201869377 -0.9095814793609561 0.7604775506110322 1.0910352851964953
Ni 0.9369089935366882 7.133661922636943 11.81052265369233 1.0789462152424452 -0.5003878401391446 1.1532366984259044
Ni 5.41600015105683 5.869837995903776 9.067379411508112 -0.375131921651412 0.6382912721875588 -0.4351355558985539
Ni 4.354639728801849 7.487876365778903 0.5746131785321521 0.35039173859225464 -0.3854358746805814 2.8630629809935013
P 4.972170868771097 4.1918897477757975 6.8830752495385505 0.06297505817063993 0.5700315685792119 0.331851513696222
P 9.491154779421661 2.1787348355452996 6.764796868266121 0.3357696178037056 -0.11902202176287888 -0.25333002315055086
P 1.8198415544859383 4.241451470392784 0.522076243255592 -0.2044338116704802 0.9282428032158853 -1.0531238548627024
P 7.734043612336363 1.2394958561908733 12.327887986351246 -0.05028100764273921 4.154796007856812 -0.9290784117433031
P 7.963410434839606 7.119087719849877 0.6508829531562716 -0.26496760738947917 2.693637052856774 0.6839008424965577
P 6.324656887410822 2.2272589126564113 7.497168952941064 3.3755638023460963 0.9435598931889297 -0.3527041887755151
P 5.826973803370165 0.06495849529598315 3.9228131750768047 -1.244227782193496 1.628125622962996 -0.393111131837652
P 2.6801062777022953 0.24594085117435924 6.105474083890698 0.8347780610968205 -1.7206981922850948 -1.1131460010526055
