# total energy = -340872.9799138385 ev
CRYSTAL
PRIMVEC
9.24780082787298 0.00000000000000 0.00000000000000
0.00000000000000 9.24780082787298 0.00000000000000
0.00000000000000 0.00000000000000 13.53509129362202
PRIMCOORD
 96 1
Ni 1.211776340338804 6.728172794687749 5.481252036669643 0.7537361181221406 1.1168447900604312 -0.5795245956713116
Ni 2.128695797461325 2.0984369929862376 5.1173612446739964 1.934513702280791 0.09505959741001048 0.40650066577068056
Ni 6.8607585158855855 1.1379973849285823 4.565385904067206 0.7647268128056894 -0.12935785647124817 0.22350985446532476
Ni 3.613513458743572 3.0622982873690097 6.546029958141165 -0.29556913432542004 -0.5036364289834293 1.5753308477594676
Ni 5.469380634681664 1.250746573241621 2.532049730146623 0.6797125154468229 0.16424721214926552 -0.337843726723915
Ni 2.0453823593451697 3.397003944571586 0.7807853547275285 -1.1886017081887594 -0.8383822335083109 -0.653385704626836
Ni 2.3992402121675207 8.928437323149288 11.160292339412443 -0.12699475555571033 -0.4930296000018605 -0.46118880134217993
Ni 4.97341182575642 3.42253712279766 11.794681307109894 0.37494551667221876 -0.567566394868171 1.2190304569922619
Ni 7.690101298686873 9.032761764861835 1.3417874737720128 0.16538775351161195 -1.185781722241461 -0.01947430667452775
Ni 6.035383039661258 1.7231334899261945 0.08972031456491451 0.08845546182993154 -0.5546507152477674 -0.009045140921403778
Ni 3.6257390515052057 7.3732623927819345 5.04367569205265 -0.6404173173916261 0.08597049062454871 0.16655966233252606
Ni 7.783929486402103 0.5501646211947427 6.911301446808001 -0.6929233577101421 0.4795544483335612 -0.4369129595139508
Ni 6.110549165203284 2.94622913854052 7.108819677095501 1.6349045935580424 -0.28817978383988435 -0.6218305555283742
Ni 0.30949060332672856 3.530301746437083 4.954939343501229 -0.33907605646911926 0.4496810578128966 2.6722249057295855
Ni 3.806228381254679 8.68034656897656 2.526879284675345 -0.2477507292905604 -1.1889068981340039 -0.36173184619542215
Ni 8.808280646332415 4.086344269870323 2.9754188972340305 -1.238569555466454 1.155713956321803 -2.3630669769761368
Ni 3.479253885586691 7.861740482995436 9.001160179699163 -0.27645529631410454 0.35194082824692935 -0.8030689029189976
Ni 6.424909660472732 3.7518143208844426 1.4842849879516347 1.1101465521046494 0.3320368902341508 -0.46033133843789104
Ni 6.052426736680691 8.213267889996358 5.621908313694317 -0.5613638656018848 0.160457148979214 0.7348433949826957
Ni 8.019526461587715 1.8956512153182332 8.82409438583498 -0.9862882852953917 1.8555708079269846 -1.0984488040517468
Ni 8.188909182481876 2.0610573818345563 1.152423954299345 0.6501723398958609 0.28632473290901655 0.1471005251666499
Ni 1.28878277825569 4.634313463136464 6.861980150381661 -0.896210714481005 -0.3458624832633334 2.6885177293523372
Ni 6.614138162052571 4.09253104865817 10.245535942915451 -0.07714415058217036 -1.0846131837202353 -0.7815436272527121
Ni 4.26914554983947 0.5775094436129533 4.682193952185903 -0.4262997027744787 -0.31302949589371254 0.7531082547301546
P 8.023697219784006 1.367379837923711 12.296860939105267 -0.8511824705967728 -0.6703956089212713 0.9816289321465095
P 1.8988139632187468 9.333805426865965 6.083116488676725 1.1891220994686036 -1.2187471214238883 0.7669428466204017
P 2.9526008733459403 6.728357750705322 10.944353414554673 -2.0367405068632016 -0.7029588875692732 0.3766149339548417
P 4.056076217594358 0.6422949126686449 9.728712418228662 -0.12332964799929726 -0.14728204504983666 1.3891050744565818
P 7.7746261987181375 7.666732105866414 7.097003761912793 -1.6151032425613991 -0.8493528735872018 1.6094064492869378
P 2.110163204500422 6.619021000916522 3.2086558336353987 2.1449492400606607 -0.06458354030834039 0.1592243050133774
P 6.407181626188276 3.035784842249794 3.7391633292823894 -0.7107791549446405 0.14230953153590975 -2.509139317988588
P 2.158714159113566 3.0190370748584785 8.398645607290307 1.5407055443761142 1.9376003116259146 -1.086038346202536
Ni 2.641948746228848 4.927330033977888 5.276709176834687 1.5415275260567776 -0.21137733286784885 -3.0637674075285366
Ni 5.140306888214212 4.92220675229109 2.9144028318164947 -0.2935665020730944 0.5694065334007031 0.6442207502981163
Ni 7.066290890414563 6.300674703468356 9.216801325368639 1.2742616095514248 0.3471138391719312 0.7085854897274312
Ni 1.173832613333522 1.5150857135582134 12.438532624666424 0.11056566346540958 -1.2514703226885222 1.589666033435217
Ni 2.034516193312704 1.9398094645139976 10.178889816322966 0.6327304902703297 -1.229546011811605 0.1746236702875831
Ni 4.201451647407429 3.0004304994905464 1.6078873953759087 0.8346320224372594 2.0184699906887884 0.5929719794254691
Ni 9.44154230710275 7.280664162583571 2.7338450683405195 -1.7720981440236256 0.2632292845421338 -0.744529254811892
Ni 4.416250318416857 0.6488710238734843 12.21655673539504 -0.7148242715482914 0.18147874553620358 -0.19251469163539103
Ni 0.8869232901923888 6.4569810339200435 12.127631731705694 1.5891317581983018 -1.3953189165767776 0.3038719977641605
Ni 2.811017041893134 5.031423280668467 12.693587897680894 2.535729923992923 0.7369483571408405 -0.5560563373460423
Ni 4.683058621568061 2.6646520973860417 8.985960494174941 -0.4015633763700633 -0.17891278458124024 0.6184899211909154
Ni 0.9675974059377647 3.9333763955358445 11.883850452742438 -0.49593031858842324 0.32985633764306416 0.5004153509429705
Ni 9.066081591427771 2.29656187901138 10.70774657951311 -1.4403746712648355 0.3228135718636699 0.31630508132119073
Ni 2.2419998538270853 5.724296265902867 9.055192305893108 0.6444318378676578 -0.1845959510089466 -1.0673685377071747
Ni 0.9604765992611701 0.6679871530698329 1.5366386382860977 -0.47569265138530986 -1.6708151914117224 -0.4486929828680143
Ni 9.498231326489146 3.987531517481477 8.966212740178577 -0.4648623935390252 0.31559905639310165 0.12167565733564206
Ni 7.896114558861542 8.984294040456598 9.26482423055161 0.7193663823930192 -2.5454571785830162 0.5872510177812919
Ni 8.917025536864978 8.235240664884133 11.740500291321801 -0.8705778444042491 2.374807405341517 -0.6005747314733915
Ni 6.309376884095207 6.849855358649606 0.5675403142657212 -0.6129980448384088 -0.04283920665271332 0.6586412965988204
Ni 4.9023147326010195 4.856889534684875 6.061677311899649 0.336708070457575 -0.26852678549564724 -1.7553085832701123
Ni 1.65128732489962 5.792951939626292 1.0656999272191274 -1.8151314689650158 1.2162462093789055 -0.16360289369704725
Ni 5.81102214254326 0.38402048016830015 8.425417990834127 -0.233547698317301 -0.24378505977459308 -0.3027558818818463
Ni 2.7718433573709853 4.551564140873909 2.637068681705161 -0.2869651947064929 0.43777787861740736 1.7367017668022025
Ni 3.9253493043731376 6.434055735541761 1.3112447618099499 0.36330613266107753 -0.15773075118698643 -0.22148639627739275
P -0.04068754952599048 3.8576461541402183 0.5951477742288867 1.2650516609173825 0.6604791211385077 1.4640625018000788
P 5.3587676883716036 8.808567328159654 0.8373439801215339 -0.7567923884499611 0.857597372984181 0.5046432729813889
P 5.4436440048362575 5.135988165203862 13.049993519645327 -0.26988792750923196 -0.17898040459438208 0.6765593145298219
P 0.9167169302832775 8.790099469804902 9.5376103121908 -0.27601203812909886 0.9005579357061071 -0.18136278878362957
P 3.061040586449508 2.5477691420802273 12.54256298631103 0.46085327237963214 0.3367826324492522 -0.47956524696683867
P 3.0969590450623556 1.5119599568612148 3.1535407899585572 -0.7496092404379605 0.4482672081845054 -1.3577895521727519
P 5.5393772395325 1.0639224998902423 6.310032553177506 -0.6203863668826799 -0.5686807109782722 1.045789268874502
P 8.51845456679414 4.908852927822256 10.767530837853604 1.4414257382371691 -0.4287214248420939 -0.008897559599945966
Ni 3.293410079128454 3.9693041019495707 10.352206551710923 -1.3632922271585362 0.6366989879997744 0.03755430410469016
Ni 4.69921452970314 7.188454340022111 12.07493961185907 -0.07788797072673037 0.5511725268911798 1.8188765378297447
Ni 0.27524507189283637 6.726230756503223 9.816906845648592 -1.008609060279779 -0.6182559508032385 -0.0035306388610777902
Ni 7.1969530690296315 4.353818414684794 5.091048476833849 0.10479790774369693 0.5911292697897755 0.8566440079319763
Ni 0.16897119375505942 0.9780751643333251 5.201576343375824 -1.5624300805373994 1.371721845983128 0.32993912716485757
Ni 6.419203767330578 8.381402157771895 3.3159349477286897 -0.009126387781300411 -0.5018094030770197 -0.9506453392808015
Ni 1.0218080146886697 1.2971705336526653 7.698056257002727 -0.5699017278695668 -0.4925238640100356 0.3763462536744873
Ni 7.026895258671326 6.148261697186598 11.706825349202123 0.135953764521211 -0.23149904331838841 1.0180874320838598
Ni 4.168400007066976 3.223922103325947 4.170215350379464 0.08183512829993649 -0.8627681185518431 0.23245009437774802
Ni 4.767583521599326 6.039257868229431 10.050902101722016 0.8968200659302297 -1.3318124113827 -1.3412013087967674
Ni 8.36040040197638 5.83134880887463 0.3321745341020773 0.6805679214685827 0.1830219216536074 0.6373350789218766
Ni 3.1977323312374852 1.2207652027928948 0.9118562861414359 -0.20385068547350052 -1.892435285053502 -1.2103920645909736
Ni 2.4070361083082603 8.28185882911363 13.507452636151513 -0.44165484507431035 -0.3864864274322828 0.20514112215014993
Ni 6.587985381167624 8.737229792181408 12.498818113814542 0.8282659710099155 0.6615540993702413 0.12565392525709973
Ni 3.604302649068393 0.8945915666810019 7.547722156358499 -1.0273968824102435 -0.7412798946366589 -0.8034571394963518
Ni 8.068410337032493 5.4111657281502845 7.206759437081399 0.8636093835062159 -0.4178875674513835 -0.4980717904114583
Ni 8.394265848794157 8.102580961279267 5.1221386586079305 0.40879486112149604 -1.7155140769809938 -0.8189367231891898
Ni 7.264730201669581 6.07176388831804 2.785372890056515 -0.06699266397046527 -0.07433573459909779 0.5516258123785145
Ni 0.9126220040541918 2.2529677456692165 3.183168894413718 0.24586765333523464 -0.65981217697847 -1.657721848562874
Ni 0.5877929981900611 7.565949571890404 7.551538723781136 0.6614517694644222 0.7195648715570704 0.7009292587337541
Ni 5.862745092857796 6.448343587899344 7.281418783135272 -0.34845492658085797 1.9918796417947693 0.02364900687750766
Ni 6.286886232358223 1.3725863498184159 10.662620085565345 0.341782913877321 -0.03473251838517889 0.4434569312800556
Ni 1.6603409219598617 8.794612396633704 3.942690780580865 0.811973661607795 0.2612325658270791 -0.3306140417446951
Ni 7.632441260208216 3.5897836016888434 12.841377003523306 -1.2640849261287392 0.5426359501750784 -2.2691548629070084
P 8.342515155076986 3.0198508813358043 6.936680186759401 1.116808280395541 0.4475431855342873 -0.12917247993331948
P 8.869436353543218 5.694425869064684 4.672841651157279 -1.131869802714354 -0.23300750954311486 -1.059703564962749
P 5.417176798721435 6.617115953935511 4.1977867439192025 1.0137309548873767 -0.22377647786315008 -0.1833628499327939
P 8.60399672492206 0.1350835522151727 3.397131564223712 0.16644576246248108 0.8118471633322599 -1.9656302211799375
P 6.375489412576991 7.865337877537248 10.560931267103225 -0.258750937055806 0.7915773573396303 -0.9500634986354024
P 0.16944190681978494 7.81185784505576 0.31646529474943963 0.9937717381566307 0.28755577710264024 0.48604982624991777
P 3.4202991549850164 6.158933659400612 7.001310292760331 -1.026048081691833 0.6979110407327206 0.6315786360540736
P 5.496504434658874 4.608724798105118 8.299961399333675 0.10829306538114898 0.6432216196096405 1.3090658617148034
