# total energy = -381160.52757028776 ev
CRYSTAL
PRIMVEC
9.35431217867290 0.00000000000000 0.00000000000000

0.00000000000000 9.35431217867290 0.00000000000000

0.00000000000000 0.00000000000000 13.69098142185270

PRIMCOORD
 96 1
Ni 9.379288092912578 5.535311275705862 2.666496236161073 1.1487218412746862 0.8867457124133631 1.0392067305609778
Ni 2.78939038197002 3.37330525060655 11.184052939689677 -0.08460343507369301 0.11434904176724178 -0.11518182208118227
Ni 5.864788855775641 0.6103071247380817 9.643434221986807 0.8644141387956985 1.125541803613797 0.92976001119136
Ni 4.742514618330526 6.1992709928080405 8.251636996884075 -0.09771400431372204 0.47809329040700244 -0.5101945418169214
Ni 7.419896467458699 8.066625541710145 0.4802606719130262 -1.9081663226355137 0.06871787419168811 -1.9669224576287996
Ni 9.398651518917474 7.259095842809346 4.416586999694977 -1.2555120968580635 0.25272787079017767 0.39727169097324483
Ni 8.086802792865972 6.388836127102348 10.333816128989193 3.1352049946442326 -2.8295224260338947 4.14262209149844
Ni 0.3947744201106384 2.7134240135711023 3.4593415359592217 -0.03597950341840255 -0.13926714516516017 0.5311839995843949
Ni 8.681521891954509 3.924545507148827 1.3541367646700209 0.11293287814600551 -1.161252112531213 -1.360015356179477
Ni 6.159300017291653 0.9617729507823108 5.120823578318547 -0.3508781913103699 0.79141666339205 0.4818180475567573
Ni 3.84799917140097 8.737357780757998 2.301385275086244 0.8345255787663821 -1.6483463208852451 -0.31690749079188
Ni 1.305974218065476 1.4166076670316134 9.795759839891987 -0.4016716198131534 -0.5923788259261604 0.883920327149426
Ni 6.5904121981069395 3.616620262110583 8.048119906122954 -0.6011118349237841 1.092571005114731 1.3723846763781073
Ni 5.846080231616322 5.252315272359911 10.123562998099509 0.28290825102829986 0.47396744116408696 -0.7980035725809482
Ni 8.147512278262964 0.35264072764143434 6.351150410027023 -0.4226021993182335 -0.143437731603082 -0.17774164709127452
Ni 9.186056068283044 1.4446706032705932 12.545484196919418 -1.1329468378286165 -1.8179676528622304 0.8157169307003113
Ni 1.397066509097204 3.6078272087557024 8.743950699911743 -0.759863571176117 -3.591166486149202 -0.17410379322837113
Ni 4.348080695179588 1.0264767274373183 11.360392947565762 -0.5984877670373757 3.7127866076565605 0.4550811457825453
Ni 0.7168705125183593 7.840915345540032 10.801951741584562 0.15984214110303438 0.17070916572452535 -0.544416439114269
Ni 6.83102381341995 1.4649507518592957 11.98659117766477 -0.3720779653164366 -0.2528841938623838 0.30553473017856414
Ni 8.331315156316201 9.09620790075791 9.023767172581817 1.8990152522638648 -0.025809504863936197 -0.8621099161425541
Ni 4.4793497565934555 3.1992402114282386 4.461849709554827 -0.11889758036987264 -0.15474004398977867 -0.41793230464638986
Ni 6.779967978089167 7.703762421828058 5.2127175338955025 0.3318841667063704 1.7499442336344053 -0.7116736417344518
Ni 0.3647835601520408 3.4020042800669463 11.781746710019545 -0.3730912370722994 1.231804983049111 -1.4517096366616804
P 7.189452989376278 4.343366121891439 3.1306076236997744 0.24173820454789335 0.9103360981387935 0.1973365385040666
Ni 4.354170352343447 9.096694324986053 8.222009084234166 -2.701571734322818 -0.579503255515073 0.6315956053349381
P 1.8736687095558753 8.231252080000079 8.915211316328572 1.813115981196884 -0.8421748677815238 3.176502824951755
Ni 3.581195482264911 5.482440703831624 13.394106453354954 0.7996393084121584 -1.5627697232650055 -0.023737709936572024
P 5.045341763285355 8.833454628752344 4.088688427504243 -0.3960735569000856 -1.191922030811244 0.752287301490756
P 7.621781230761918 0.9144401316592318 0.6225921427922991 1.2104558279493733 0.3868744068993208 -1.1748640468876927
P 8.505398904118671 7.475236577721968 6.624956737185915 -0.85835122043107 0.12816769281788895 -1.2569799396528416
Ni 2.173268616843222 1.2846183235876125 12.448729740785872 0.7185197181220078 -0.22215488309932707 -1.073711192095751
Ni 0.6793999446208657 2.9918364039980196 6.0996466337284545 0.3991028306447127 -0.5023845588541992 -0.544586646143546
Ni 6.0903868002007995 6.070967248323425 12.248499755289545 -0.766311640794306 1.634860113473352 0.6380300481063722
Ni 5.119615001197856 7.550810065013539 10.023003207811955 0.28284937276590644 -0.21539905243273227 -0.7059084571159003
Ni 5.342219565757522 5.993653858985036 4.185866633974998 -0.052768292840967186 0.004668866230579056 -0.3302137209824829
Ni 3.5889595612910288 2.120856406260888 9.36406956259018 -0.006607735124504749 -1.883024019041931 -0.2948479398886793
Ni 1.7133451548225842 0.12895199831173543 2.578833235937748 -0.3715866275023149 -0.41070827609412497 2.1547256027211343
Ni 1.638819350483934 5.478858002305114 9.481154680597657 0.1253253382730874 2.619541202182624 0.948972579564069
Ni 2.391345694356333 1.572048270859322 4.919621679797142 0.028782728559647204 1.5527133674702678 -1.695214189081377
Ni 6.943790045540251 5.752321961641891 1.307020030155982 -0.2554956633433019 -1.5635451679784493 -2.7408787594525568
Ni 7.318832479750054 6.698314187945815 3.1057036386500956 0.39962630724835047 1.3758240410769595 2.0929489357339697
Ni 8.86437063017562 1.9818419744450622 8.000475588407623 0.10888107667413507 0.5168621836450841 -0.666148403609143
Ni 3.0431354514428746 8.650792976772825 10.798500935858376 -0.7227203864669166 -0.8931858116117519 -0.7713090940088975
Ni 0.1944359245941865 6.80572975355655 8.2435726444402 0.8525960631148479 -0.07392615786550495 0.9591654609366707
Ni 4.044046843966482 4.174670457846853 8.71763608460045 0.2332592205426047 -0.1585578750739721 1.011566600246206
Ni 7.366006275567779 3.1531515158117545 6.062243416877934 0.3853870237205169 -0.47385611239720327 -1.947736885839284
Ni 0.8878009217187763 9.054375417137672 7.444676040157718 -2.478398951481938 -0.37356483427460824 -2.6350824923513323
Ni 5.135573457605755 7.167189726626687 0.5186386080822468 -0.4687272758110702 0.060017003983580515 0.5513100809103086
Ni 6.36758313005736 3.741154218827095 13.649429595275647 0.37148558314807634 -1.3769257587815704 -1.1388940565509869
Ni 3.558427086663019 6.078993248087773 2.5635539025868312 0.5320931416622255 0.6684431131805907 -0.051436975624053353
Ni 7.190556798201678 6.860592793903756 8.629028298857081 -2.334087301914335 -0.09069257869056639 -3.6195350099895665
Ni 4.890415646622029 4.754544263664969 6.02034919479797 -0.6947989774663001 0.20512286731770482 1.99330017629138
Ni 7.287963249887176 8.37290442782237 10.818681928739036 0.10090911421225203 0.799814657647758 2.110669492942184
Ni 5.6395276665853515 0.90304470868379 0.213536494429644 -1.6433126151160795 0.9732273383463754 0.706429619726693
Ni 5.874161876479461 2.983548483495441 10.236609859582197 -0.45136101661848066 -1.0844311496164163 0.9897955271177017
P 7.9955701871530485 4.278830722853866 9.745788169331236 -0.0719554072923793 -0.9739973837431806 -0.34451856764092925
Ni 4.692403568519789 7.3297021903866195 6.339499614331806 1.7060881556814034 0.4641291149174264 -2.2031106788927413
P 3.1308227728776066 3.020367055840982 2.70568051403156 1.6125388242683325 -2.2323829454942974 0.12686182952227185
Ni 9.178862602293785 4.845037878723599 4.956340161003432 -0.48889038102250637 0.14268414126650908 -0.3019806942787186
P 2.540827601389298 5.8009643844561225 5.208131114682845 1.30039327364147 2.166427978759727 2.954649789363563
P 8.86848652749067 7.784340466082249 12.552001346145316 -0.013595993516879809 -0.4683896899659934 -0.0734078234681897
P 0.45561486587674627 0.8975593400802776 5.231761977858483 0.4428000144223471 0.8310165371718591 -0.893165757007094
Ni 3.859065322591208 3.1107297105304967 13.410015331908832 0.8997629506086374 -0.4467392015757532 -0.0033372919033490913
Ni 1.942095502418587 1.5071948252110396 7.470565969700593 1.7055004014987336 2.5853290750772895 0.01759020227793745
Ni 1.2141990622519327 9.271863172989764 0.30887003055828977 -0.053396413343269326 -1.843890286265263 -1.2737713001785675
Ni 1.0791695673820423 5.68743109874529 12.050117246428949 0.2951284472435756 0.346961372754467 -0.2063425986574188
Ni 2.668055599984752 7.429774621014821 13.379894447012328 -1.6078725291409146 0.5056521738618776 -0.3310992089112298
Ni 4.20966493933686 2.5293405061554757 6.961576334528516 0.5522763014783199 -0.4936885737420981 -0.48249373346754326
Ni 3.3155423735146496 5.6720806726225685 10.922925447123557 1.6260605129038512 1.0388771151357012 0.48719859514238023
Ni 7.039185320128622 2.3553596557858816 2.250811186827563 0.1934487734138862 1.2998196605261871 -0.27846589898623003
Ni 8.484351701939437 0.2011139679878557 3.599331622524956 2.2639545496529916 0.6168495573740151 2.551777978594721
Ni 6.486130327042891 8.828206859675655 7.754886543637023 -0.20362571394688803 -1.1911409296708455 -1.804372430676299
Ni 2.6746690986250714 7.352844758471697 7.1069881803756205 -1.508237910765712 -0.6786727613283989 0.31526172765834093
Ni 2.0934950434278825 4.457984507803512 3.8737946223918405 -1.2698619378218323 -1.6699831824287303 -0.22301260311393206
Ni 5.295850240778647 8.589559649899371 11.923009918459321 1.1355835041205151 -1.4703244235493902 2.226547055538811
Ni 0.0425920537611074 6.320269019558441 0.46465580850173754 0.6676661258052502 -0.051323589974640635 -0.6382665895972105
Ni 8.909589374768697 4.55815983586459 7.299661752573999 -0.16688542110306095 0.48501907099255825 1.9052149533166738
Ni 9.005499136521449 8.094716540885363 1.8894513048966775 1.8658464788213802 0.20215324316641958 1.8620646431814447
Ni 5.056192765297761 4.157458523620279 1.651720817704201 -1.2406457212691926 0.21879470837784254 2.175815076401582
Ni 2.1922110988045334 4.4771608475668145 1.5592113483924044 -1.3680081445769665 -0.13435530968583959 -2.4261227677860413
Ni 4.92530723067916 1.4145590726861679 2.984100387908141 -2.326345967406019 1.6187107574069997 -0.24024953581750882
Ni 7.010112118185039 5.763696805130757 6.383050485081078 0.1560829311709183 -0.7041354243758776 0.18882927236400382
Ni 2.5306875270949467 4.710195470095302 7.133767704997271 -0.35591883905807087 0.7170644737327199 -1.53483031654226
Ni 8.095483594475896 1.7522778016981286 10.123302948223694 0.47990437547381226 1.2471259296768973 0.7242998151388945
Ni 7.981650970778515 5.064527457360739 12.778600201962998 2.0374917832069297 -0.19119597282396747 -0.5621102568496061
Ni 3.473527350228026 0.22724898050721742 6.204109043015641 1.2987778495252342 -1.4201118072507415 -0.4702820218926998
Ni 0.04644603033792727 1.2851515193761531 1.5973816188334566 -0.9108279501735476 1.8000771457350546 -0.003013847125659326
P 4.983678138056239 4.276894380253376 11.955156947352283 -0.5413714816403579 -0.32091789750285377 -0.6755406434573203
Ni 2.264136404385038 7.824358213159034 4.542489492268743 1.432193421005624 0.5356060399114905 -0.057611222755565294
P 1.7068719708634597 3.1578286718515844 13.411356740261056 -0.6608326478231845 0.5922397292451348 0.27016277843717346
Ni 3.1467157491009488 1.3161891268564645 1.0231054333638088 -0.22349005697098281 0.5152747845533062 0.7656608945841846
P 6.272365587398503 1.5538541338643834 7.417266970333108 -0.22353582260725371 0.497237210325305 -0.6165903901753574
P 1.7262353968683557 7.169752808136514 2.3664173880952473 -0.9630038608461543 0.5469746867597484 -0.17944654559752324
P 4.013074716670729 8.967726424343782 13.583288060853997 -1.0846962303523446 0.42403661777191487 0.15214091580403477
Ni 6.663843547932268 0.1760640556697345 2.5685098171266354 -1.0459394212991213 -3.2371623476153406 -1.0920719539911257
