# total energy = -340892.37151211756 ev
CRYSTAL
PRIMVEC
9.03295178329712 0.00000000000000 0.00000000000000

0.00000000000000 9.03295178329712 0.00000000000000

0.00000000000000 0.00000000000000 13.22063799961256

PRIMCOORD
 96 1
Ni 6.192874296253316 1.8868481277691584 11.265067303112968 0.4883663901982363 0.7071343591032014 0.7200389829800116
Ni 4.574593890124452 0.5270998338785156 5.967504859800712 0.9685322468635514 -1.1693480021654699 1.5235251759420858
Ni 2.856201279672319 1.5778489140643575 4.909853701177317 -1.1825938114317827 0.00926162780758405 -0.2345388585859767
Ni 3.6683268732924534 4.397231882374984 5.110927207289013 -0.2826717095374615 -0.8366364544617979 -0.8229756691452536
Ni 5.203883507230352 4.520603937472628 2.6625302775255175 -0.2500238415954532 -0.3188499592302315 0.15014985351593496
Ni 7.226343339727943 6.222890794941959 2.7038713878319593 1.0118453078288894 -0.6792857123220495 -2.2002035325482754
Ni 4.769651450365959 4.6012410978077165 11.221016307279417 0.6918452941546149 -1.0471681514998996 -0.11645786058012846
Ni 5.676469477255136 7.93222335478178 12.295338681665603 -1.153698468553671 -0.2537092608668404 1.2678150825951326
Ni 1.8243039698034182 6.384390939406065 0.3328787249697102 0.27659516432607845 0.4248241466702168 0.204825390681944
Ni 2.6924067654619255 1.7113830398886696 13.628891415460831 0.3121404084205398 0.5703295594356048 0.6753604091257143
Ni 0.8551730285134808 8.762938763117901 4.565218589495821 -0.30473717397793326 -0.19666985145434515 0.44662144505096635
Ni 8.656169273349697 2.1840774053345373 1.583158483107145 0.4297295543916341 1.1575042154530064 -0.1512960513052362
Ni 6.724716429804278 0.8615511957491262 4.890036308317549 1.5468162852595424 -1.227470617339815 -0.33347645089415473
Ni 0.8030754792547565 7.580687971253081 2.341983338294517 0.4572023058906061 -2.225750013558812 0.7405774692529956
Ni 7.6120323138500074 3.8739258882344254 3.8355448762187656 0.8651769851036518 -0.4961223799945713 -0.6328413048165811
Ni 7.466394032671262 3.852978473109851 12.526938144945037 0.8763805671289553 -1.0059209719246547 -0.5255252586367206
Ni 7.874322134019158 8.82347760579358 6.890014930482218 0.5382362784454859 0.37898291996638606 0.5117318043970541
Ni 6.722449158913261 0.9318754350632046 0.4445567207226902 0.47884893762610437 -0.9180324383417867 -1.547341304525077
Ni 1.8259750658784704 6.631406038154061 9.347691411585721 0.18936097649775777 -0.4749169495615499 -1.141805573770827
Ni 0.036044187396114 4.913943821732905 1.279071388567822 -0.4739391590293128 -0.8478428647005786 0.08407944424942294
Ni 6.496959584202288 1.990781270685653 7.04485507961586 -0.1568025829457622 0.018841043965903036 -0.2784450730506237
Ni 3.6404692500737443 4.313649979767099 0.17184739070179456 -0.8617612745538836 -0.8252258986320111 1.2352762294271629
Ni 6.222601740485733 5.578407752980717 4.719397526560845 -1.9753713597271014 0.22236134268317834 0.8496367233762078
Ni 5.427882644901414 2.99358344294513 8.988883598597429 0.2378869491226032 -1.045791068646715 -0.052410395280916185
P 0.05509197276618282 5.588777581597798 12.319757460150408 0.6715091537004242 -0.33429868968513393 0.49715647768604054
P 4.209048398420584 6.123103776881945 12.486746929397267 -0.7552458698984477 1.2034734830942695 0.35490865262600163
P 2.523318941521906 8.3516684696199 1.4761631695450144 -0.20728773617950752 -0.22084927691402612 0.5207103537465806
P 6.387281483968317 7.775140323726866 5.708883321340095 -0.3553010029684139 0.36847559267715896 -0.223788304937692
P 4.517523700923477 1.20470670993282 12.595077313229087 1.0441136809442921 0.1875861439855221 0.3290911773422655
P 3.857503981940128 6.222800465424387 8.095115477111646 0.22385463939925318 0.3103874302851751 1.6534800425673846
P 4.740366620769636 1.188095111651625 3.856843673166688 -0.17367159078695898 -0.9871496048544225 -1.6059565430651246
P 0.26612611478036535 5.52991886794893 3.4041554892723114 0.7968630312186018 0.20285335455723771 0.7193494131121547
Ni 1.6898936476586732 1.035113040694407 2.660177193592809 -0.2566984254021515 0.05918370944900775 -0.35562059109136174
Ni 2.0384571900593067 6.313726157810746 4.851630004036968 -0.1965261267876293 0.7555171212819632 -1.1252165590638943
Ni 5.859341585576397 5.656849906038846 9.2129604196536 -0.1295558314146672 0.1736970447082557 -0.2885759908370385
Ni 8.593869005081396 2.3541046562572885 10.111329023469244 -0.1820672710498219 0.4853723405669189 0.6488214822949212
Ni 2.4205510493820697 5.201607203387579 6.972538171144179 -0.5041133686198479 0.3772325129341826 0.8515105433601529
Ni 0.49775809668612464 -0.09985295860783976 9.250030750369314 0.5225417505283646 1.1919168886049214 -0.6617392187978539
Ni 1.3649693400062117 1.079229977075787 11.325432713114912 -1.2411586563498689 0.8453632928118344 -0.10346839029899599
Ni 4.116298049779305 6.615670636193299 1.378859309923011 0.38262077382928944 0.7585006293903195 0.6675936206961018
Ni 5.454358226501296 7.744907034196056 7.8431566438670215 1.0426183273456884 1.0383562096352246 0.9291809987594385
Ni 5.561037386751931 2.9208230165421782 4.84163594621298 -1.2310999865622863 0.6471929455525628 -0.34043308471764594
Ni 0.8339365589326814 7.470576289334772 6.812739834791099 0.13380097984426634 -0.7108241492499628 0.4622457818517846
Ni 4.975684046992268 4.652457934270131 7.084451023642842 1.0574456221665078 -0.4446442667199374 -0.10744125890381497
Ni 7.9841899262400275 7.280378457138552 9.18279036078509 -0.16671675673568062 -0.5776057813820439 -0.22493141740319972
Ni 4.461672960209703 0.3430633780757721 10.55054546311317 -0.06480542651115936 0.1588517521653071 -0.8080087634227763
Ni 8.16193131796329 6.803068253344837 4.79928946837598 1.7426836954172504 1.652189091670103 0.4297007580362277
Ni 7.285464008977765 6.2444343848824975 7.081409628786247 -0.00770662461563834 -1.0398798453686025 -0.2537007762264082
Ni 2.502236032120976 4.962062355742653 2.507042465750897 -0.7729823679462623 1.8187456686788355 0.08870537305720852
Ni 2.26574432216993 5.163262323178946 11.45914659467919 -0.2612114827811566 0.09941941704060298 -0.8254009907572946
Ni 1.0717868248279865 3.2643823036694117 3.777492805161801 -0.6746515559841477 0.37869367086074135 0.02709145690015334
Ni 3.3644041784751084 2.8519196605394828 2.987335350214786 1.6768997070429057 -0.7241139243803335 -0.33373356121028325
Ni 1.102923409534501 3.386661371604453 7.894347284769339 -0.9143601316965221 -0.44522970690976227 0.8711614848218611
Ni 3.5441057207296485 2.7281411226127728 7.3196329555891175 0.15464439895217882 -0.6907147800945976 -1.9398862794466136
Ni 4.357315268560627 6.798262723010092 5.942874710244793 -0.6378680686072111 0.7357250262567007 -0.7909523221611217
Ni 0.7776097816613113 7.496681519912616 11.451716991859023 -0.2921706501668323 -0.2100113057582577 0.29702386449407553
P 0.18604990074938746 5.69055184904436 8.126567311834481 0.2558286212026884 0.5353872390324651 -1.786997172622645
P 8.485112265926643 1.7262512784807564 8.021186186751335 0.3912550524655197 -1.3173530414242602 -0.34745219634795643
P 1.5967097173330556 3.2945433295861664 10.107534280436111 0.6451332348100567 0.2888642115014186 0.6887494288381105
P 4.120263515600644 6.004645647540132 3.7834030654964317 -0.24347832716745166 0.8722524038931946 -0.4522645022693566
P 6.645090960065977 3.916859507935633 10.404099636047347 1.8331986108793719 0.689784040750212 0.46489838898328323
P 6.061309353912039 7.728331567721888 10.166339699669612 0.6452826159037274 -0.04032029688560152 -0.8077015165950024
P 2.677375933738212 8.493287087266763 5.805803280512425 -0.9684013777126418 -1.378104352470704 -0.3791726673796889
P 6.97193025349093 3.7540676513702707 1.6079864543065434 0.7838177679988695 -0.32430069793215754 0.22758093921090483
Ni 5.186206020641826 2.6763100454308812 1.0424342480934874 -1.4054061256094506 0.29017084612798416 -1.3653578514383131
Ni 1.5734588995104364 0.871281491381809 6.950221360533237 -1.4941225544102525 1.4801563220381477 0.3516320387572589
Ni 6.828044364953051 0.6971379243433751 9.23478764427931 -0.44375826457055834 -0.534499694221189 -0.8212095783837663
Ni 2.671721305938305 1.6059233281252356 9.170733176779793 0.026887311309147243 -0.7293301784739504 0.5949715263540011
Ni 6.47364553571737 1.6653420847830402 2.620158507423598 0.32944984623326484 0.447846575707319 1.5396236241658452
Ni 3.9793946329496164 6.959925460605825 10.432048492078803 0.3670326895830453 -0.5005274510408025 -0.10177197643317955
Ni 8.101139552638415 7.282627662126054 0.311034337735662 0.08789341867887443 -0.11873045866438908 -0.16439299369851043
Ni 7.628643912131203 3.8851809461236964 8.264802185753156 0.28117249928411575 0.4782652972084924 -0.3457655526741529
Ni 2.6850991074904806 8.732271891902753 12.65521780273228 1.8950087022076334 -2.052013373861872 -1.5558958789633075
Ni 9.11099646022014 4.971420493762945 10.073954282279317 -0.28458795272356796 -0.9224012568334438 1.285409398638128
Ni 8.701424361652464 2.3963788704802327 5.868112581732483 0.09122299727273966 0.3795508766547141 0.0689760129490812
Ni 3.175552256090687 2.694186256958062 11.464037938055625 1.2249337098505744 0.43059087395066487 -0.24417201080036655
Ni 0.9352266601650661 3.2871182432418795 12.535795857437991 -0.3442699419652329 0.04507786617524495 0.09852004515478517
Ni 3.1167477401523613 8.434301912293297 8.046833446675096 0.37060343765343917 -0.23707962272995944 0.37246260234936496
Ni 5.726313305050479 7.805743964279716 3.438846540495221 0.23838805712873784 0.7069047595908987 1.0196069540521797
Ni 3.426785743309222 8.124381337509277 3.6128564198476503 -1.3667403336081365 0.7565833577629486 0.2803721148700074
Ni 3.5672210442759122 4.144255035467341 9.189876711438487 -2.3659494407302546 1.8651221990608458 0.612122841322307
Ni 7.220264163195455 6.087107464130143 11.268029207994102 -0.37455753720518076 -0.4538848114815989 0.8133520300125605
Ni 0.5626914703916018 9.298339879661135 0.40518389060410714 -0.466835458104996 -0.4651416153423409 0.010714815314342839
Ni 4.5708723140005505 0.13623588169484274 1.5209819662779163 -0.7288067018703126 1.059528987058098 0.07380685867882127
Ni 6.138721750469866 5.369123293721873 0.48479581091477325 -0.5726404669569686 1.6969627963413678 -0.4693332848261852
Ni 7.732405428964313 8.714233087243946 11.254914265338057 0.7205619453630171 0.4414977506711558 0.5356847156682258
Ni 9.32471609879169 4.9809592908183795 5.95662466940936 -1.1520514198685514 -0.6872605029974098 -0.3713907094414249
Ni 8.050555022798996 8.838336811433908 2.4904109949758357 -1.148151570593513 0.5389556731100138 0.19880309574726407
P 8.714314383809759 1.4899492605166078 3.840912256152798 -0.6664073136974846 -0.30759726913454766 -0.6635724153518507
P 1.8083156451934588 3.2235985264863793 1.4914198250626538 -1.0055746443288296 0.4587210565279777 0.0480649738280269
P 4.855437393202561 1.0435317517319675 8.217234661800589 -0.9114100479292626 -0.5085318094025177 0.056208171760451585
P 8.355462309357858 1.5450231673792765 12.25160474243872 -0.027859959635061698 0.5795101974936084 0.6375947603411665
P 6.2429891126013715 7.89253256476135 1.2927255984437627 1.4492539760323364 -1.1791099666482403 0.3070596514635228
P 1.8476270512400939 3.247544881594291 5.854362622567917 0.27855588759687505 0.22272052579481 0.2154023948668419
P 6.857717611474925 4.034604034088641 6.088699070229734 1.4428465298440958 0.34119618813591557 0.6679049812889336
P 2.4236854836417625 8.515228127084612 10.372581860776686 -0.5390775433998587 0.16662522546313882 -1.0242696496351713
