# total energy = -381164.8609857534 ev
CRYSTAL
PRIMVEC
9.33883392205508 0.00000000000000 0.00000000000000

0.00000000000000 9.33883392205508 0.00000000000000

0.00000000000000 0.00000000000000 13.66832742872288

PRIMCOORD
 96 1
Ni 5.348873003929106 1.5820918080223165 1.6077371790984636 -0.09976445908484753 0.04969762433544345 0.9421930947483903
Ni 1.1044198058469226 5.379373634617973 11.56266675542855 0.9923815426773231 -0.467543282805298 -0.07255678832180407
Ni 3.4192365017591566 6.551733455241841 4.370761857031965 -0.8656616380495543 0.018041173772426995 -1.4742319861339126
Ni 3.1866061556294363 7.647505501132275 1.8920654405274573 0.9691053457582021 -0.5791037060838091 0.22425881681620735
Ni 1.446053018296438 7.769956287902764 11.637937754617852 0.9235047743102675 1.1780226471213324 -2.3201038431510494
Ni 4.724936189185118 8.144247401613445 5.616192447638065 2.244425735591444 -0.33012373237183795 -0.837270488501371
Ni 8.603036282155989 3.758647071800849 10.988159453291145 -1.196592953924352 0.02569586210420736 -0.059646250907723075
Ni 4.876075872917088 9.524116105858445 9.705660230292725 1.48779095576527 -1.5566774943243384 0.12044692713486355
Ni 1.6081097985609514 0.2690714089010081 7.174723312254093 -0.3060777471662277 0.8568890340632468 -0.8780767238844556
Ni 4.383480414574883 4.493323775922846 4.446948995801972 0.38910612444331694 -0.43251920132162935 -3.0768800336510944
Ni 1.9671039027589672 5.59175738940248 7.23360652616084 0.7082319630427544 -0.45145691876639665 0.2276339039360273
Ni 7.348279932270679 2.200275901240174 4.0427493334556015 -0.7731001244710493 0.3395049164764217 -0.21055920784192766
Ni 3.258038894190104 3.855967057229103 11.454564152672258 -1.3921520888130217 -0.6628033983963101 -0.749504082318664
Ni 1.4892824792452326 2.752901382260896 9.82096587544042 -0.41669483269486296 2.796616419334493 1.761198723502302
Ni 5.214235039250175 5.97200667897951 0.7969396419253479 -1.1424876874395165 0.36286364580702024 0.7798883510374762
Ni 3.912065430942521 0.17890777169592542 7.359615408550577 0.13215315982819822 0.3448708087740254 1.044293401055266
Ni 3.661691300884801 6.904694672904337 10.631580371474067 -0.5897691562174552 -0.09052777097792797 0.08516316423190495
Ni 0.5539814796661673 1.0734335558084476 8.920292337138527 -1.3701570725991694 -2.5448401138243075 0.37841470616774187
Ni 0.3787896298781109 4.708602569137712 9.221008383850075 1.2914882578423565 2.0131753179487526 0.016662805367661626
Ni 4.756398719739556 3.173316995350729 13.246795593753873 0.40713444269993754 -0.7129658781833141 0.7808687126728745
Ni 9.06672805036285 5.3122647760355495 7.035224484662254 -0.699639336277737 0.47319096800937865 -0.737431467424846
Ni 1.6159824353247956 1.3928029888451465 2.771321297744889 0.649442917929004 -1.9741444292985357 1.3510368068299505
Ni 5.116382740304081 5.60950117333048 8.755479667064986 -0.0502817789736876 0.2898836539048685 0.8226928477975121
Ni 5.939414149553869 9.421575712421902 3.603449664849554 1.0371143668083236 1.136702191105991 2.3815179845924725
P 3.5266517663590777 5.212619421029363 2.27896117801057 0.2273315422042601 1.1997644096737983 0.6354167788532411
Ni 6.825267892742423 4.598385654443896 13.412784022983486 -2.1019513963428964 1.8075114905259129 -0.8171696039864378
P 7.91555804328247 2.994263537849921 2.0206845269213383 -0.3086357377013911 -0.29353410617326225 -0.08402930773777786
Ni 5.6860702703966215 2.8061887670467724 10.861480976528968 -0.21690880420903932 0.3106262857688586 0.07460312932787151
P 6.935961087952201 8.362243795419388 5.328939263511045 -0.11915366224473672 0.3398111348629309 1.1174484850827013
P 8.370163126351464 6.744057395354063 0.3276623173146272 -0.7913914665810693 -0.6069875769782708 0.4191764614661362
P 1.1803538622251144 6.050387509773037 5.216886334122364 0.49874824765319264 -0.28144529332952817 0.1105378955512677
Ni 8.681930748800063 0.6160697812803316 2.871196388058775 -0.3205851967537834 1.0469138693972486 -0.15929835278442242
Ni 8.859153794906193 2.9880251969741827 8.208486436616356 -0.6763978492512932 -0.5663741743322827 -0.9689125130211056
Ni 0.8875674191626525 8.530043958376385 1.7200086371944692 -0.18107636789146236 1.9489411905600307 0.3707553898502712
Ni 8.499085724838851 6.989948885261551 4.853869060389515 -0.27566159676821556 -0.13837702925072295 0.054123778427597115
Ni 8.87457220925626 4.344079875421078 0.3021803758272906 1.9114064268393665 0.38749095743739714 1.3196233255156755
Ni 3.354910615603335 1.7550563459857265 9.467667525883291 -0.45157158996739005 0.8363865432345208 -2.61052331495473
Ni 5.945624473928669 7.5412762684054355 10.309212238953537 1.1858406005038544 -1.0682553111875022 -0.20556638261302662
Ni 7.638390799493471 5.225899242474423 2.1556316069939623 -0.5922471854443027 0.47091708437353735 -0.2590615263176893
Ni 6.800043703063724 -0.13081931560095278 11.838452785721259 -0.19733910960722786 3.4060293179248045 -1.6305584007742049
Ni 4.957305047972742 5.258136896221504 11.97099418224659 1.3484675034408777 0.9982225748391326 -0.13108306669247102
Ni 8.867147836507439 8.280286191339323 7.079372886841846 -0.7419344975015222 -1.3170799902685317 1.020113718485269
Ni 4.013905411855592 3.5174903705520424 7.938427912998932 1.0892098019519822 1.106500984932262 -0.5204375597011682
Ni 4.189419451404446 5.560948577203286 6.410828199302867 0.9301873285367658 0.698261482093604 1.0209822371331514
Ni 4.261449875318478 8.009814891274733 13.049097154878197 -0.8951869012021808 0.6351689245084932 0.19948366675405643
Ni 5.643410478300252 3.4260071561527354 5.98041256314456 -0.4053215578609149 -0.7834174472366572 0.6334000055335285
Ni 8.605893965251761 8.469042696998653 10.34912454619116 0.33421692860460506 0.4495018519225549 -0.6607094919817589
Ni 3.4793225574395508 0.7547934856795259 0.639932369013397 -1.2930216637677474 -0.0988126366945395 -0.5051217552797043
Ni 6.387575437406906 7.398494840786917 12.774500891992028 1.32665349288958 -2.9571679277997265 1.6248634072719566
Ni 2.6083268985822854 7.895628972281234 6.119186697245444 -1.8410350762046552 -1.3208011478738606 0.15063810600626315
Ni 0.822528979999617 7.036176111810813 9.016352513907893 0.44333840342432035 0.868968333825284 0.04590858960665642
Ni 8.910648123631978 8.555081371382158 12.741067867538218 -0.810451568536314 0.5837921126984139 1.3444933492844782
Ni 9.14755565557171 1.5071009738424026 0.5478458659605381 -0.37901043077021174 1.3037315939860838 0.8985198222301558
Ni 8.07014375662993 1.1148699606971497 6.856278423748378 1.0320999443128676 1.3064682761909565 -0.5206658736618904
Ni 7.941025042635973 7.787606683494301 2.5617046393697844 -0.1082267309195878 -0.19349479616047321 -0.9111907328296049
Ni 1.288217390840059 7.909749288754462 4.058672978705934 0.044828983389232475 -0.4430396412369789 -1.210527047506941
P 2.9637442294937624 4.802429830782245 9.424461412018612 -0.44414650114791254 0.41687172459235944 -0.07032455655717566
Ni 2.1107911972411784 5.023713494031692 0.4751234344733143 0.7050833901114438 -1.1007468560573044 0.09828530343615977
P 5.579953103673538 8.362701398268058 1.9853790663214421 -0.9871938278287966 -0.5165701063259619 -3.9165807288605126
Ni 1.954907386016879 3.0595606627049596 7.400511094971157 -2.944933333406748 -1.0821480100091943 2.0943291039109484
P 1.3495641890627057 9.684183714556294 13.513218509432786 2.0505025936443007 -1.0323737667995445 -0.8615483872121291
P 2.399454545248792 8.708891961536976 9.560311557304834 -0.3458046334422044 0.776556715561082 0.6363909698410524
P 5.176982431835022 1.0528507664519682 12.699694032834948 -0.22301260311393206 0.448446414074847 0.3101853415766981
Ni 7.932078440002803 3.594881284979059 5.87161234951489 0.5380388177226992 -0.38855770813901463 1.4018855140507018
Ni 6.5662366638945695 3.7669026007441917 8.35054130297719 0.7366179703846152 0.08144534906068554 0.1568149242409364
Ni 9.064878961300877 4.831744429598029 3.9952520255304407 -1.3564626058312124 0.426977959788426 0.21484009460546868
Ni 7.776213306445796 1.6618734638627901 10.289694076632735 0.5022894280372316 0.0848497467565442 0.4856831869391183
Ni 0.5376880166034407 6.274332740611683 2.124263398659353 0.0007309646287535799 -1.0799348044079595 0.8222339058832226
Ni 3.2816101103134043 9.168792163283431 4.041286872106589 -0.834329403595176 -1.7234595570803157 -0.6985641009356873
Ni 5.581811531569154 3.8557522640552375 2.0713252862518488 2.214309118711722 1.1290858122113137 0.32687282953470803
Ni 8.292118493569205 6.459736604991986 11.488502408026335 -0.30942712325443483 -0.8804773629061481 0.11980826510960013
Ni 7.277528928566192 9.484426062861603 8.727021439294568 -1.105666661956425 -0.9501576010111057 -0.3055452717015254
Ni 2.765966410532092 3.3329830342017863 5.485659834230054 1.1412319606555443 -0.8787848056950737 0.10118139403703219
Ni 3.214267780889823 0.897955937710814 11.396200177916246 0.2442797400228244 -1.4183297756496542 2.823019849028687
Ni 0.3546982407207107 2.716423898038388 4.641531065889874 0.23589408706229054 -2.1624723365460885 0.3919001422486863
Ni 1.8259007380266763 4.243771463226002 3.759022492913431 1.9130251933897116 1.8234147920197306 -1.682997078189895
Ni 3.544264806616029 3.108645572349994 2.09565481566723 -0.633966676670276 -1.544127939794102 0.40240566976570047
Ni 5.841253669097447 0.9603963133534442 6.343675448202306 0.1302230326850209 0.10710598705158328 -0.48451590610389456
Ni 7.786626105961438 6.31885096060367 8.760741165941319 -0.7285282513979453 0.19028914473898198 0.6359050313435693
Ni 6.963127755029333 0.36072739172277196 0.734647753737694 0.6298657671280249 -1.4849424305728813 -0.65592903987398
Ni 5.801787758108117 7.685972156921449 7.689650723494733 0.19118054620499977 0.7901503950851165 0.48000901937247653
Ni 5.847669447812466 6.746989789119007 3.235019603135301 -0.8868688682547887 -0.5516142424142887 0.6237480842660612
Ni 1.3848743190794248 3.1949550729092424 1.6484955846644431 -2.447951690735674 0.9578619116338987 -0.9203626291368601
Ni 9.282912710441407 0.10004505708624917 5.107785410049282 0.08465871379166065 0.8724182400470974 -0.31162670200891496
Ni 6.801388495108794 5.978207664520664 6.3624287600474725 -0.23532407349143342 0.41569750177860026 1.596740166673179
Ni 0.8067939791889401 1.1299988712041809 11.40995067657708 -0.9078632111182688 0.23784966812676459 1.0807009931500227
Ni 6.668552925323602 4.957986782828923 4.4632144423637605 0.3661420594479759 -1.0070070058999818 -1.6130730995052478
Ni 1.2189512616853364 7.055330059619407 0.07922599523851792 0.28287482668720315 0.04464540662351666 -0.7196574312708767
P 6.77853636917626 5.032202493816192 10.454657101927982 -0.5243944874663872 0.39982145397829205 -0.2796252094016539
Ni 4.315045441614683 1.6859863323375768 4.235800768708872 0.9281214471466726 2.9874598939150485 0.2913044455117951
P 0.6649875258030971 3.4201797239574345 12.527965022562945 1.7544153820318817 -1.5179700504518114 -0.46622019311850027
Ni 3.356358134818514 7.24585160483789 8.293421260862868 0.37756444235230463 0.253420268871512 -0.202747939327625
P 2.1144333423632413 1.2737982316901475 5.204707561164204 -0.6763965636997126 -0.28319441481015095 -0.15239339813447303
P 3.0958607090881882 6.240143270632523 12.713635043702167 0.05677741400036028 0.20197737971018764 -0.9841280444192794
P 5.3546630807898214 2.052096627774085 8.694382215700696 1.0809899851453513 -1.2617336522877431 -0.4638974585225947
Ni 7.447318263089855 2.5211302088266367 12.925070906871573 -0.5672673755705133 -1.5004125011840224 -0.6497501647567777
