# total energy = -340893.98731742473 ev
CRYSTAL
PRIMVEC
9.05968761049149 0.00000000000000 0.00000000000000
0.00000000000000 9.05968761049149 0.00000000000000
0.00000000000000 0.00000000000000 13.25976858521625
PRIMCOORD
 96 1
Ni 6.359945837187037 2.1535239282949656 11.458123646235551 0.4930761369690798 -0.04548461469536037 0.12422979121606345
Ni 4.46055519950814 0.5067708268461728 6.112673447821674 -0.48651699569432333 -0.9467845707738145 -1.028247660446313
Ni 2.591106828610681 1.7323028233823594 4.86087198176674 0.522742553685261 -0.805529191534032 -0.4554729819043253
Ni 3.2467111056571976 4.342978576727656 4.845331900008738 0.32226824088316114 -0.9019090504173629 0.6463866476011835
Ni 4.9923860276082115 4.391185173261402 2.7823233082987473 0.8481886780757714 0.1668424836802675 -0.4376323541784785
Ni 7.273524712297529 5.860231600838915 2.5611373827671122 -0.8821359815554937 0.5030741287220561 -0.0972550623994325
Ni 4.849088952364036 4.406804074299586 11.305941735580618 1.1905796578507368 1.7756835473820387 0.5930110601935206
Ni 5.895718396295162 7.902901194387233 12.268852420397097 -0.9449886552156566 0.511253579209055 1.03636746133997
Ni 1.7500416912667938 6.536845292913013 0.6245123359369202 1.051615388637976 -0.014057506534330631 -0.10443538219795563
Ni 2.67417510217165 1.5677245424892894 0.2831967677219245 0.6663924012991491 -0.4865766452876652 1.1065837744540554
Ni 0.35999392568043914 9.084239129929008 4.772973082896282 0.8888946404355659 -0.44178365734269076 1.1406069254770357
Ni 8.671371056778122 2.2250682795122163 1.6295723103067903 0.44864696012142735 0.9300153217352757 -1.3002621473802447
Ni 6.755292474950539 0.6752683284985924 4.830905253829384 0.29605018772689656 -0.5693350567328195 -0.5384229405349953
Ni 0.815865616904381 7.6234460775520665 2.8133645151590314 0.06592719882042838 -1.8350192090278785 -0.5550579779885151
Ni 7.65703939834649 3.8615920879434835 3.892497399493111 -0.35496701666776287 -0.06685845238544615 0.3065449166106333
Ni 7.864506239282927 4.064809935500043 12.644780524236445 -0.45603553927601465 -1.2923585762624517 0.15569340904198348
Ni 8.029591862669117 8.881447087679176 7.032676547251293 -0.5951826139235427 0.4638930876472204 0.024422908929054715
Ni 6.821527849364788 1.0010048582998636 0.4004372761007162 -0.49743107150366594 -0.9981642107973713 0.12039499085100555
Ni 1.7869327382664955 6.502318824318745 9.197558605610975 0.30345213661792253 0.7262667090572783 -0.33520988864549367
Ni 0.13751971260377516 4.789666462857395 1.5925381202465296 0.06226903324255082 -0.6946380264084036 -1.2805140182190398
Ni 6.370464134231892 1.7104780364908365 6.972980455185862 0.4818085344750606 0.8897377051621514 0.5755848942972732
Ni 3.3937679511628853 4.382524112128859 0.26705602869081724 -1.0985323649044887 -0.2502341578340464 0.3422405702400299
Ni 5.830044722498295 5.547744863826708 4.813494346628002 1.3087581006663975 -0.019621373775353303 -0.29144379930313674
Ni 5.2018369400802404 2.9128706854970776 9.461786199902651 -0.09341229161457461 -0.10842342031142617 -0.8274879551933105
P 0.4788153495065413 5.52859268471144 12.406754451808187 -1.09826265618287 1.1857986915223253 0.7736290003913258
P 4.105660065883554 6.132611101832539 12.642818195950555 0.21794135923861174 1.1916937168505217 -0.8134196500257023
P 2.5520595760152207 8.517945251046308 1.347311408290924 -0.039965227539027946 -0.46576870740337845 1.07937224703627
P 6.209591265476072 7.757112705114345 5.743150542957961 0.644258288404271 -0.11194840274554912 0.7234657492733734
P 4.821375368677374 1.0619131365363552 12.660704736739238 -0.1274477839327289 -1.2520385364871662 0.0016159383368681845
P 4.063523459892489 6.266567639390886 8.19331672101126 -0.37335348959475056 0.4664233102682419 1.1115267202816275
P 4.714960280745523 0.9202739840821961 3.8273926740635296 -0.13157980382323145 0.44873360629796266 -0.612832722905138
P 0.16486094313923683 5.640969046937447 3.539019200974309 0.6632142606814836 -0.2273863067015955 0.9844928839578658
Ni 1.362984667453371 0.7620483559779743 2.5716257828436233 0.43753645203056263 2.3055555130232293 -0.06983553273589908
Ni 1.8806280251208458 6.525212654320769 4.81744618226191 0.25383164537731767 0.36831361317799793 -0.15911091936396468
Ni 5.940201461316904 5.576962355617974 9.261245489966035 0.14443146297491902 0.3063507983219563 -0.16973806006050768
Ni 8.586853233236813 2.4081192629672685 10.20793933437744 0.0029871076527819523 -0.15082888186083057 0.8712946679656156
Ni 2.476057858608419 5.338484204789598 7.129817233215169 -1.4989947949008893 -0.7877286730175014 -0.9199347975708222
Ni 0.7198900067372052 0.12139256310373366 9.080103382641344 -1.6638017362083668 -0.418994170252001 -0.1704875366320225
Ni 1.5822834601043485 1.2524474217649229 11.304734985221984 -0.9190354256850043 -0.39864723116453277 0.1991561082113086
Ni 4.247888098017227 6.618599911804297 1.6050287112333885 -0.12319440797301362 0.6847631904968529 -0.11163138572576257
Ni 5.621943703445459 7.851768318830672 7.978256956084046 0.15364218293990958 0.8368544840098749 0.3613963172328744
Ni 5.322937781250431 2.7654967509331905 4.916470377231492 -0.9062336459346458 0.5457397859113827 -0.29512998990547235
Ni 0.6377838719756882 7.279377270343159 6.941382983520621 0.4803306643779534 0.0004473719500637456 0.3998929306461758
Ni 4.974176055980166 4.763583622898618 6.956101351633518 0.9424373495487123 -0.7107956100048727 0.38170417555229097
Ni 8.282710468298946 7.083588366435852 9.131671123192008 0.4170411602906882 0.2602241791672228 0.31116107522640607
Ni 4.474978221812542 0.4346593391991134 10.356343355396106 0.11102331982811847 -0.5063219462353925 0.059730583091413256
Ni 8.169636510144901 7.074845768116915 4.861547834445075 -0.7603297121792583 0.1915106758509089 -0.3296647904575484
Ni 7.1707425590039096 6.221758425623567 7.1460340736202435 0.6115523135308177 -1.1378810419054404 -1.0478101559592727
Ni 2.534384125942427 4.88217493066534 2.5792105531157627 -0.6424952829665773 0.7612416824705664 -0.34943143156151435
Ni 2.3985341137222576 5.473573203270088 11.38115073034192 0.31826194793724544 -0.5138053990966313 0.5819082654121398
Ni 0.9893269212707341 3.366244620911143 3.7803864861072545 0.0923185443297636 -0.0757603828607663 -0.18404496360148304
Ni 3.5958805168594337 2.5677690739271766 2.4959656156509396 -0.39212639932687954 -0.8755922668997049 0.4082269044331679
Ni 1.1053362181349728 3.3017124677237963 8.172379783482697 -0.7286974299859579 1.2980620544051322 0.529892534466481
Ni 3.640372641568553 2.9431662800862237 7.1374146870496356 -0.9439882389756 -0.8903825378350021 -0.2817080600726116
Ni 4.128626373384596 6.730151842478985 5.929768325333392 -0.30367890791674795 2.2762145979672668 0.37920274928667597
Ni 0.9875512225448152 7.522512100483383 11.291660950368037 -0.850710930276993 -0.873578836014102 0.45685494985351643
P 0.15375739028981775 5.335358612644486 8.059645563605294 -0.21244562623136315 1.1475980120828881 0.18923756354601604
P 8.520962126942894 1.7705528234886316 8.148432311838711 -0.5024583495149282 -1.5865056334293646 -1.1635375661312801
P 1.8914452918491473 3.316452579086398 10.464038577154346 -0.06910019723177131 0.0303690992101606 0.5469947413644063
P 3.927854641419864 6.1441622032383885 3.8226589874089756 -0.021386178985259945 0.2892282797090567 -0.9598203209118501
P 6.982980538112746 4.099635373777758 10.474102983861608 -0.23276711139753462 -0.4245158714011786 0.20124538664016953
P 6.446810119759026 7.647472368476234 10.126962036663112 -0.3737676943140337 0.8652160658717035 0.20327167304157895
P 2.1892915740599026 8.510326053962135 5.988177941791271 0.6440549141442133 0.013913781867614746 -1.5031299001151854
P 6.863138993487978 3.8984378365063 1.4731468420844056 0.5010609549467693 0.0551884722466856 0.508148200810854
Ni 5.1376852937627335 2.991363816932592 0.3946807507412834 1.144352508562397 -0.5208926449607159 0.5294433627442043
Ni 1.4851907904835715 1.1820808299067003 7.085635855783084 -0.18015796984225102 0.30871775589223605 -0.8094938326087349
Ni 6.848788448682594 0.7863228823362751 9.327398421225151 -0.42960151345420206 -0.6065970264080713 -0.27789717096695365
Ni 2.7054129042480186 1.8387903888132275 9.22871940034464 0.9608063389742034 -1.3569408310192115 -0.697196016943567
Ni 6.46768363947595 2.0772594799542268 2.6425658529128193 -0.9590014245549807 -0.5372258349031006 0.2364317047333154
Ni 4.279542645712944 6.942420317725304 10.509122299449192 -0.4345447163920903 0.3165339095025452 -0.44651191605629553
Ni 8.432811368763351 7.169709754642916 0.5072156574963903 -0.8049296102768201 -0.3487991972941541 -0.46798037034271656
Ni 7.328652909987407 3.6667000930865132 8.21093871892853 0.805749277964638 0.6325510272696719 -0.06831163989220493
Ni 2.948294063141683 8.347387576484328 12.495249478108061 2.48411297114758 -0.5083400051066858 -1.2411028634112689
Ni 0.27376382122484944 4.70051007937899 10.294672251482458 -0.7066926435800925 0.8862991117942477 -0.16995171873321052
Ni 8.553486404626817 2.442718209060555 5.878877343429801 0.1033830296740413 0.09416202529640558 0.060407811664095964
Ni 3.66566728872552 2.5620795902543345 11.63840327132194 -0.6498121283429648 -0.08811761887453856 -0.874402617466978
Ni 1.122350311029236 3.3746157720476178 12.661713079944313 -0.3178315452680462 -0.24107074616722354 -1.2300509764724816
Ni 3.225674511567486 8.384360160670424 7.897451792429886 -0.6397606576442336 0.06071223027839222 1.2489285301032749
Ni 5.8210665723075525 7.65413123869843 3.509489149968531 -0.8727206017788647 0.6922291598565949 -0.046219693089172016
Ni 3.107509009107488 8.303448092705214 3.5980385343926677 0.8050581654348844 0.4472277111763975 0.29933528623607153
Ni 3.297653727778839 4.488114768509391 9.297709825690275 0.7835591150208441 -0.2998052838939546 -0.2928288525761215
Ni 7.471460762113217 6.095964666392019 11.459781569025568 0.40517629053230225 0.35112141766942756 -0.6085322957575714
Ni 0.8698079015165923 9.014162448066854 -0.012416301550366214 -2.0279090246145013 0.38832013820691186 0.7564625159143682
Ni 4.727734439947286 0.2604315852806547 1.5845819027919281 -0.28902079168394096 -0.37591893632908163 0.09422553154448933
Ni 6.108195244351155 5.5916481088563135 0.21837651647598488 -0.4191962589604781 0.15405741610045726 0.1463685320966318
Ni 8.073603823947249 8.726807283838824 11.287033262055795 -0.20208228071916812 0.8564892275216669 0.19471478461050337
Ni 0.24321727329535675 5.155605355394711 5.830452408430267 -0.7971463667869756 -1.702297835401036 -0.10407799885853687
Ni 7.95999534423795 8.888332450085798 2.3280307205846404 -0.5772836221559348 0.02552591218524636 0.21690623310587806
P 8.572167479998473 1.5866321100453742 3.700376763004807 -1.1804507969468507 0.88742731186142 -0.09976291642295078
P 1.703819166268641 3.1729471310325486 1.398852875748194 0.7905723131138837 -0.4988770599215731 2.102948727259159
P 4.629853577524699 1.2413674241026844 8.159623743655688 0.24929056297385455 -0.5388080917885559 0.7352578568122949
P 8.409672927202143 1.5940338746324951 12.41900586704829 1.241834599370971 0.21850237394840433 -0.3727153417901194
P 6.376171737279488 7.529089433519185 1.3344104134658812 0.36505011193537773 0.9958044523159432 -0.1772323115550238
P 1.59284705558609 3.3191886046742938 6.021777604366859 1.2227068774025844 -0.11427036601050643 -0.48483215179273276
P 6.785071667359189 3.9455210318052805 6.0050044991568265 0.8480015017656298 -0.0460667124510755 0.2890043366237087
P 2.3865300279475514 8.578201231791645 10.10322746767249 2.01691781571032 -0.14260212307566408 0.5158869642160083
