# total energy = -381163.6271139879 ev
CRYSTAL
PRIMVEC
9.28886094805291 0.00000000000000 0.00000000000000
0.00000000000000 9.28886094805291 0.00000000000000
0.00000000000000 0.00000000000000 13.59518692993443
PRIMCOORD
 96 1
Ni 8.02624452627836 1.5424246241436452 10.037367417385182 -1.2618259548912334 0.5822309388588812 -1.0252708372061763
Ni 5.397246121586407 1.7545822047390096 6.569697277971853 -0.8814263570829787 -0.9787138153822434 -0.4530867410603358
Ni 1.696796201723083 8.75842968971308 6.449950857897988 -0.40505493446308954 0.0007841864641921978 -0.790924811357296
Ni 1.380974934637164 4.436536404832634 11.1174910129963 0.3198400910576427 -0.8853737717665009 -0.7632607697831242
Ni 0.3272800057646599 9.359920581739008 11.16712696954925 -0.22707443188813153 -1.372039891444179 0.2108829097299336
Ni 4.483770261983572 5.115449951598596 12.522486012767507 1.7206087178950822 -0.3067513761944846 1.5766130569060008
Ni 7.065423343195028 3.0562767124768113 7.396107716441657 0.24818113195975966 1.6996056332808536 0.36871496238147466
Ni 7.260322220430226 0.39247387526591054 3.3951668653511975 0.058520107723079855 -0.7369879521295243 -0.5435975427573992
Ni 7.815517430245678 6.653248723065514 8.823806549772023 -0.7963022736191253 -0.29793094968937717 0.1838315620390963
Ni 3.9490755679463145 4.661029592565942 10.488374120075068 0.3134007631902022 0.4351723226737602 -1.115454337470808
Ni 6.864876838595469 8.735792735951657 8.6887790248016 -1.2090242377091693 2.3012306603956305 0.6118585319173269
Ni 0.5662173720367509 4.870846380240553 4.648180311425944 -1.4773196239203008 -0.6132659537878147 0.6950062083810998
Ni 4.977974811808256 0.4555127290623397 2.9612628131600927 -0.46098079909643186 0.7359350853849778 -0.2361321712150256
Ni 2.3562495851200755 8.64234679633741 12.299878463775917 -1.1406963998670483 0.8061295441221923 1.382005230187007
Ni 1.2199246661449388 7.055967282904042 10.87722348185813 -2.490274876983918 0.41316907892979166 -1.4911812123937416
Ni 8.520142543696753 3.073461104950604 12.221161870726911 3.1712642022606348 -2.008662003459431 -1.2912522305721503
Ni 0.9337348650003162 1.8934878290920343 10.237800597883021 1.4659674321322753 2.119001152736331 -0.45944610761946036
Ni 0.9437203903567093 8.356695749118993 1.2639046353588124 -0.3105213847598781 0.19601936235453984 0.3249766409532597
Ni 4.26496185705781 3.3906571234344267 7.571377373041386 -0.9828041834015332 1.845794959487144 0.41763225690746786
Ni 7.761725637372309 7.872142325662024 10.738688483050892 0.7639572816295165 -0.01737654360523459 1.707630046247227
Ni 7.734323498022206 7.658479949617603 1.390243359940056 1.3020812028668542 -0.28808773834671036 0.6331863468608256
Ni 8.505521876802835 0.08318546397827174 5.4203326562103875 3.0975486177440392 1.5606866154837316 -2.204671081401326
Ni 5.788000628718858 6.517194778977058 10.297333835614797 0.45447590809837857 0.27599044086254404 1.4364676229009457
Ni 6.973630820802584 4.485460834648562 4.551641181166416 1.8545804189892579 -0.6286658332826528 0.205807037868923
P 6.78384081700554 6.535948988925483 2.952983651532043 0.36711162245009676 -0.9842902810287563 -2.5153030235971388
Ni 0.1887162114889519 7.093828679511167 5.129396247198679 0.43551350806326283 0.379546762889656 0.4170735561905204
P 7.739553126650717 3.3666361294143035 0.8188325858319012 1.3495388821281853 -0.1100892380496233 0.6815912205267746
Ni 6.122947660185068 4.832910672747055 8.637484077710367 -0.2253134833329668 0.3841636928363771 -0.12486279681437205
P 7.408033684818469 9.328059789206517 12.78611038437884 0.7833997066248444 -1.4979974639846267 -2.373916260985815
P 6.729101560330914 3.4146038065681763 10.249451615980254 -0.6332154003265481 -1.0988519530274365 0.3625682260537885
P 7.193386689529604 5.544743942176328 6.368515415293804 0.004982026595623678 0.3611438349024361 1.237189901510108
Ni 4.957260652231738 3.7545761117253718 5.284353951894385 -0.632485464139059 -0.4252141830197838 -0.4920672360885912
Ni -0.22678753635007978 5.387725039269846 7.60608520140805 0.7980583370782837 -0.9516480695137028 -2.0362136878254544
Ni 1.3153862885520562 3.593665176145096 -0.21876288950785844 -0.36440373660063047 0.015063322091025672 1.5984674337769311
Ni 2.0617462535624558 6.2810626486655545 6.760627953874726 -0.34781395056274933 0.5860726812024746 -0.9658994372263946
Ni 6.802548582649983 4.03094758700794 12.793383562382614 -4.057562542723934 2.998190392958675 -1.2254471591518832
Ni 6.152058949921753 0.33621588985103207 10.812333358104928 -1.0529922143808446 -0.15996324006193094 1.5712782749566487
Ni 2.524405832121734 3.692851631731668 4.877885478952249 -0.34604503158778466 0.8457795544136466 0.12482680137011404
Ni 1.7349734195972928 3.8348876021731617 7.165261876809524 1.5359775427728257 0.8766819004194579 1.2213231096811805
Ni 6.874286454582469 6.760776575647472 12.925311394505197 0.5041089977444738 -0.18628053780022114 -1.4389729058213023
Ni 1.4957759652228957 1.4571714597520404 1.7799500835746462 -2.077629788878396 -0.63716615744418 0.2602977127176356
Ni 2.366244399337265 2.1537338420316283 12.069738577564328 0.9194506588455519 -0.7189352083928715 0.35607284813743195
Ni 3.5249554728323154 7.491531254519508 10.745336520723049 1.1051534697654322 0.02247504117406452 -1.6646368305151524
Ni 4.224629623478779 7.372057926953065 2.945479180894434 -0.4466579547158565 1.9606901035658424 -0.5990575234979166
Ni 5.229062008002358 6.079708013176687 4.326179165252017 0.05623876788807088 -0.7239678857207725 2.460567579727472
Ni 2.011233428550302 5.607183664451373 9.020025374126426 -0.4143926669242476 -0.0608389856642436 0.19613711887932672
Ni 8.560316866642243 8.176352516752138 7.222863960381677 0.8055286773133999 -1.1575165567481807 0.3140317119059818
Ni 4.324642787676252 0.5353755675336516 12.729159449948531 0.20546148160404615 1.0130748093606166 0.06585495082159626
Ni 1.1472300415503975 3.5242773859941603 2.668708284597609 -0.1082447286417168 0.3369078451732069 0.016782361664661422
Ni 2.4688398668362055 6.173924928237055 12.329978088301363 0.48005118546432163 -1.1548611214032045 3.0430905959054755
Ni 6.012354483540217 7.429268020599599 7.050627116832052 0.7737200174432352 -3.4485211685404287 0.5696736710191609
Ni 3.9532369775832112 8.304836039291326 6.9169994231836816 0.0665432351378725 -0.07242103407488817 0.8439005922233788
Ni 0.06319026222741442 2.652025490606835 6.513263733087919 -1.5590539649763149 -0.5508557669817093 -1.1746912687552544
Ni 9.249188072182207 6.634893934131343 2.6565807479415096 -0.06692401551605892 0.22632058444124248 1.5192149786025062
Ni 0.9656978350015706 5.6941738458119495 0.7121351574051624 1.0497089156438826 0.8731126950109608 1.279874327752512
Ni 0.6067400272621134 0.8954127408976789 7.936734276983652 -0.24001325143698665 -0.18873645553988141 1.3971189458999937
P 7.747281458833527 1.131160312372202 7.256118082033664 0.40780832883851054 -1.1993972561423665 0.3601364766838443
Ni 8.224013661499722 4.672687112865732 2.5110986101444603 -0.0721883492387918 -1.0264206345399032 -0.3296989861295935
P 3.071891287475971 2.061959897360779 0.7362648310966065 0.8445253702915713 1.388155566059119 -1.5979982074499963
Ni 1.936281610782176 1.3939700508916701 3.9403746920380973 -1.009460352536481 -0.26332287269720456 2.1948134718809555
P 2.782942694674745 3.545502432914493 9.202187365437265 -1.5159489062567246 -1.229302271231915 -0.2146760582237787
P 3.2016752505266908 6.682852322424419 4.837657280614141 -1.2970009601304695 0.8389741014560389 0.01187901082577309
P 4.587517548221297 8.930793790655617 9.280985700461281 0.2326205585173413 -0.335132498440339 -0.5589557703810244
Ni 8.556508433715617 2.39242040906221 4.173545533527632 0.5195461582351504 0.37788505891651697 -0.08825157334924157
Ni 4.593453130270353 7.56798786773669 12.742252099241403 -0.6198762600154809 -0.24200277106318963 -0.576836250205871
Ni 6.677613404935111 2.7008384540932027 2.53997489170299 -0.4551878465637386 -0.6360024761533821 0.5500353279629431
Ni 9.088853045971323 5.547084735097082 12.435299836444122 -0.7139552386797768 -0.5374369224726422 -0.16171364709413438
Ni 3.216983293119561 1.0994109861692707 7.919495080231159 0.0014570441615007162 0.04576152250583086 0.4114194432285366
Ni 6.427482961403064 -0.11625938173080477 5.888591560057883 -1.9938053980625725 1.7141513923055123 -0.657108919114694
Ni 4.869889627578497 2.560706700115021 11.633591265490832 0.5999106155268313 0.7674349557654718 -1.1438850820076751
Ni 2.880113467468445 0.7773327424507319 10.29264388979857 1.7858460897373374 -0.4054969070965145 0.5733153815368061
Ni 4.199958409202891 6.548739750242464 8.650290630090701 -0.2663606310822639 0.21511905929846825 -0.40453685717609045
Ni 6.045775804686544 8.644734033562148 0.6633008295389625 -3.236378675371781 1.7430153677250564 0.04411087427628532
Ni -0.1044792484685 7.736153403599146 13.052398801266651 -0.5549548767517475 0.5352566269918717 -1.6733189316701824
Ni 0.02068536410804803 3.59896911565998 9.143225392644483 0.09741447079543224 -0.20306238524425027 -1.3475732737613824
Ni 3.47790739289731 9.12632431042499 4.82066330978668 0.6590657857307488 -0.17661061881062484 -0.41337785250648806
Ni 8.135667306462834 5.014433590435086 10.433286531120567 -0.7435985154675064 0.4667549825760478 0.43623984470632615
Ni 7.55694341224948 1.2161812552438909 0.8640581912786048 0.07935992728656655 0.6288684362117621 0.94759112583551
Ni 3.1391890839476617 9.110245292385995 1.1728719417795352 1.373116155227493 0.9670037260341667 0.09188557055740304
Ni 4.378722535234318 5.7476219508358435 6.421346739960801 -0.019509016567205113 -0.36078799422491414 1.2541491550722659
Ni 5.2149057841482716 6.35463042617498 0.8978343469073642 0.21640615354100795 -1.1419747523588397 1.8239652652065619
Ni 1.7491667988945658 7.987435665869978 3.363476058971285 1.3262387739496642 0.5607095198473375 1.7673274621078594
Ni 5.2309197801616865 1.9860420380698018 9.208536301791773 0.5133348872181159 -0.21248727810257595 0.30339814345153554
Ni 3.7097202029383745 2.747998000357768 3.2350287629892027 1.3790050099081024 -0.10037792429913034 -2.0316013858644237
Ni 2.0157013705934883 5.606709932550744 2.9690663851153536 2.0043294375223484 0.5180762585578432 0.3524213674277737
Ni 2.1971499773951453 8.289862395687136 8.870492364135961 1.6832320770188365 -0.5304347801231962 -1.294690823940054
Ni 7.135572819931288 7.358812011457049 4.802581613359932 1.1053005368662578 -0.36845348118997195 0.8516244432301978
Ni 5.028914924417055 2.5862975116097777 0.35380248999731945 1.2290541597768512 0.6077044005396374 0.9840853641068021
P 5.925754434333099 1.9565406161796581 4.425682370991755 -0.2711302845567653 -0.6260574491255283 0.04546687408354751
Ni 5.478876630267321 4.642275382617517 2.6922137468435183 -0.6604184431039013 -0.45873056960967457 -1.8878016429362325
P 2.801631882597594 2.030024793941914 6.10245829103983 -0.1460412306642001 -0.6611110982955517 -0.8084499647252528
Ni 3.496002093729174 4.54678589362801 1.1194238367556415 -0.6447372849232187 -0.15937522876894486 0.044136842418214306
P 3.0923546478109794 7.070021329289366 1.230120119755336 -1.3738368354436017 -2.686489386068399 -1.3936726392226062
P 0.2500487015570374 8.094081076676256 9.19519935545995 -2.673479604072292 -0.07496051266729026 0.4749961395389174
P 0.10056770918703292 0.08890833111508453 3.267875103652218 0.3065911964675365 0.514852609414223 -0.21264231562320152
Ni 0.37403362881241153 0.9714011955307105 13.385943214752569 0.10878697429843201 0.1567424191317881 -1.0324097622438024
