# total energy = -340854.65882908803 ev
CRYSTAL
PRIMVEC
9.47091421896237 0.00000000000000 0.00000000000000
0.00000000000000 9.47091421896237 0.00000000000000
0.00000000000000 0.00000000000000 13.86164029412795
PRIMCOORD
 96 1
Ni 8.396079054529551 6.386190064064563 4.238127065633243 0.29481605820947937 -0.8906895275524597 -0.6982907926696426
Ni 1.8087835991743115 6.90021445922846 2.6402124231579895 0.6054778252019636 -0.9658593280170785 0.3118745563536629
Ni 7.996586424312351 2.328064351697459 11.725602605048325 1.4114111941529497 0.5052968474049878 -2.4337699999186535
Ni 1.8460042918263018 0.37141421100464206 12.60628870649097 -0.3094489776313058 -0.34533052201926334 -0.2136113644046902
Ni 0.30118264704514247 3.4850217546680624 12.649979927697625 0.9124796268443575 -0.3760410637292427 0.03142196595470718
Ni 0.3655867575214946 7.347753036983459 0.36644198107021586 -0.6144113802461677 0.6873998567887516 1.6881660239853442
Ni 8.335133721904727 3.1785903269949984 3.963929894306502 1.8030082033389205 -0.6348375093110035 0.275962415838086
Ni 7.128037299366786 0.44991198884369815 3.3698478617412633 -1.135547251565941 1.6666844570728008 1.1616506335212122
Ni 4.091150790045854 5.843089962426974 7.441996209614864 -0.37871758212014134 0.36632743598590456 0.41455233243056344
Ni 2.9663471406512065 9.76299715353119 10.088820277948518 -0.42964805042142135 -1.1993874859503537 0.7837725165832309
Ni 3.9795455375748485 7.95690329397855 2.021331748954081 0.9771932649726591 -1.7254002257464542 0.6015617779770092
Ni 9.010741383566234 8.83301020842444 4.452774917082465 -0.09735070743703235 2.0764164852965856 -0.6906980679240492
Ni 1.657570983682791 1.358470043570195 8.512585505078777 1.2181362273127667 0.4287162826357714 1.69946242283477
Ni 1.4904945869719106 0.9453430853270897 3.643365968522674 0.3122494231945784 -0.06515149699666843 0.6164883173798543
Ni 3.250985994840243 8.915085150542035 6.826123497748429 0.13921495177098606 -0.717202541972481 -0.6403962343457036
Ni 6.096446387142849 0.6701514680134629 8.701187395494351 -0.4566564606894652 -0.8117018960036473 0.2993831087548715
Ni 0.8672061493175606 2.9169184396459302 2.3232389209325257 -0.7432622151740103 -0.4010347575601029 -0.7877867799489464
Ni 6.227239711703659 3.2908206598006173 3.0932251892979377 -0.23362406008119121 -3.1888312646101213 0.24385885043532193
Ni 1.0531183001114632 3.467538447127204 9.807124036789245 1.230303973023552 -0.9165903065786214 -0.006790283448956048
Ni 7.2947064467687515 0.907508677437479 6.1326811576306985 0.11045819135326784 -0.3805353520551704 -0.19103887842081294
Ni 3.8024962682526335 3.7682778553896203 12.758115037220112 -0.742483942247089 1.8050326899681173 0.15539258997211303
Ni 3.997028845115707 1.7047740198602768 11.654312192885648 1.303297848882775 -0.6499535390168355 0.4374534053984531
Ni 7.4660352839378366 3.649910370207795 0.4980138147750449 0.24608259755951814 -0.21125469124705554 -0.6264102044792567
Ni 7.855678163427793 5.985191558495793 0.5366854514764715 -1.1548066140161855 1.2669164820402634 0.14756049552220393
P 5.932012375482835 6.862747522808288 8.288276374094112 2.092885429485886 0.04960326484942425 -1.0411957359665487
P 3.986194119315738 0.8199595469349351 8.339605887571462 -0.11533505982959491 0.22115472396958685 -0.344206178606833
P 9.5612666819059 6.410643964427778 6.253831197392969 -0.15077566002539194 3.083156610688426 1.0648642832280821
P 8.16274414234963 4.987676995422455 12.443816121153661 -0.8924257935172759 -0.3738756806468077 -0.1886798912703331
P 8.684610454438682 3.763978060360612 8.932398928719415 0.18587147528726053 -0.19704471829526066 1.1690052741140706
P 0.5852646114815232 8.859434058933106 9.083213765816181 -0.46146879447644396 -0.6448864089065732 1.6414719623629148
P 3.481886882080834 0.5026630865365874 2.281695703057541 -0.46016344540145904 2.0236813596863987 -0.13736864259086665
P 2.602578798648588 2.9319203676766556 4.80147787592948 0.7310253067881862 -1.5209730989441934 -0.9333279310482765
Ni 8.88690918091362 1.483590290548679 -0.2378298080406405 -1.3447157497079292 0.17838236599906698 0.36303822371167155
Ni 7.047411407115796 8.697954972491265 12.785408317648738 0.3711953056011672 1.6941374110774305 1.2240937304477821
Ni 6.25782129352892 2.4903105821863254 10.232482680671037 0.11747473188041704 1.8363533544582697 -1.5815626876017923
Ni 2.3239729167799883 4.819000014218398 5.987673885097341 0.5955101724662906 0.145803146511465 -1.2608803031485123
Ni 1.2270421677606103 7.446591497165691 11.054963384955581 0.7044110466347676 1.7541914389465336 -0.6844839686935373
Ni 0.3611685760654759 5.301401026999345 10.985377737341848 -0.832574111466966 0.09306442135685263 -1.1333289037583836
Ni 1.6065511690984982 5.729798887235344 12.829752084841074 1.3659582040264733 -0.12676592737435588 1.0874552811547207
Ni 1.245169497464404 2.7808782286400304 6.987846933775619 -0.42237054292340165 0.7890653895510539 -2.636602014319653
Ni 8.915823881846578 5.0005574386811595 2.2869492191425436 0.8464891788861614 -0.503591691788423 0.3072702248124321
Ni 6.182536996864628 7.470297195310201 4.1502028869299314 -1.217137610844923 -0.08618440640756769 -1.7230219553222648
Ni 4.36936836443386 6.055872990877932 3.466338482303029 -1.3586948375958408 0.06628895303522132 0.5100675293207538
Ni 5.289988575435567 0.0955577355169263 0.9233989772164889 0.4821759451168082 1.3615878428729196 -0.6641290591862692
Ni 3.148359168993687 3.3724409980384933 8.215419472729234 -1.8982686039058279 1.6953540570933514 1.2312989899469697
Ni 3.5534112258232846 8.948659541242112 4.187615839139386 0.06931128480131289 -1.0616881994929457 1.4737452763054812
Ni 8.419349090622665 2.799147622056236 7.044513307382588 -1.00118474279125 -2.00289347640677 0.36451120871277226
Ni 5.214581156887184 2.7855852729779533 7.962043159093622 3.2714186976950494 -0.16472595155789696 0.04412115868893047
Ni 7.231724867599354 4.71004661771242 7.940918285057931 -1.564642514807686 0.9833947657976805 0.32959768466503886
Ni 4.792206798057462 1.6168081691346572 3.9932338498114692 -0.24550821311328686 -0.4964702502522934 0.556361527291287
Ni 7.470363491709328 5.501388850419047 10.304479623030113 -0.6551605371390717 0.12312858773208472 -0.05082299618913828
Ni 0.883858857686516 -0.08271517591486555 7.1274614677858095 -0.7132890658506877 -1.12685126645384 -3.5430238650057047
Ni 0.6836560445153643 0.664610983229388 1.2565923670337589 1.7584211607571651 -1.599411285747439 1.5063067551812703
Ni 5.622161947797718 8.156749053685838 11.093581984537709 0.514648720933533 -1.8122695740361885 -1.988338975631363
Ni 3.2578524076068316 5.325286672512911 1.3541352061587915 -1.1262488569831508 0.06554873243508712 -1.383594686161314
Ni 7.929646003023732 9.074613228666749 1.524807708976532 -0.20294514294009566 -0.8296420254218357 -1.9158127834371776
P 5.704928266649051 -0.1120901632760393 5.105921358720191 -0.49158206892205664 0.18712900184344544 -0.33172835785479643
P 2.1371780767862982 2.6321091090019992 11.532385538162188 -0.6113633374484632 -0.11415183815477115 0.27044380001270196
P 9.192327220771478 9.349345506643576 12.225287089081338 -0.322863965485631 -1.1820819047923707 0.1044729203041104
P 3.3657734744692815 6.796005990717049 5.51489532110378 -0.1599069329026988 1.0561377019883615 -0.43561326686592067
P 0.1481516160347461 8.126849377680156 2.5199071889388622 -0.3805615773074156 0.6429611668594024 -0.4281676092211529
P 4.555519182264615 4.105063562948087 6.208421005266127 0.7286673480789709 -0.8806871649241089 0.4768532473523142
P 5.961400622123834 0.787465787540606 11.158731455958517 -0.06858083439319157 -2.486792831972588 1.1138759372400946
P 6.010838794043271 7.53561809027732 1.1569034187598868 0.9058420669231819 -0.03662665008409821 -0.7017342711335527
Ni 9.217150486786965 6.774611195627775 8.746181814489534 -1.50086758644357 1.081535573236176 0.572793190484749
Ni 3.683579470049481 1.9585376938850672 6.519406995559125 -0.8025089166504696 -1.0065560344054922 -2.2911514217827573
Ni 4.75800732702277 4.10766806434231 9.881117447853418 -0.30749931010410264 0.6291551142142454 0.7968540323575374
Ni 2.5510380837854507 7.651125359382581 0.3422939912343942 1.0104641112106467 0.270919711207856 -1.3904878137367214
Ni 2.643464735080812 5.331537475859048 9.658568959811248 0.24677139609642662 0.1185481674502539 0.9359548271481624
Ni 6.392620814779754 1.857700870814904 13.047851137410495 -1.9735037103907433 -1.5018615749257231 1.7114926145264266
Ni 3.8279162018602517 8.545094417935763 11.983374369945972 -2.9007869779068365 -0.2211099867745805 2.1010489391332845
Ni 8.039631729173239 9.076895718979504 7.99977433401888 0.5713857686142612 -1.1733689503994051 -0.5802586456238586
Ni 8.153595239270288 1.5401695317453683 9.286772123874508 1.2456963963192225 1.022572978659039 -0.1135982796441463
Ni 6.534627701706966 3.0843831438374036 5.49654258364296 -1.2500801272092148 0.7751765473841037 0.5463745912819041
Ni 6.35770155426884 5.626082906260293 6.135480759856634 -0.8687315352241296 0.3973940754837221 -1.9031092198275803
Ni 3.365280986932919 2.9817089634200435 2.5408937876278053 0.31604848522569445 -0.0924455568259311 -0.14742242728244287
Ni 0.5613666537795469 1.1387732477818446 10.640389271028704 0.015397051281360579 -0.626048964485096 0.44464066717551165
Ni 6.166436442791247 4.039723726152646 12.079227597984715 0.016942284281293404 0.4661805981298165 -0.05096672085585416
Ni 1.2757321374613433 7.7005256476453745 5.051001421684475 2.1848460762555986 -0.5903674519230865 0.4659363433294943
Ni 6.146708528594276 6.4436406293640465 12.78459097775666 -0.6696116795673952 0.04909367220285739 0.20485624391987944
Ni 7.557770558499459 7.8653195540434995 5.784254749477179 0.19634846355918442 0.5108851401260427 3.471932348375517
Ni 5.4452452712737545 4.625708127110391 1.618651209030351 -0.29740747308573945 2.2502256301026726 -1.60120900107781
Ni 2.060283724714668 7.222377075322632 8.538424053092303 0.4361118037688941 1.5264994280790614 -0.37155191760963757
Ni 7.640887301174743 8.272085846336203 10.204135287496314 1.6773352519184275 0.19595585610645608 -0.25389129497065954
Ni 8.709859911591405 7.088467820002915 12.335640286700285 -0.377673200016027 -0.04983594968552062 -1.3570902121128823
Ni 1.0145148539919946 5.166184785525436 7.8600489903130075 0.03859405822311418 -1.6068888250714068 0.6867588807706431
Ni 2.6978846078488368 1.9013901978387289 0.2464180330016646 0.3355356474160286 0.8428482396994645 1.0288989208770667
Ni 9.091689286898692 4.540621434289658 5.8931929925205 -0.2505982260416845 -1.328503144503809 -1.7327507525742545
P 6.321674196801114 5.224061541962157 3.6612887264805942 1.659285336395252 1.989307510192219 1.2146896635250628
P 1.0915417988618763 4.361479092937904 3.8812734380594334 -1.2992424478664786 1.40822071224011 0.3874444204701779
P 7.856767318556286 2.1764823705536673 1.973191092274675 1.2327717178377542 -1.3009542883512628 0.3238481837757713
P 3.9298042964022653 6.339924648388997 13.035666806342611 -0.9401601234787614 -0.0987792123534428 0.4046929231379804
P 4.7373039086672355 6.220411182593714 9.928538315056603 -0.4760397503120834 0.3815787057180203 0.9788004615587788
P 1.4028602182419196 4.066829482480889 0.5366551445511569 1.0418464821766704 0.3058900566354538 0.8769953178948187
P 9.381167778223903 1.4808153126995611 5.258856733497563 -0.168301070503665 0.07247502724127518 0.35202336065840667
P 4.963260978715883 2.88681987444287 0.49390249093783656 -0.4540789297702761 -0.8232417783224467 -0.023547448302636866
