# total energy = -340861.90047725907 ev
CRYSTAL
PRIMVEC
9.34969579075818 0.00000000000000 0.00000000000000
0.00000000000000 9.34969579075818 0.00000000000000
0.00000000000000 0.00000000000000 13.68422487150746
PRIMCOORD
 96 1
Ni 0.5482119180962698 7.1763214111750395 9.788106501334907 0.932731178004542 -1.8745833444737456 -0.9512991708147165
Ni 0.8500350495658993 3.7849063487872194 9.386638989672301 0.6377608536053855 0.4890605880517835 -0.4935713314379435
Ni 8.420167506727728 7.109134499041169 13.24262078896752 -0.09676295325436239 0.07855054401139375 0.3364712718564205
Ni 0.5448899712717271 4.007840489188 5.096018828885847 0.4932733405815504 -0.4013851989209861 0.9698879895604974
Ni 5.320416196638277 6.045503784977539 0.4915836171331173 1.223659728234157 0.12413363195783136 -0.44237115441504454
Ni 2.9027064766325443 4.2002198245715965 -0.21104039270727992 0.7240691871853272 -0.5850969475527665 0.6139349548303813
Ni 7.923801520327079 8.570052475892503 6.397374901690892 -1.2290047945961544 -0.5882424351602836 -0.06872147373611391
Ni 6.236303021815264 8.138451830481463 12.44015044551053 -0.6341258279559595 -0.3237772213285198 0.07667441003460343
Ni 8.461063075009601 0.5721312441903529 4.618589715827245 1.2053370186655692 2.1500613644762456 -1.4902512443803044
Ni 5.257464696582981 2.8313309008977865 4.021410637291409 -0.07875906047777403 -0.13328547366042853 -0.5941989098540348
Ni 3.4381448406852164 2.5173026768732516 5.571039460373939 0.028000856088300163 -2.2373014658418375 0.5478568322543855
Ni 6.287127966758169 5.857827346449403 11.881013408178465 2.827618524142962 -1.0788292300486066 -0.7673195132335302
Ni 7.754366337792984 6.527461890554599 7.815935952847808 -0.76882309436225 -0.16465601755190998 -0.9387825264049445
Ni 3.104061519732327 5.550418706865555 8.639329979948602 0.815388343716299 -0.23537446711339466 -1.1127932456988772
Ni 7.7658290645221975 3.135037061048708 3.6066964769909986 0.07382408507000189 -0.8058544360839348 0.36260730682184006
Ni 6.964719101765944 9.022194402399858 0.8276247643315999 -0.6829222806333722 -0.15352005553974848 0.11806762826940957
Ni 2.843214363926196 3.1645540498612084 11.28328643748412 1.2378622449867842 0.3195474995178884 -2.456902215060743
Ni 7.704242620015406 7.239693647529531 9.94250550350528 -2.3964923465141177 0.36906566085267406 2.145786648360292
Ni 5.211623139361667 3.1877880432723784 11.708290872693317 0.7631242442052599 0.7432182493099522 1.2952510673188982
Ni 2.0546610422770666 5.219813472652687 10.70956107020459 0.21970950688262805 1.4862120413139244 0.6983519849248812
Ni 6.2961223738654315 5.222094798363885 9.356629271904964 0.06996923010028594 0.4123134157977157 -0.6142784542127292
Ni 7.599628876644146 3.6747669353531816 10.77192073453235 -2.1041856849900538 -1.8668150133822368 -0.7948907379835795
Ni 8.766068842840262 6.55600651103118 5.562801443635677 -0.6288213850239106 -0.8524628799710933 -0.3234514625579849
Ni 4.355471518975008 0.4932291635477515 12.71076990309266 0.12221790299235726 -1.7723745376134639 -0.5328518742051209
P 5.265439986876634 3.009666993583766 7.163143950284213 1.9988714997315702 -0.24959883824289275 -0.37125341253261224
P 0.9033423386740628 4.121037253062864 12.888664690149259 0.7102029707261962 -1.0181326834994981 0.2024715457377868
P 3.721870701472085 6.330080468058337 3.2652203517764544 -0.9301801294479142 0.949448747869539 0.6981563239743074
P 8.417016659331523 0.9601389341568939 13.255511214205336 0.5248570289251026 -4.103542094777843 1.6324977838887627
P 4.075055450408484 2.37242914451668 13.378122186517105 -1.361290880457791 1.3202948976614035 1.5777435709660184
P 6.036481328783664 4.887048458770613 4.2636762081859265 1.0679246673209608 0.49011448323759466 0.7155989449307869
P 6.056209186368198 8.113609689437808 7.390986680842284 -0.2657602784941036 -1.0390138978238816 0.21243302782587284
P 1.719259414253362 7.777749926332757 11.336777915594377 0.4000937338030722 0.6357312247698664 0.9225951180118045
Ni 9.275094316998947 5.182732580150192 3.3469423005932244 -0.9491397012695525 0.9210370294960655 -1.384678406143796
Ni 5.347203074353771 5.784600530998181 6.880291351060565 0.5074298345875906 -0.07935272819771495 -0.07631934068802985
Ni 7.0588237873528366 1.7086755589046922 11.858023441820828 -3.02532890104668 -4.201875477843117 -4.482957474295957
Ni 0.7489171573561826 5.322155240008288 1.0889655840621209 -1.245533645489113 -1.3272206782469596 0.5991745086917553
Ni 4.737836667684551 7.413317493664513 10.253589508404996 0.503813577991242 -0.9771148463262398 -1.0192331156525285
Ni 5.077585904133283 0.6459620499733091 6.598437299320343 -0.8325831103280307 -0.28456429857448406 -1.133691429304125
Ni 0.9409440092180076 2.7348887914264712 1.2186187470528804 -0.050700354568344944 0.2468942948275361 -0.2001012457333973
Ni 3.3511365740114343 2.496882941818927 2.043738727949932 1.0395078067411647 -0.9991006065687115 -0.7943371794729546
Ni 1.144468181682535 2.6120431417567067 6.942294791988339 -0.13306024502349986 -0.8456435430564145 0.5291916517447144
Ni 6.973900502783961 2.020796445039538 5.994826565224129 -0.5390073522835556 0.7454638508110194 -0.5870823534139115
Ni 3.9071629676381083 4.701625296867061 5.047439680811095 0.9598727714163404 1.6762775000778745 -1.7069823853608987
Ni 1.5708236478969286 6.277853068784777 12.78875664854212 -0.1160112599610131 0.7593100126654923 0.26780353417637753
Ni 4.850612695260218 9.011685344615488 2.0548919797568477 -0.7045804823330962 0.5501643973416396 -0.24461424054410774
Ni 1.0057280495986907 7.587165732492399 1.4976697600709017 1.92575395381029 -0.5523549772350551 -0.690831765288436
Ni 0.7250931981565839 8.969377972307422 12.99928841781215 0.30983258622296966 -0.4202005318552763 -0.5738031198065021
Ni 2.388145982715544 0.3262688454224847 0.8988526148768621 0.9159128208956226 -0.12670422089848501 0.364008815155057
Ni 5.894431404479476 0.5694516214492498 4.139285988813335 -0.11936423559364605 -0.3402759903144914 0.7927343537622089
Ni 3.9004966347197327 8.106756362608678 7.725456144220881 0.7307411998888641 -0.6548437772296013 1.3570452178075596
Ni 4.1910384235535805 6.104079627521193 12.099344693466039 -3.2482304325040445 -0.1439761206050553 0.48074486909723657
Ni 0.48899094656051467 5.419962405028108 7.5263646624107725 0.16187408393139865 -1.1751828636796922 -0.5684156302423437
Ni 5.364752452878022 2.78346980944033 9.402006149258055 1.1034627123265706 0.8478896587781138 0.13962709960774017
Ni 6.455048498615158 2.1028213239917295 0.2954765581386426 -1.3367085631327364 0.5942696151909701 0.4783956521387696
Ni 1.1035445643140476 8.192278027691968 5.795460202365213 0.5533937029122146 1.95416258685997 1.3978717649056183
Ni 1.8622256087202442 9.118393419787193 8.668805830100736 1.9466197415157052 0.1973468229167117 -1.3386839416915526
P 6.6083648060422675 4.301607922982352 13.410088795560482 -0.25489119699008356 0.28651885119769366 -0.5944009985625118
P 0.07028540123506245 1.7538626374383683 2.8722778925051187 -0.14369715591205576 0.08379508023978471 0.9372002695194891
P 6.202868510572469 1.5760314283114243 2.295993513556922 0.3757088772008046 0.465491799592908 0.358038456504235
P 4.173863032850836 7.864113064014439 0.20442548311436126 0.1466258995230765 1.0341236596111159 -0.09097925669304976
P 2.5637800133911295 4.253737481829358 6.570493864266838 -2.0505025936443007 1.8121554170558276 0.5345002084418214
P 8.522901961295911 4.977665707921945 9.503132456193754 -0.4675427685846657 2.500307835739888 -1.6627097886957687
P 7.234083830206915 8.267496328292717 4.245311536210788 -0.8050242268731554 -2.139077354660916 0.2382391902556994
P 8.850543342023329 1.1706566788836168 6.631402455847146 0.6893446392199483 0.9207948315782722 1.4581888166281207
Ni -0.11514337048581173 7.975393140304075 3.541655319983029 0.7685911808571021 -0.7821583780185755 -0.15245304772781487
Ni 3.3114003679762334 6.828297694175449 6.0437469771860055 -1.1881355671856182 -0.9395358596312012 -0.3779647631145168
Ni 5.020206822618454 4.831932003575905 2.4035795251396155 -0.9894707967884313 -1.655040702186285 0.09926900750566775
Ni 1.5515071769160527 1.3230099676703437 4.478942663276245 -0.23759024381779084 0.005379519144358478 0.1338410890535824
Ni 0.8671197482219278 0.4209232931069933 10.518831021113844 -1.0689281688848105 0.03853286596787557 2.3312192363379207
Ni 8.83180655216579 5.144838264135918 11.807597728877383 0.22734671171291168 2.191572339235839 -0.2643184038412545
Ni 7.55565725853037 4.43510287586955 5.727942311009308 -0.0004003207622122137 0.6099924252428656 0.206380908094522
Ni 2.7316818458570418 8.671281629479118 3.338116188005641 -1.3161711053010172 -2.5025907182367932 -0.31440040809931014
Ni 4.25846842777143 0.8536991952471217 8.851038875886827 -1.7055903901093787 -0.6825564126535213 0.39473812591811375
Ni 3.331969698159161 2.9524281575020024 8.099336444229966 -0.16703454508641555 0.8147563665592548 0.4655807597622885
Ni 9.0633798112434 1.801873324024428 8.857388254126475 0.21847974824058503 -0.600206035280063 0.29869019645290495
Ni 6.024663313624018 6.952489700002641 2.6419855417161724 1.1231743318228848 0.43243924001331335 0.547140008693019
Ni 9.113475479934365 9.415423897324201 1.469616933579604 0.5490649936298737 1.5793196572038866 0.5821944291939909
Ni 8.458491908736734 2.827254433643352 12.797609875246762 3.9583087047269183 6.378916199121686 1.8718610604465762
Ni 7.844273010083453 4.129190187571733 1.434708910320069 0.3057249918124993 0.16146116476369612 -0.12838803635881116
Ni 1.7750022990490948 1.942885432123932 12.658646285439566 -1.223681325500712 -1.4562756587658081 1.4342400191220073
Ni 5.670992380519659 0.18794196988140638 10.589852243387723 0.7199610785542246 0.5871810837753049 -0.3782977209739033
Ni 2.3051674348185074 4.017788565240107 3.3416737471577336 -0.7215785595529896 0.9445986188660893 -0.10219260891036593
Ni 7.576507079579427 3.3406368659226033 8.035691196765773 -0.5456598246030666 1.3204720466692161 -0.3435042674438019
Ni 2.9337007173400007 6.105706474544752 1.0298072554864683 1.3422372062604497 1.2889510932427994 1.7556117163328282
Ni 1.519634064828053 6.3089875549253 4.69756191918638 1.2191039905426746 -1.185919533370906 -1.8927561587280306
Ni 8.962347001263076 8.836247657546195 8.429934198686402 -0.24032512625045066 -0.7569911347243286 -1.5462259599737112
Ni 5.217709791156706 7.6263222574042615 4.979593615141818 0.4776235498594354 -0.07927071000686993 -0.03349401799238747
Ni 6.775715006471456 0.9701057096000758 8.268131172619727 -0.01712997481206727 -0.9289259453258388 0.3586892027143564
P 1.9838931967522588 2.0176642970344103 9.453007803446624 -0.2914826229608722 -1.2414540761031008 0.9006309550358876
P 1.7420259228876476 7.066565335258048 7.875229852008757 0.5920569238103675 1.1416736761786532 -0.6758990552380036
P 2.8309101645985906 0.3926872125831568 6.750126759723894 -0.3523774015637157 0.7783945401007691 -0.8732525630229347
P 8.265186953494908 7.040105696886373 1.7380466924668048 -0.6575840589788998 -0.643372286254892 0.17132597337291786
P 4.4817298075160314 4.771355326187185 10.287553212415224 -1.6483499204296708 0.22812241353667165 0.3132488109933702
P 7.902203723635005 0.09846351364656525 10.076994329028135 -1.035294025770133 1.0991918528653586 1.6833840292156685
P 3.7596341217488316 1.0042507977037352 3.789928070260515 0.10095308007631 1.8692825010861223 -0.2190253363314099
P 3.393331749973048 9.057788693311858 10.714474335209648 1.0568025892658701 0.5716385080550156 -0.20226688592614842
