# total energy = -340895.9797983539 ev
CRYSTAL
PRIMVEC
9.01851272442260 0.00000000000000 0.00000000000000
0.00000000000000 9.01851272442260 0.00000000000000
0.00000000000000 0.00000000000000 13.19950497743581
PRIMCOORD
 96 1
Ni 6.5085072487196465 1.9047820150780594 11.422310590932973 0.41623923321468315 0.5570942916922534 0.5087719504377818
Ni 4.52712198738163 0.4310353017861459 6.0405420395742 0.1941915651171817 -1.0128608935775976 0.40842950736227723
Ni 2.6668463321214295 1.5687071420056193 4.845419568362285 0.5705393614535658 -0.060554621654605394 -0.4374487774127627
Ni 3.2717720851391934 4.179990417827591 4.802547363032572 0.6936738627229214 0.2103434922866958 -0.06532967444574554
Ni 5.308567088061996 4.2716996727389995 2.932111451445967 -0.06098630987538529 0.23390456743608748 -0.6326039919947943
Ni 7.4404352511063525 6.074247828669087 2.554328663024054 -0.5735264691063479 -0.8156094585881696 -0.26297011734347614
Ni 5.2579371581699075 4.5042961319208406 11.411222329657177 -0.41986243178956717 0.4173532922144684 0.7528925391749227
Ni 5.781164205293046 7.704984300528248 12.525273783453358 -1.484510228131469 0.5102696180292309 -0.7692329282061592
Ni 1.8687530571302695 6.580520072052089 0.39146928318575935 0.24244268681408568 -0.45802608734348216 -0.5658136738431223
Ni 2.749762537220799 1.5968268643788885 0.32610851476753305 0.1397404852571529 -0.6078992901592628 1.7302701522442459
Ni 0.6473885178741783 9.217821756805067 4.725303802376045 -0.11042219590900983 -0.1518812343847449 0.10638787793863615
Ni 8.593443072049284 2.500021885533639 1.6013902317685211 -0.9501257193319057 -0.1756369420434459 -0.23369245142528142
Ni 6.606845110412438 0.6455397227854932 4.762276096744696 -0.39063258839017245 -0.4448890357408919 0.19197347441994034
Ni 0.6740030504898787 7.318090108798537 2.4310717490895755 0.7049283525908182 -0.12804890785183753 0.14284354966250884
Ni 7.438676641143944 3.715843646928726 3.805773549298683 1.411760864182885 -0.16678771918293211 -0.25870285742668997
Ni 7.6071424570299815 3.834211625167711 12.469360808863943 0.9471139290887753 0.1344167590513943 0.32473058638072466
Ni 7.726538545708528 8.871970816044167 6.808713693369071 0.1547349017834561 0.6656190134682343 0.9480811780980511
Ni 6.988580712919087 0.5659107655389318 0.31750575557193933 -0.26344500009736566 0.7241697173189335 -0.10427520247100751
Ni 1.7897599050239632 6.718674666996318 9.031998911515696 0.9023026863113557 -0.4125443008615992 0.5275497452659171
Ni 0.2310849564654329 4.905214110786674 1.278947742384161 -0.5783089780966557 -0.19983693632841715 0.23491115432373091
Ni 6.304959418711731 2.125699500406987 7.146014182307619 0.15751400719049002 -0.042703709516113554 0.22148279673296695
Ni 3.3915198958102213 4.249622353826311 0.5902490255673927 0.30129163863149405 -0.49275706306676426 -0.29780265164162906
Ni 6.157696126013493 5.652424937532169 4.701096310780686 -0.6856988149372448 0.9042045313197588 -0.14576380863309737
Ni 5.19394179256352 2.8125223665971872 9.538529986211115 -0.22071917909406502 -0.10269088870302313 -0.697569598232902
P 0.23742677454525415 5.623204956618317 12.336653395546863 0.1233422464047876 -0.9297515265509277 0.1163547593433609
P 4.018802541632133 5.932639143388436 12.732942171880884 -0.15059234036999225 0.8823486117869319 -1.6101615822854076
P 2.4248706198067467 8.463260842267971 1.318293709276431 -0.6392029853685508 0.6247477291751692 -0.1802800972424121
P 6.347662076004044 7.608973215093411 5.718803896026067 -0.9959754306761686 0.7695082933547328 -0.030861208355230724
P 4.824209830364384 1.0825912743455992 12.494110313068228 -0.16722892048540877 -0.31150765993254736 0.2689772427695045
P 3.892308883515562 6.193202010228874 8.254033153007109 0.14896457495858215 0.44601646447711574 -0.4209942314011653
P 4.518897103865139 0.8784888058110784 3.6019993546238114 0.16729011274064737 0.8593801759162167 0.5139686641473729
P 0.2763732213281156 5.492905486172842 3.64767000442191 -0.23399044228167443 0.1952151212856896 -0.26542886329661386
Ni 1.2526714039920006 1.1015121138385815 2.637089749706227 0.7021204508283779 -0.23440516122158989 -0.5315251849738974
Ni 1.928437573700601 6.2849473391907935 4.819838557293722 0.4095463945755398 1.0150836122605291 -0.8979312967165374
Ni 5.824002140274774 5.436629967375794 9.1240256180716 -0.0388370274718557 0.5841844630408262 0.03622195844651181
Ni 8.726547299921984 2.270690127923037 10.140401169001866 0.21667689070389134 0.8460929718890073 0.17269997090230904
Ni 2.290666133393464 5.227175011596714 6.893771795217527 0.059330005218884915 -0.13635022862868132 0.7902678944995875
Ni 0.6895221070196803 0.057800549282398354 9.121477888254267 -0.8084499647252528 -0.018180270453452562 0.05435723459464187
Ni 1.5429863439913274 1.1460996402700894 11.552430592977156 -0.3797961598963007 0.09161509050483575 -1.0596282316401235
Ni 4.119440124044997 6.762396416215564 1.5922301284925333 0.07193792379088255 0.10638736371800386 -0.02704363438135342
Ni 5.788036311915378 7.890486086768071 8.217034704951839 -1.0426800338215592 -0.596778497655753 -0.464912015830038
Ni 5.092844266006643 2.656727560953114 5.067580706582577 -0.4255011181325833 -0.2940719809546032 -0.8730268201653739
Ni 0.6833561499360997 7.732626041732248 6.567347632508023 0.529242816697624 -1.206651623711935 1.046724636204578
Ni 4.725240672787651 4.569608200370877 6.962989781486634 1.0297247592124719 -0.34408816497172995 -0.18209272497111864
Ni 8.037740360953682 7.16716529997344 9.065116693587255 0.2710269262096816 0.4696582722657718 -0.5715942850806415
Ni 4.663247416984619 0.3390374544706499 10.395269746969154 -0.22695153315702202 -1.2220203928585214 1.2169360363570785
Ni 8.18854792911462 7.399211629884989 4.474354669996769 -0.3446810613607225 -0.5072714546328554 0.7306622670218127
Ni 7.117229795553686 6.005869465925621 6.919075036097155 0.06846230653745629 0.7234688345971669 0.2927144384854443
Ni 2.4064908910714284 5.09273604385511 2.5140700226538577 -0.5863038233766742 0.5166611233778714 1.2152946440989134
Ni 2.2087419646831448 5.243922389546412 11.32766941756629 0.13628852215281043 0.17116296543249232 0.4529576716816393
Ni 1.0665834144313746 3.3493944233260846 3.8894455057562567 -0.9849734231387102 0.17552767015909124 -0.2577600338974464
Ni 3.712380538079677 2.7416007832927014 2.6330106764447034 -0.9992759558043114 -1.3870283944332111 -0.0503249735067972
Ni 1.2547366433837512 3.458545481659527 8.294727387537225 -0.37009744455129806 -0.9340432119477462 -0.45492790803413263
Ni 3.6410350846816875 2.48753124554423 7.210585830870919 -0.44071767797202166 -0.1334821630522669 0.04571215732513418
Ni 4.126880396962876 6.784158087186282 6.0967327843525485 0.7145856731749242 0.6876022026075448 -0.7064028802538157
Ni 0.6903004046594536 7.409438623204837 11.151681260297462 0.6453211824511467 -0.42805113824794666 0.4238836371338183
P 0.3461088702220547 5.872494682674089 7.770575041018482 -1.636993357766271 -0.7123470136523925 -0.17746911015617825
P 8.377494787178238 1.7998786761922787 7.937430150549206 0.6509752954131305 -0.6303450207572886 0.9137188985680974
P 1.9026536460979147 3.1757159071412175 10.489435644720357 -1.2319623345625814 0.04219180287670153 -0.676683241702196
P 4.170782516434676 5.924468370947711 3.6498876566770693 -1.0001781559036067 0.6497753615677584 0.8389548181823292
P 6.9737903522096065 3.917181941342847 10.264026940102818 1.0606096217167864 -0.30576252991865405 -0.3906127908958305
P 6.305545622032533 7.745738959092971 10.447685342361533 -0.07771827791808551 -0.06451951983962437 -1.6101674958226786
P 2.556640107810542 8.394593887120418 5.6582049022752825 -0.45202076168966665 0.2370860504878627 0.751011520102126
P 6.869085420601635 3.9313770802188976 1.485182187303878 1.365529858239803 0.2481111979537727 0.6191604648953789
Ni 5.320994598463011 2.8371970171466625 0.5260678786008739 -0.4527301290518655 -0.24381796989505752 -0.683229784571462
Ni 1.4123261330407435 1.1344296849298041 7.061550400441331 -0.41158810759591696 0.6258268211719609 -0.5454875606912606
Ni 6.9022194359959235 0.7611480361603921 9.375146102190802 0.11774495482266818 -0.020948577227209084 -1.6632312084168774
Ni 2.7898768813889516 1.4615311379376503 9.350622060802213 -0.1259719707181508 0.5405788105357334 -0.23271337534146372
Ni 6.252985730438111 1.7690173259801791 2.550012402880421 0.018335822194710357 0.4146209808849698 0.12158078362899062
Ni 3.9595960062310716 6.6347754440205255 10.500166772896094 0.8028601293423011 0.7877194170461208 0.03618287767846026
Ni 8.165180962896166 7.195510485162401 0.2539595118944128 0.28097401012006445 -0.13960884477529506 -0.09560672816273212
Ni 7.7751934213351435 4.137296779047906 8.124585932004956 -0.02956974323731681 -1.5307175799254669 -0.11713406071154664
Ni 3.200931668448357 8.327901986238338 12.336877956511294 0.6429241429738799 -0.08897173934471773 0.42705355022136776
Ni 0.18140467595304458 4.9884549823406426 9.87759900547596 0.2760387776019762 -0.4170486164898559 0.6496090111932231
Ni 8.422569313291643 2.3419093221442386 5.7627321691844875 0.2683941165725249 0.26825013479549287 0.3815707352982203
Ni 3.608351994918786 2.823398692826232 11.709742312445213 0.5824361128911517 0.05935083115449133 -0.7026603824922478
Ni 1.2985485777292742 3.483932594706593 12.739528391652916 -1.05044759358212 -0.32833810122632484 -0.2602316353663905
Ni 3.0435586230944303 8.432300288416966 7.909882201876536 1.0207053293226807 0.12948281208488668 -0.11991008079478704
Ni 5.414696944665149 7.864269270559253 3.508560348990404 0.3192970740699791 -0.43329233204222795 0.11404590870452617
Ni 2.832290946277176 8.323095119007757 3.433006857600315 0.7372862000962334 -0.2553316269616119 0.40601112772877174
Ni 3.331240157406459 4.312490405354232 9.252615178522857 0.5044386131697507 -0.005336324611248874 -0.09903503711799072
Ni 7.46335129169342 6.033799799533708 11.101588833757985 -0.7320102964092748 -0.3226662476525282 1.276473786711395
Ni 0.5621915309312551 9.093727023047473 0.3584985028700332 0.00990671759075068 -0.20843444818944104 0.24594041555469903
Ni 4.554610413870957 0.15804312084216715 1.2633763784811185 0.5264331151629708 0.12196182111749317 0.816819676846187
Ni 6.0980476834936725 5.609677187676718 0.35016178979695756 -0.12316921116203304 -0.5445241683367267 0.30082292652519155
Ni 7.986803801632251 8.857414936663005 11.256986824846438 0.30087666258126244 0.6249727007017817 0.9024736646715813
Ni 0.008550451822352886 4.851310460810719 5.84126898455183 -0.15075997629610807 -0.4020241180565657 -0.5407055659215849
Ni 7.915440311209006 8.88177393927051 2.443492044680488 0.036056636513241126 -0.2644682991555574 0.23615351137126425
P 8.22358485067336 1.5451327499967278 3.74520070923452 0.765841643136423 0.9435879182133878 -1.2263922966739718
P 1.7064378668563454 3.065329312577776 1.73898207152478 0.6033299256210254 0.5113597657696161 -0.6473099307464013
P 4.902102723930107 0.9154511798158387 8.353464960281645 -0.9746234473629538 0.7097591983205582 -1.4368239777990996
P 8.669342874324279 1.7962261785780471 12.544281200667566 -0.7827703005709616 -0.2878504255249236 -0.4918224670676368
P 6.368963802830747 7.655310332974699 1.4227614540022924 -0.3484418139547354 0.07803400938629142 0.6223409195058895
P 1.6893568039394207 3.2139273451449193 6.01542367820344 0.2814239531732895 -0.4308585257897547 0.7519908532962597
P 6.649015675459714 3.916253034542191 5.86549000391613 0.8146337249384614 0.5651205044308396 1.3447707713155808
P 2.4500773626012586 8.446170760838417 10.299533726169463 0.03706168073898779 0.5137953717943022 -0.45941653993310555
