# total energy = -381172.60658984206 ev
CRYSTAL
PRIMVEC
9.14436448918500 0.00000000000000 0.00000000000000
0.00000000000000 9.14436448918500 0.00000000000000
0.00000000000000 0.00000000000000 13.38370175644939
PRIMCOORD
 96 1
Ni 2.2396559679332824 0.5101201856197146 7.301745549585699 -0.01056132045561407 1.2077145177588102 0.05038565154140355
Ni 4.440439243663805 4.531443956155423 4.199510851284469 1.3875233317917588 0.7021183939458489 1.4106650600155446
Ni 0.5301710329951538 3.3320782924005887 4.3615608725342385 -0.5533379099736148 -1.0822878780211684 1.06409603760349
Ni 1.1725360991999296 7.2154703022569295 10.900341823135374 0.7896945384946206 -0.6239368032380996 -0.4242646746223209
Ni 4.664092103201585 0.9214501470702225 8.556360547384253 -0.19269826840110688 0.3629412931224911 -1.4458369799309871
Ni 3.243112773124971 7.962061917146212 11.46516085207413 0.5999810637534506 0.9139713808985357 2.183463079865143
Ni 7.628173747209873 3.9981720692609617 3.2388688737009996 -0.3403924612876976 -0.4720314004836387 0.3725734168956164
Ni 6.610031093117306 1.9257208006754718 3.4062994388444663 -1.4917347709043665 0.7347852880512507 1.7454869691940003
Ni 6.109203410394898 0.3483893026804311 6.336607288126414 -0.07229376446840452 0.27257910118814993 0.2598413419065074
Ni 7.941916882819541 2.6544351835590154 7.320134865986487 -0.5467849393464453 -1.4777615965537259 -1.219384240787255
Ni 7.1609424585483765 4.232514690545396 8.84971815188886 1.6950840912614165 0.7516105871387054 1.7808560927219135
Ni 0.5833116766549749 4.115960624486497 2.0224517140274445 -0.39986696250424686 0.7309597436575733 -0.8550630365981016
Ni 8.22972660156564 2.6240576056955556 1.4311323176448862 -0.634502751679404 -1.0393255155270296 -0.9948462021677319
Ni 1.021379759018414 0.4582688973117141 11.300421473313932 0.46327242334408597 0.5917144528692843 2.0786212062573877
Ni 3.762375494069155 5.4547504091576995 8.400453710002235 0.4472750194745651 0.19574271165438548 -0.5775304480594183
Ni 1.5404138708576651 5.230173968835991 7.093080302967308 -0.4175512671578874 1.045706736463025 0.2297496647274495
Ni 5.584454070932328 4.98986922209491 10.852655792719247 -0.4875289818986056 0.49322860338654406 -0.10543965509275388
Ni 0.5259234758255038 3.619522236578796 9.168143201967549 -0.19390180179090477 0.2926223929922702 -2.088295239012042
Ni 5.688516935497703 3.006173152408501 5.77731602734493 0.8854573326192429 -1.4965339920652225 -1.8451825227141254
Ni 7.55859428003255 5.525994150618932 12.00074992085619 0.1365626017498035 -0.7435720331049452 0.35414889164184166
Ni 3.105471803227078 7.9934087976145864 1.0069792142804919 0.5058195526776772 -1.2391380263754144 0.35811250427528
Ni 3.348638735961915 6.637665361721575 3.363498327782542 -0.6652842558366349 0.515588459138983 -0.4628883005317899
Ni 3.0319694038091094 0.8674334733202994 13.067418057998196 -0.6185045764789349 0.06328101944683294 -0.29522512072243995
Ni 2.337811573227196 4.281455327729392 3.2991357203797835 0.7196013812219607 -0.18016748292394777 0.5442855699633593
P 2.576205147851038 4.264638841970542 5.4535634706848874 0.12276220553160148 -0.8087932069972845 0.48749838577098625
Ni 3.222126457292147 3.0325089212967504 1.1792581213213713 -0.8572369043209689 1.3308593034408112 -0.3501333427245454
P 2.9064995826578346 8.874925506235162 3.259452837509142 -0.9641269187070041 0.6377233154992307 -2.4656815039152695
Ni 5.320684885660953 5.430664153861987 2.1545484559125088 -1.2314673972040342 2.239665080978007 -0.04978015674692072
P 5.085720447611102 1.6957857629341402 13.017562984394468 -0.3574761562428618 1.347310507018299 0.8262947062161576
P 7.682235228344363 8.159086388141429 2.109083591559909 0.5196510592441309 1.6191876970434178 -1.022840887608445
P 6.035070049847315 7.302853846526413 11.427539108893564 -0.5535785652295111 -0.7205303207941334 -0.38062739754834446
Ni 4.439122455219392 6.2863114561683755 13.188004788668108 0.33652320814027853 -0.28740922422244697 -0.14670251839728285
Ni 5.775973634680764 4.820844794271854 7.091902508858695 -1.2604678982014421 3.263601001422844 -0.5403224715505534
Ni 2.3914981354295963 7.5591795193411775 7.956744469365477 0.7282042923996233 -2.2330522036471803 -0.613160538558202
Ni 3.7332781271933184 1.564033763579314 5.8777604669974295 0.14931553054009766 -0.7233701042357735 -0.9906519615807261
Ni 4.234069232458938 1.0484196439498563 1.7977253061329002 -0.18159521650940982 -0.8023430804965666 0.00504193329928164
Ni 3.65474632746683 4.216886972132195 12.24737159438477 0.7805306126071654 -1.5027804871955666 0.7590567590041057
Ni 7.696884499788452 6.192627444966946 2.828819123238115 -0.37321979223036367 1.280968075037323 -0.45193925771945387
Ni 0.13857552391885802 4.1591037347694 13.06475430470752 -0.9589479456092258 -1.2165367440361305 -0.15473258779061094
Ni 7.0538528094336925 8.864647240877387 4.0569877053416326 0.2668571111027082 -0.921054255887246 0.09292429623456254
Ni 1.1540919166139574 2.1324931639050195 0.06932159610695907 -0.7695959679725327 -0.4598937366798402 1.389203547707659
Ni 5.547574850124581 3.339101164104122 1.6725343880896428 0.1032318488081577 -2.685031313465634 -0.3727469663590032
Ni 6.752637452774338 7.110081504882945 0.34032488789482435 -0.3460933683272169 0.7749456623202202 0.28566421650688223
Ni 8.169318931678218 7.892098386672602 11.516273275754989 -0.8594539665769457 0.896508705337398 -0.45173254102528654
Ni 8.876845822716597 1.149071660669635 3.4006509650797887 -0.6351681531775448 0.27221040499482146 -0.9374990317068306
Ni 4.066078117790177 2.39875876060226 3.6370208919067664 0.3298478530026319 -0.35147622990568506 0.35972767128119987
Ni 7.0698188693221935 4.8313242356419694 0.8309538612279751 1.3280704278417643 -0.6766428753825636 -0.23742672165673306
Ni 9.10684487100731 5.592272502321028 4.598010355329732 0.8068008591576041 0.11758837464014588 -0.12368266046334184
Ni 1.141518415842658 9.069581586903276 1.3676942054624757 0.15306214206672347 0.23328107491947567 1.619693947255875
Ni 2.5143983902414275 9.18734270903622 9.702407252377418 0.6448005340609864 1.0183499417166268 -1.6267372272559018
Ni 8.517390010484583 0.18967240218058054 0.01251040465833826 0.8849896489542048 -0.5449062342664938 1.9204484824369765
Ni 6.555649559235912 3.3045171787099004 12.318599790426868 -1.3004320972992054 0.513906957671502 2.0447217252964656
Ni 6.088555436037375 7.208922937491656 7.701731012813026 -1.8678812498632218 0.8853727433252364 0.7516944051017634
Ni 3.853060153813867 3.643032396930077 10.030589339054638 -0.6636192094293861 -0.8385028182465752 -0.8437064739347017
Ni 1.110409288843413 6.460840791238213 2.451853682441094 -0.1058453751716048 0.21119838408782338 -0.5098492426623606
Ni 6.110163568635615 9.354776017488945 10.229269854405985 0.9077585672196044 -1.2520562770989794 1.0219785396081495
P 2.983888336859659 5.398256527146724 1.5750609523648489 0.5312107390572723 0.29448747122546703 -1.5764850159685686
Ni 3.8845716328377935 6.194538617084184 6.047398481658126 -0.26800099489916424 0.1282106302406824 -0.014874346008671158
P 0.5945473569442082 7.163804644542134 5.933128677775715 -0.05410320960230683 -1.4867625145007555 2.185302961287359
Ni 1.8099348612091468 1.8294763674987957 2.887760951544709 1.3079222350286634 0.03102678739881753 -1.3910717112646493
P 0.9646847009950991 6.060765713241753 9.172961367463111 0.011306683262070849 -1.0177202785524277 -1.822563499763029
P 8.514664989953785 0.9506115244954407 10.195998085274079 -2.7680290946151036 -0.15514499273768118 0.04254327267884931
P 7.903135634258754 1.7597780235869078 5.278491874818151 -0.34660861740073856 0.11842758271198958 -0.22335353139311856
Ni 1.6723487574964375 2.957872620718315 11.366616611301831 1.3204766746549066 -2.142571998077736 -0.07241512053761723
Ni 8.241083901898698 2.9993788898099005 10.897612230422476 1.0981217597296313 -0.15126571228793304 -0.08280854795679932
Ni 0.26812007375645386 1.3013161801906301 8.301441277783034 1.8272675901069175 0.6407204504543417 0.34634996442271315
Ni 7.009045424866879 7.022935714082592 5.686667945057007 2.1667997602768487 0.2808125448415357 0.4135552586246168
Ni 7.311705591069408 6.200912238929708 9.865621351189505 -0.4812930282912227 2.012920778735785 0.2597061018802237
Ni 7.454641147837543 0.15239540153025094 8.369778940302362 -0.9470044000941045 -0.7217860475781053 -0.10804546814671714
Ni 6.978622125182432 0.9641726166000497 12.242018483583665 -0.874002810925398 1.2701797261725676 -1.5703220816909667
Ni 0.27280198822547597 8.09374076158746 4.146992938826484 -0.42181672730246067 0.08154613630460794 -2.451577717524036
Ni 9.542144039891804 8.261576422064866 8.988226007512658 -0.8996415945394247 -0.45553828792462187 0.06769328958191569
Ni 8.942465780196486 6.329738041741395 0.2730150519112733 1.0019601875046937 1.1808459755027405 1.164893308828226
Ni 5.409879014041505 6.876397277820717 4.158276169809544 0.806706756781901 -1.2784267966727079 0.16834195104392943
Ni 3.3763004376587746 5.932561727195482 10.555792238981391 -0.8606785830126662 -0.7810674589472419 0.47394610100784823
Ni 5.332755446401401 8.136234622012354 2.1865217253283995 0.39647696298609136 -0.9929515562481803 -0.6394408124109697
Ni 8.525555927712778 8.961504346455282 6.218977844837911 0.3617886675752866 0.5852920942827081 0.8995552054732056
Ni 2.040875779012182 5.636147161739715 12.819310425287552 0.11049418679752583 1.621321455556969 1.2123203919619379
Ni 8.093082367365254 4.748494584742746 6.577660958295254 0.6182559508032385 -0.2860380549065332 -1.3256934429691556
Ni 8.250840938497225 6.479513582929117 7.923472700233568 1.7262389195976657 1.0872776179262758 -0.9787258995671014
Ni 1.1513943291757514 2.860604018751541 6.781427569013146 1.3054313502860098 0.058618323863840985 -0.769016955540611
Ni 5.99114966860764 2.534195938728601 10.145942750094427 -0.10298990800068071 0.31812645080064567 -0.4487971125460465
Ni 6.569923911747909 0.9686442106925337 1.4221388354568327 0.3490136272978054 -1.273434228554123 -1.7689709112485537
Ni 3.7283127374341793 3.058552070530686 7.570182932779799 -0.7897346477039368 1.0813450544919248 0.5109249922250426
Ni 4.041790686482125 1.3060895383016256 10.922639440794091 -0.013117511218564505 0.3926347064218657 0.6909299814291971
Ni 0.8438263827085268 4.859342567542524 10.983307725061136 -1.0181524809938403 2.6968812708256844 -0.039283113870338796
Ni 1.46506430987184 1.0567684484619992 5.037892679549918 -0.8340838632432732 1.43584104506054 0.3976005350675733
Ni 4.619805947394018 7.779266076842007 9.505707406311206 -0.2706715997527919 -1.0111307982603683 -0.005336838831881131
P 5.902604790085099 2.952962097144361 7.93080648031981 -2.0717239649169223 -3.089327001165196 0.9001694420184367
Ni 5.073713897420036 8.661715510610708 12.858176716435374 0.10090140090276817 -0.10561166189424392 0.32544303906671695
P 1.0293719333268618 7.956310112066105 12.802580810988577 0.7904594416851032 0.1442949373970547 2.341528331573413
Ni 2.3898704386024754 8.220106730430071 5.2094180909809396 1.7361464085193647 -1.5657154361568906 1.343013679415158
P 2.2195292223350056 2.303117855462606 9.2791475533951 0.8717618374100212 -0.9087522985914415 -0.8615766693469031
P 6.644020694838704 5.081166554240842 4.887620599386282 -0.34437895673927144 -0.7045146620921673 -0.3409825294632128
P 4.215323285854455 8.366389124494422 6.604174127848931 0.2717607190519126 0.30435767915132744 0.6628159968018005
Ni 4.7633541765633725 -0.0706310690600137 4.311251324029904 -1.1259966317630286 1.2244824812457686 0.672382557444313
