# total energy = -340859.47779128986 ev
CRYSTAL
PRIMVEC
9.41758571847777 0.00000000000000 0.00000000000000

0.00000000000000 9.41758571847777 0.00000000000000

0.00000000000000 0.00000000000000 13.78358864314666

PRIMCOORD
 96 1
Ni 4.56010805464523 5.225921953010746 10.847022757779424 1.1630382578973582 0.3970788582361484 -3.0368037344554986
Ni 3.661755127744073 2.982398741000368 3.232252001026483 -0.8420748518685498 1.0062212767738927 -0.2661932522664641
Ni 2.6377904414630198 5.142990692469483 4.2330089306243845 -0.23582389594598743 -0.8081121217698599 1.9055150010555955
Ni 6.517035295636791 6.4172371389304805 13.661507827510363 -0.5262996749089001 0.9338835464414303 2.458526380927727
Ni 1.782042672714108 4.114458477076176 13.741301148463576 -0.26404201025141627 0.5037451866471518 -0.7077529665238069
Ni 8.675235180313097 2.9210902574523754 6.745412693008092 1.842622475296433 1.2533405431280416 -2.5775669146333673
Ni 5.021258978438554 7.652155747097099 7.306873148416582 -0.43720323706085995 -2.486026900340841 0.2254510373520956
Ni 8.142811967197007 8.496225709455917 7.024033852372771 -0.38088630763668596 -0.8143722437469587 1.0767178401325586
Ni 4.475217936257887 0.8964628174314058 10.68746436863039 -0.5811197080725734 0.328658203569905 -1.4697071016803656
Ni 0.14913594694587576 7.138266342832384 5.908983218007567 0.09236919506204093 -3.4979341717559183 0.3721499562049526
Ni 6.19253354177916 7.873873969550307 11.339179199297028 0.8367644953992299 0.6067145258225423 1.0357061736068873
Ni 0.6954387980117399 5.382348053123211 9.597085925539997 1.1607949703891363 -0.6363634590372267 -0.2786829000930426
Ni 8.899637414718866 7.454339357400389 3.832458287927008 0.44726550639286844 -1.0726989487811525 0.00576184218444169
Ni 5.210194584727313 3.2197030679500314 9.491861355896614 -0.13043232048234957 -1.7614131535059536 1.8989211498881617
Ni 6.9454318560230615 3.8774272601146675 0.9923931716502865 -1.5519708328772885 2.211734158895694 1.6267454547860178
Ni 0.042654129598397345 4.471234297465138 5.139679469302744 0.4151747965059107 0.7661681732379063 -0.6623956214349301
Ni 6.689800907109589 2.1740214288177233 5.3763989641743235 0.8087795801505296 -0.18732209169085803 -0.25744841619429853
Ni 4.816812608339727 8.724272549565692 2.9191163314690174 0.9140312876021934 -2.623546209576959 0.5610951853215305
Ni 0.960687927301182 7.431011997377598 8.14818187461929 -1.5696201705279353 0.7370995380067241 -0.19358092811637628
Ni 1.7859792235778655 8.000210883036685 3.3783573688624133 0.3591296326858847 0.25072806675132947 -0.8926055136282498
Ni 7.054478081983461 9.036211243968173 3.899859949486606 -0.3751830866043216 -0.4509712373792298 1.2461687079699504
Ni 7.031000040587894 3.8136231163300827 3.4805353494999944 0.6697309787540789 0.20646164073378637 0.6366696774237358
Ni 7.931547264980093 3.8786138759252737 8.723026602964556 -0.12790518318512165 -0.938637516186648 1.0755377037815284
Ni 7.9110828510400335 5.812797647213547 9.9771401345056 -1.8380803644517054 1.1309838005649748 2.713198519928469
P 0.29152796070147236 4.651496307233512 7.540973612677608 1.0585432261060608 -0.041293716542464366 -0.8633784984423324
P 5.486384123438829 1.0578209072265263 8.395570552441947 -0.9098455316556201 0.08609467490723882 0.22132853054328977
P 0.18755687172786412 5.514137748786899 12.701935884126298 1.6971641137188964 -0.09539589770350668 -1.8122456627767887
P 1.9428102798796651 1.4097560885150782 7.0117947578690885 0.6054657410171057 -0.4504369621423146 0.3380614991616759
P 8.697385342111081 1.9758754236180676 9.907644001864425 0.531470163366246 0.5311911986732465 -1.4835501782110452
P 0.8438542996440334 8.536523559087538 1.125774439313914 1.5243404727545296 -1.098770963277856 -2.110621156202752
P 7.406724043603362 9.262751270350194 12.932341829478588 -0.9997667793978007 -0.02796486064404216 0.21552837892174495
P 9.509124732423777 2.7480797887488166 3.742437468796663 -0.8057351368972512 -0.14607054124023877 -1.35301527071256
Ni 1.717824155154391 1.4397134289399882 2.862424348479432 -1.5202287645790011 1.12354791311222 -1.891503260157536
Ni 2.229801789502018 -0.2535873327952056 12.98886806295812 -0.35805979666047366 0.17812319880040936 0.8112082441966803
Ni 3.9739292617915147 0.7148870544441452 1.4270420672481567 -0.7600486906037298 0.3024355224279501 -0.31832802528849047
Ni 5.994670064153459 0.04184892601262878 6.472456211501188 0.34821658531780675 1.4615153098981928 -1.0991293750585394
Ni 8.686705799815623 5.4128704486960295 0.8328253649154536 0.009454203434364363 0.7126200648081211 1.2748434501968238
Ni 4.1107573658573795 7.532392308498049 0.6662763018282203 -0.12498158178042344 -0.07856494218909695 0.1376247244657307
Ni 9.041475674429513 0.9324483545259117 0.4929079648643201 -0.07868141316230322 -0.6853712563944969 -1.1260405976270866
Ni 1.6122436007678254 6.591085772770103 0.6231550599742192 -0.5543162147264841 -0.046039715867882 -0.16640282503968762
Ni 3.6393130207863362 8.8087577117637 5.838617842197192 -0.520603138744755 -0.3560797901159674 0.35987062461696734
Ni 1.849755114605055 0.3753680182722868 10.56899396456147 0.6005773025765527 0.11046847576591297 0.23906117193636248
Ni 5.0718125790047015 8.363899211401717 9.452219911995146 -1.1440372913148233 0.17034226930340987 -0.19233959951010746
Ni 2.853905200366142 6.606351679349411 6.56268327576052 -1.5268323859384478 0.36367251486156077 0.490153049785014
Ni 9.225551806446266 3.161747244946292 1.309725317439547 0.9072800849212891 -0.8596270018197002 2.576600179844724
Ni 8.735413553565275 0.37134482561918347 11.369338076058025 1.78356397857138 -0.7184387283724272 0.9392885195070856
Ni 6.406190310788884 9.465144606744955 1.032149510098497 0.5620889166933675 -0.18299286818788485 2.2101912398886063
Ni 9.326423567933599 -0.03339946803424804 2.6093709927989988 -1.3185424337466711 0.6294397353341997 2.6372329630354323
Ni 2.9417524406942026 4.214510908599044 9.131779021133813 0.622935872777411 1.8131733167973805 0.25673879172178365
Ni 1.8606418437880778 2.3717718954138434 4.992774548432524 -0.06450075078654698 0.03634074341256322 0.5244014294449226
Ni 4.250062294988241 1.6927168714156893 6.54497162214935 -1.0066848466738725 0.5780811783565656 -0.15216508417375083
Ni 8.276692366907954 6.234940930629638 7.806693621256973 0.7245715807430425 0.9714440211937077 0.4030600155202477
Ni 5.063619279360039 -0.11063403092602064 13.055167866979298 -0.7674843209461686 0.9908095702045129 -1.2753625559250876
Ni 7.022043916493556 5.121716366150756 6.4410984760680465 0.665878180666892 0.3118303333792888 -1.9356521867606082
Ni 1.063123008031061 8.970269308207337 5.485454607720521 0.7258810435830853 3.0738808418134544 0.1912507373213029
Ni 6.701299779369513 6.456659153082846 3.854525574969966 2.3094301654872877 0.33014018743207013 0.8499982204806845
P 1.1829052818017083 2.0802411094366313 13.24187998126104 0.5367100716089467 -0.33976485500602777 -0.11885592849865981
P 6.3702057154529586 7.533268143977306 5.595172307548351 0.9399842600225295 -0.392161366329873 1.0501251772456948
P 5.1164236829320195 2.576453705157632 11.670330710486951 1.3382576527874115 1.7759928510923413 1.9786433456101538
P 3.377428794902685 7.040992099120062 4.429769608953086 0.7444991729049049 1.1010913838809167 0.3341367101859729
P 4.970309839268871 3.610109087225303 4.9592385254041975 0.4429421964271662 -1.036861113146937 -0.4363709709675517
P 6.535465511044382 5.845175307188662 11.749682346666217 0.29183306432175543 -1.4985775048578125 -2.4103045698068617
P 8.57922289309777 7.914501434684875 9.636148187914863 0.4428200690270051 0.28308642847737703 -0.270973704374243
P 5.20818863895224 2.4980240506280347 1.4504334668543781 0.32511085253827876 -0.1911548351733869 0.20315134541363075
Ni 2.4493728023931762 5.584355268500238 11.352356285346238 -1.1252052462099846 0.7054680271443721 0.5985466452997692
Ni 2.7543048129616006 8.91285028759411 8.45705891187869 0.4981301544532195 0.4370039765658603 -0.9350310297823121
Ni 0.23895428798155424 0.40367068887240676 8.662433855937246 0.23007336661545538 -0.3306351247906177 -0.14572704185789095
Ni 5.095488389702037 4.606979379164179 12.844071739548177 1.7189362152886654 -2.184828849864418 0.4470515906098494
Ni 7.37561775771104 2.806431150356092 11.263604015022944 -1.6336275266178317 0.3933764696838967 -0.46611374944762307
Ni 8.657181668337444 7.359730290469033 13.211114611974622 0.28050375535186534 2.1190116942592923 0.2517477662650955
Ni 7.10356253916505 0.29669821530482837 9.769669777606886 -0.6698212244750399 -0.6181425651538258 -0.18603062657294414
Ni 5.983821005313629 3.334428098146904 7.33395812517296 -0.4981216698127873 -1.1012559344832389 -0.9769628941294077
Ni 4.0412084947357325 4.378471077350279 1.0495758108599724 0.7582838853938231 -1.4152776190868914 2.8965647122953726
Ni 2.0681300940998084 4.352318441587949 2.265663956222564 -2.529200607514838 0.19069383637656837 -0.2592579585992116
Ni 3.5570598264225626 2.3004619357478835 13.521314820038706 0.0950840228900427 0.01824891890785889 -0.9865286834409718
Ni 7.539408409917904 1.4528227083714482 2.734567436645183 0.8894690248817971 2.1280205826261223 -0.8036502293437644
Ni 5.291929811872171 1.6063481920579874 3.6340570661522142 1.8602957242064802 -1.0395898249320097 -0.4436682759599133
Ni 5.015815613847042 5.2203279070464585 3.275256464816583 -2.3197765417186176 -1.4155771526051815 0.15274512504693694
Ni 7.559279515952659 1.4619671841817554 7.737224799614612 -1.7016563451622955 -0.8932459754257261 2.705082318579238
Ni 6.935496303005683 2.155779565126101 13.58940584887875 -1.1583979309118693 -3.218864577747418 -1.569247360569549
Ni 3.3131255190707813 0.5552429652643448 3.9622853587102957 -0.3069334102983036 0.12261642398235655 0.8596030905603003
Ni 0.75970157822471 7.486406237044155 11.30546518389711 -0.14282478060943143 0.0054332552004293525 -0.890080433213551
Ni 2.623541634149946 3.7759998610652237 6.8103742580873075 -0.5418011129786089 0.16754362351235016 -0.22368623214218894
Ni 1.0905281827045874 2.7382384115894234 8.790125018261442 -0.768850862276392 -0.12468487647561108 -0.5556570450250947
Ni 8.655335821520945 3.564094763014014 12.950563916240034 1.0350083762089144 0.6155341809967012 -0.5923294607454638
Ni 7.743798274501939 7.569403420686007 1.7937411977929585 0.14582140134391017 0.1128140931799541 -0.3989146258933065
Ni 4.684062318924596 5.284697105978951 6.199817102635692 -0.18524284056432613 0.2813072250897672 -0.03238278720607972
Ni 1.1933305492806063 3.43951893807195 11.404789636037759 0.03595944881374453 -0.6091025664387446 -0.610811064489419
P 3.3862719079674415 5.698449320448613 13.473430163287842 -1.0016038326065395 1.7963917264636675 -2.124826758279173
P 3.8325336286133957 8.466164775587226 11.509241021887089 -0.8238755552517038 -0.8562020352985512 -0.19178552677885033
P 2.622138413865975 6.748952763509734 9.147878384056284 1.0386526578297208 -0.7887820539826803 0.7904062198496646
P 8.394289760773356 0.8118345079292602 5.94742580323689 0.6586510667908334 0.0423758938630496 -2.1012366296640583
P -0.08893402972920283 5.4087267109447055 2.926972481542095 0.3013214634281649 0.006572768121511262 0.5952265797876006
P 5.0810983186019865 4.99561489230934 8.375253052840344 -0.4291636545858351 1.5072668051016944 -0.10635831025228135
P 2.8010913792083634 2.3647746291655856 10.10837419260718 -0.4246374845807074 -0.45679967113554876 0.7880932554457718
P 5.70729243351337 6.792970559531748 2.0001087553946717 -0.4131793633424368 0.6581353034966795 -1.2064659900636898
