# total energy = -381161.1595228407 ev
CRYSTAL
PRIMVEC
9.37488404463998 0.00000000000000 0.00000000000000
0.00000000000000 9.37488404463998 0.00000000000000
0.00000000000000 0.00000000000000 13.72109042714087
PRIMCOORD
 96 1
Ni 7.150252032191662 5.309681087170875 3.6943895384010133 -0.027864330510435884 0.07594858761217242 -0.13749102710134387
Ni 2.4220668651899113 1.1867665457657075 13.532109522419113 -0.16048465978303975 -0.0330553877930721 -0.03750056804861929
Ni 7.119980532260565 8.42582685260812 6.48277623982741 -2.9496839607178558 -0.16994451964435894 1.3155064751338246
Ni 0.9488694933496352 1.2717029933890371 10.726393348207758 -0.06083538611981782 1.7603394608258005 2.4042200541756786
Ni 1.035062175408012 3.5818056208344204 6.0130204976789505 -1.227182396675435 -0.3581955509073896 0.7637335956544846
Ni 6.428039105529581 0.7857530768890832 2.2617704137895247 -1.1470082010176892 1.2161032560431377 3.48191594195079
Ni 4.745453703041725 2.55789018231649 4.486165040671247 1.873300363996264 -0.5816364998079919 -0.1545361555090887
Ni 3.842408641919776 6.144580117633444 13.302418305831376 1.4761150620892385 -1.5159918436795181 0.3896594258436257
Ni 6.37400227505487 4.250187964466352 5.875041894756721 0.1289485368479715 0.26546254474802666 0.3549906708168467
Ni 2.3585145276139126 7.9426359644233475 5.310322329225779 -2.64353833642817 0.42715279480339335 0.9668934257085477
Ni 3.624198845575336 1.4131793654733276 9.891163384345509 0.8196687162592077 -1.815465969486299 1.0734746506049127
Ni 6.0208691504328415 5.4105923368637585 0.9731054430621994 0.3303993546307277 0.4811122797389843 0.20580652364829072
Ni 2.122342453825069 4.802884241467831 7.96167635350977 -1.1901639104695567 -0.45054777668856605 -1.4300635191468147
Ni 3.4096358790460704 6.737954015632455 7.049663278502999 1.724561531895243 -0.3438421103991949 0.5822594781039714
Ni 7.9330829577866835 0.4789318784546091 8.03977663583432 1.0144927727540656 0.08748178506275256 0.6950920832266868
Ni 3.1173082510338554 0.7004013219114804 3.038439228234126 -0.5123663526572595 0.5616068348506263 -0.2419726891562026
Ni 7.527844228761733 8.51824445753867 4.251370137319033 -0.4336707984275693 -0.0028858061882272882 -1.7163910802693085
Ni 3.301909088798865 4.600311751374574 1.4470536332655324 0.3286193799121695 -0.8250369225496564 -0.6251004845288977
Ni 6.03430335898077 6.7441133143177225 5.155246750637914 -1.3983011391335531 -0.014494851182065357 -0.07313554364340953
Ni 4.060946559198742 4.287209380764864 6.283902141410467 -1.6877394779708867 1.562652995181483 -2.6592256652564394
Ni 3.5000191341825517 2.858823953697162 11.955089999452506 -1.7617368553939594 0.7925230090823513 -0.721037599447855
Ni 1.5380434433866972 6.875727308598508 10.08276444787656 0.8348927322978138 -0.09062984377343102 -0.28998495536942315
Ni 3.4989035230051595 5.931732754847563 9.194296393643079 1.6965519340561943 0.3867723341038178 0.424208881683721
Ni 5.651920596766601 1.235094071979644 8.69907471702177 1.0144966294088076 -0.39905526523622886 -0.2935929844356557
P 2.832893024985668 2.2092007526363435 7.331851032149939 -2.625555526697504 -0.1225824854206276 -0.31207381684866253
Ni 3.146886009560523 4.027318850851626 3.8351815439647177 -0.5623853648878637 1.2768550813102137 -0.3799740802350617
P -0.10737148214953177 5.099280569068183 4.35014860093749 0.5464003023135171 -1.6790805167443084 -0.41891703715716244
Ni 1.2975120486105634 5.891598877112964 12.560725308030605 -1.4982746289054134 0.49066315665221305 -0.7387653557449212
P 8.784631781955547 4.409242243757456 13.12560893402881 1.8103759565579014 0.4949494427323928 1.2550819512991804
P 5.537828260389568 0.4876514579175737 4.477287963159709 0.22013862400024667 0.7308751543635671 0.23130081126465324
P 3.9586759513485323 9.298553539379755 12.38971898932725 0.3377941044329021 1.1528533469445565 -0.5906096498408797
Ni 1.276324811123949 8.429736179170915 12.161139633963366 0.7708928324070853 0.7473263579410548 -1.4396393357607076
Ni 0.7817181268827829 2.6988134362540057 3.7567662655430203 -1.026991933662341 0.1220366402194866 0.23239687254230945
Ni 0.3959688438803645 4.131380061515969 10.43340760334972 0.7741409070307378 0.6468291344552408 -1.5617186562926717
Ni 2.996522247592467 8.17078313764204 0.18026214152217535 -1.1589496896502816 0.6434872145662014 0.10448937536434262
Ni 4.161810934472407 8.236341700360576 4.294138357413694 2.232576292452026 0.9493698150024874 -1.839621226576264
Ni 5.305753010840392 1.7332378998950135 12.049779138738367 1.2430553591519495 -1.9997711287277042 -0.5454898746841057
Ni 6.169779805405134 9.09926225863177 10.419933082801265 -0.46646187681566115 1.5655516568855168 -0.10558903618642461
Ni 0.9153627210041007 9.29761605099539 3.889531495559805 -0.07677442594757745 2.057018540385948 -0.6435491781523884
Ni 3.5198095139764645 8.24233225113666 9.561624029892753 0.7076609210306329 1.434019418470769 0.0108017186011943
Ni 5.4113610773389365 5.0339938779811115 8.126397750084353 0.5572624418390015 2.2213642257862904 -0.8167898520495159
Ni 3.1598795985678003 5.340899450370178 11.28772295574084 0.017059783695764167 -1.403945481903524 0.08389406771149423
Ni 1.8087244646039595 5.6795483794537915 5.559662364861392 -0.4707437920204667 0.10843858982007777 -0.5517240285192756
Ni 0.09974407665435062 7.837627890490796 0.1805452630142531 1.1067395833056293 -1.321603589170498 0.6964434550482587
Ni 9.198279781788239 8.355008980053304 5.961305825932309 2.4575781580818448 -0.9643709163970101 0.8792146941436406
Ni 9.172508226102087 1.2378409129458288 13.660607305310277 0.17649260517552184 0.4687822974187216 -0.7695980248550617
Ni 8.82286255826989 6.349758825435232 10.577218321511076 0.0989728164214876 -0.5520644425778298 0.3289204560923561
Ni 7.65179894294227 6.415729883042888 13.115509371664062 1.395697640072435 -2.1096420801189346 -0.22902795607007656
Ni 9.32386572575757 8.68352365970195 10.232969774307659 -1.1424776601371873 -0.03045034607005723 -1.255828856767534
Ni 8.663845778514158 1.2699405152264338 5.804776202860294 1.095155992233088 0.20553450093382666 -0.21331594465145845
Ni 7.757819504329934 8.629711826439486 12.39411018491961 1.0463016897345463 1.0534228741603602 -0.7918617213492685
Ni 8.143033481464881 6.0953432276866755 5.810401133166475 0.5356775165793741 0.1825562948710985 1.416745976102302
Ni 2.420304387027308 7.4252080004416205 2.5557995832193594 -0.23382254924524248 0.8919611951760315 0.40364185616564674
Ni 2.5866429510649174 2.124386178502981 5.087245093189725 1.3734920505096733 0.15155444717294544 -0.3390822271167064
Ni 7.157733189498882 6.472822925650624 8.227549934292016 -0.9114239318863336 1.7264096408475753 0.16034376332980127
Ni 1.9258730131140178 8.179323656823591 7.877017402448211 -2.055937648616943 -0.7692270146688882 -0.44208267664034834
P 7.479066708123302 1.5188155566234023 12.195291398317343 0.00011492831130947949 -0.28252052867157795 0.7499725373146503
Ni 0.3577193177983352 7.179192298616961 3.8822865853254442 -0.38793730094619644 -1.2667406185840313 0.029972377992374184
P 9.131474359518498 7.718763738237352 8.186742939897444 -0.20410188225235817 0.11151080098749828 0.13106121231560008
Ni 4.540846863154399 6.104343116176564 2.7388807523133156 0.46688867994043465 0.5023020264427219 1.2261339008062626
P 2.0293904805154312 6.280872178952205 0.7300043926245255 -0.6309587430818875 -0.1957825637533854 1.3570200209965793
P 8.333906116521282 1.0416152192147126 3.523163847415717 0.435739765141456 0.9244612246862659 -0.10736721113276991
P 8.15254898856617 3.4257981787924967 6.846014551744493 0.5255833655681658 -0.38671217028984367 0.19160683510914098
Ni 1.1832697140920319 5.261053564673942 2.572718436091967 1.3025136624185825 -0.2299874917698684 0.5156761337567829
Ni 7.813496939477281 3.0174469883314594 4.382227578473639 -0.1869451679674135 0.5644018810972603 -0.6114175877251663
Ni 1.540762159701351 0.6022603503943914 6.209451501366243 -0.7578475691873529 -0.3992470695320608 1.2700781675976964
Ni 8.88572115444146 3.980106935815081 1.6445683735251484 -0.6059570788312273 -0.6834794386884229 0.14443120586460287
Ni 9.11734640956614 5.416067269028441 8.315694467166637 1.1697825185997273 -0.41652951076159234 -0.283444326037428
Ni 6.285831492505487 0.3698129179566239 0.17423034125718082 -0.31698770921051217 2.1617639976251546 -1.8875339910971427
Ni 1.515853093328814 2.868789455222945 1.6694043158037055 1.317166893555383 -0.9687543901766864 -1.4934404407415633
Ni 7.912120717512317 1.6558576086496535 10.12189708801666 0.23294014664028917 0.0530966227146634 0.29866628519350497
Ni 8.432811141071626 6.183467135816841 1.9815176361679114 -0.9301870714264495 1.6950804917169902 -1.0651018531601848
Ni 7.757088263390131 4.234344410770609 11.341153231230868 -2.568840076283331 -0.3685887212162555 -0.34995310839293925
Ni 1.2912496262030153 3.534246835095662 12.261413391554882 0.37658228094469337 -1.022613087868355 1.9037553380520114
Ni 5.226178996775621 4.092014924256548 10.133821002777378 -0.05307888210285052 -0.3096677785103312 1.9748954485319472
Ni 2.8718362924721266 3.4049671868919402 9.62003424368052 -1.2629091606530831 1.2534277035252093 0.7424476896925148
Ni 5.858046167836595 7.649042727092241 13.630448303985304 -1.1508103483725987 -0.9006870050848035 0.29842845815108604
Ni 4.544156197151202 3.067677615965654 7.9402434940664515 1.5087601018177692 -2.167807375605757 1.745524507300155
Ni 4.488853757357601 8.632111796703455 1.7469008556087267 1.3121190467188306 0.24372978105662538 0.9841025904979825
Ni 1.6161081011526426 0.8322553132186641 8.76101176211151 0.5232326059478021 0.691827296432486 -1.7300112421559046
Ni 8.272491252461633 9.099384132121736 1.524646734374143 0.22300746090760948 -0.4850602086431388 1.5648410039717373
Ni 6.508597482397932 1.7279317156395164 6.177935016860711 -1.6094056779559893 -0.2084511603599894 0.7286326381862935
Ni 7.330784170368533 3.5873274274183213 8.935777409236163 -0.2781339695681081 0.2741107073413279 -1.067085202138801
Ni 4.474369561819186 1.991815946070144 1.1409018015374939 -0.10286752349020348 -0.6993251474714278 0.6765996808494541
Ni 0.38599490495912164 3.0148782701583037 8.449694369385629 -0.14375911949824274 -0.9622083615280524 -0.7285411069137517
Ni 6.197866957400663 3.587430551140601 2.508050487338575 -0.8542528819919805 -1.0238083937280367 -0.19424915782799448
Ni 4.611036618491692 7.467976220536283 11.441468238311295 -0.8300675429950285 -0.3031207214204328 0.23185411266496198
Ni 5.13184891554097 3.6051397067212267 13.43759850592628 -1.394341640265173 1.9373421728685214 -0.6685207604960616
P 5.149914316707654 7.688829734124627 8.195552518245307 0.3865733307191342 -0.04959272332646298 0.14560465734741374
Ni 6.764147441091569 7.061781253359281 10.849719007682387 -0.019254991574870064 -2.046061784264128 -0.009476572031867551
P 5.8026593540884015 5.321034071505516 12.065708941365472 -0.7601258236985684 0.42688231475082605 0.007315302714490628
Ni 7.206716957581873 3.2600877319724106 0.3243812933619861 0.4625751401667453 -1.6303056613334503 -0.7600746587456587
P 6.3227497850817205 7.524206773830403 2.437346050878267 0.34922574330861145 -0.5748462163590358 -0.6155760899782302
P 1.0865396625934096 0.5915514205798076 1.6561491675371904 1.0336847723014844 0.16634471810824256 -0.16715590115562823
P 3.895498609126278 6.251331919960911 5.051598034862688 0.14207273293475534 -2.0334847189300653 -1.4599770188767953
Ni 3.7770657015296423 0.2718631940699449 7.06018658561748 0.9650694851259316 -0.7763934505103403 0.18456149822658538
