# total energy = -340898.1559191167 ev
CRYSTAL
PRIMVEC
9.02431867231082 0.00000000000000 0.00000000000000
0.00000000000000 9.02431867231082 0.00000000000000
0.00000000000000 0.00000000000000 13.20800256904531
PRIMCOORD
 96 1
Ni 6.423889114800226 2.1432666811960224 11.362792285220921 0.2344144171929705 -0.8888411614898111 0.7466558142365916
Ni 4.668162778436317 0.4569554047345117 6.0547863556267965 -0.47318094070704964 -0.5434705302612317 -0.3752116258494118
Ni 2.6330706062171605 1.4576169904440133 4.980288696254341 1.028395498878087 0.26071217454723483 -1.2147850514523466
Ni 3.4092883600451542 4.443962603161331 4.901278078214368 0.5681150682827892 -1.1602858919632015 0.2566781136871773
Ni 5.141154397607459 4.5150922836281415 2.5634227188907523 -0.08572752137580719 -0.007832351560225222 0.3243696034968801
Ni 7.257979824836499 6.017117946690421 2.450731538374475 0.5197724153133435 -0.10371110243742139 0.6632916508866382
Ni 4.94988396148794 4.4520483927703465 11.558058689687396 0.37889781645174747 0.5448956927435326 -0.6696535885489242
Ni 5.513669251704068 7.993543022650412 12.379874521346233 0.1263866896580662 0.11242508527165153 0.4679142929914715
Ni 1.8053600895442519 6.476302358158668 0.5619632802584719 0.1996839556903206 0.38746370374388756 -1.3432489353544155
Ni 2.620093635840191 1.5659539371585607 0.4128400224759474 0.92702050077301 0.14173206176588493 -0.2891580885927536
Ni 0.6376096322646937 0.0015476706673506744 4.764932353364216 -0.7308201327559155 -0.38479309889025987 -0.331087638947004
Ni 8.636733293636329 2.23712862061943 1.4753073625093633 0.19057273741767178 0.6765647138464606 -0.18095012672624322
Ni 6.78989743507083 0.6740606606003371 4.7883766310709825 0.5174347683191023 0.2615498399571818 0.16342471624797017
Ni 0.73944365488074 7.5332395956559175 2.6169279048191614 0.2305168819107772 -0.9576986465831571 0.0730668951890032
Ni 7.499217913930483 3.8261487165287096 3.9124879838337288 0.5227569518629642 -0.021174320084769986 -0.4493000203243939
Ni 7.650456472030365 4.0307119741818 12.664929287747825 0.017296325186602467 -0.331263502403236 -0.6064972676054136
Ni 8.04415140225684 8.789469888650382 6.928654457893671 -0.7993857976404556 0.26576156404568424 -0.3331098115833553
Ni 7.039103997629949 0.6634552811935119 0.4391567408440409 -1.207545596281114 0.2264141725963133 -0.9520324494363152
Ni 1.7826007576313747 6.531558261926529 9.326170490971936 0.29060022035591887 -0.3027515110064722 -0.640445085305768
Ni 0.28897854019846514 4.812894802710195 1.40842181915541 -1.0318957987218615 -0.614845896680425 -0.7951388494386434
Ni 6.457143729431055 2.0158613489414634 7.104888574095175 -0.25635184069601014 0.5869977641199051 -0.9136867597785813
Ni 3.3314897080146575 4.293436966243492 0.33803383454628744 -0.09986113256371189 -0.24817573264312098 0.28046981679013633
Ni 6.024770568998953 5.630813933528436 4.790528931095256 0.0539186043953265 0.4699004701835649 -0.173127802468347
Ni 5.273622372686413 2.8360816810435208 9.355016725888474 -0.4725893298696377 -0.06240812992357638 -0.8461595634608847
P 0.09233682955295686 5.668698023683177 12.3020659425651 0.8735004173676828 -0.8731800579137865 1.0462099013516883
P 3.8650796276596178 6.251199751007675 12.576237380542056 -0.2627585155533023 -0.8179468484720945 0.003955127993006092
P 2.3663478409447607 8.509508447756971 1.4478878723887902 0.20293897229250857 -0.4831614489585292 -0.24716400354915496
P 6.424827643951272 7.7576202573061055 5.742549438688022 0.024956927055653794 -0.4689378491599795 0.5230726833311701
P 4.746340451854736 1.1589932583547935 12.637615382156742 -0.05342418125741122 -0.6892027143254453 -0.5264477704509901
P 3.931074470751953 6.2073957077463335 8.126805137780252 -0.4452695590087622 0.7261049866684334 0.3983029604512366
P 4.654752640758864 0.9037674751827134 3.7252117111974132 0.19259413872307476 0.7278258260142819 0.4458043484663096
P 0.38918908786957623 5.390848273379621 3.4957223826971546 -0.988938321323729 1.131526303332006 0.36370182543759944
Ni 1.4600174592341897 1.0011218259662649 2.6916059474224285 -0.05567132542037508 0.9113753380365851 0.1161218173969484
Ni 1.9596217944287557 6.364626413502897 4.630725392060199 -0.04868692368274195 0.47989306261990256 0.8176120908404951
Ni 5.970949531913942 5.70394701275998 8.94603098995495 0.8942754451315049 0.19876761452363834 1.742955203911082
Ni 8.608703759567575 2.246189036654532 10.152965039290697 0.4656303820533013 0.682840005332211 -0.15308502488485892
Ni 2.203061817300195 5.271465560502758 6.992580927126201 0.6009030613470877 -0.1545731793946112 0.2636699716239781
Ni 0.6559741209414203 0.003015927329612801 9.169061613518632 0.013788312033343996 0.13004665500815668 -0.16845713646555505
Ni 1.4534206822205844 1.0107417497644913 11.398083688595898 0.2572391283969699 0.6455811209807527 -0.45824797354630115
Ni 4.00166269209316 6.8438448126184825 1.6589251763203499 0.39710739748123863 0.2659626243128968 -0.10982544286527537
Ni 5.550867493633045 7.922936752671686 7.878573201647219 0.17489363611951816 0.057950351262538904 0.31373757770433064
Ni 5.206905584093272 2.72577743283928 4.826494451081609 -0.17170212576541397 0.5346742721258405 0.4248940806762037
Ni 0.7697951461664574 7.309219906756132 6.868637323548001 -0.10761043749182757 -0.1251312199844103 0.0733402034550479
Ni 4.93974062720163 4.600299901360648 7.197304817653221 0.6979290384548497 -0.8440247765060691 -1.5600962901979003
Ni 8.10197923687132 7.358727319473833 9.043387145602253 -0.2353410427722979 -0.8509564706288957 0.16280199506230672
Ni 4.69332257913937 0.30131749123909823 10.359287136670124 -0.33915164690206107 -0.26044966491446764 0.11781437460802292
Ni 8.269885711721038 7.030774551414412 4.626935178180972 -0.32062196352898975 0.23676929057839222 0.005196199488958793
Ni 7.447779296998128 6.0593878557625525 6.9228427966121915 -0.9069640963427671 0.3032204802230907 0.15123794437379112
Ni 2.433597064344745 5.072659818218587 2.541087529959598 0.277933680631844 -0.5139460384395537 0.4484271308011374
Ni 2.207447636217585 5.128610594530972 11.309220319333688 0.8910235138531106 1.0205366649553007 0.5053086744795298
Ni 0.9877297369263324 3.2656392540224832 3.9215881068713756 0.6241903140098024 -0.005626602158158052 -0.6935262814014637
Ni 3.675045523210227 2.610248104072963 2.7426023727355404 -0.4954983732573273 0.11667177636314745 -0.3105193278773491
Ni 1.0230689691907362 3.271712620548005 8.166085290047175 0.7560354556792785 0.2339611317056358 -0.5628931577622177
Ni 3.567430521996485 2.7483021324643953 7.138172968977912 -0.3168103030923834 -0.5583968125537608 -0.30434585207678555
Ni 4.252159732234968 6.94054038813255 5.960956903750925 -0.5122043731580985 -0.07079738242853614 -0.09937030897022242
Ni 0.774393036574709 7.473345192045385 11.475773146369399 0.6239630284903448 0.177362666485301 -0.19820197182815544
P 0.2670783234315461 5.56189521115784 8.068953839936997 -0.7151780553432845 -0.42590375288764065 0.2286579743251675
P 8.642129836254846 1.591817634724899 7.976127892307244 -1.537681669948126 0.06225694905769279 0.6766930118942087
P 1.8356096060279805 3.182119183898107 10.186275604697839 -0.5940824388808285 -0.47439013052380236 1.1439660717572557
P 4.138227707889182 6.160929490450772 3.817574711274774 -0.5712284171007904 -0.28063899537814896 -1.1207502957624247
P 6.790366699646354 4.01907060298132 10.328579184793385 0.7819177227626791 1.0522841325702263 0.1792845660983622
P 6.30838685899019 7.797336284169139 10.214078628365716 -0.24519608118950675 0.40822664732285185 -0.7116384176211421
P 2.4034197424110966 8.211227639780635 5.805142113607815 0.3701450099597819 1.3518140513156072 -0.23548553876996217
P 7.1157565611779185 3.9438438817974415 1.595289290151895 -1.2106003239470378 0.27507178570301655 -0.050276379657048904
Ni 5.432811355613911 2.984387335546384 0.30581701657286525 0.060643324713669754 0.15236974398538922 1.0067041299475823
Ni 1.3514729531881613 0.9749422772433244 6.8738939892257385 0.5529923537087379 0.16892661990280583 1.032630620005357
Ni 6.877352108174594 0.6768744431897246 9.063212671486234 0.05679721149470218 -0.1515729591157067 0.8747774843078935
Ni 2.799569287340309 1.36430553446497 9.110616515500965 -0.302573333557395 0.9599766439840564 0.4693543678721078
Ni 6.36490616738446 2.001828533269567 2.65039729823648 -0.04473719500637457 0.04693163155453208 -0.49320417790651183
Ni 4.177411299945372 6.674458349492115 10.353819301933402 -0.07733904020179584 0.8516175012516622 0.3776456892122012
Ni 8.053356207392104 7.210114838133129 0.34754456408751705 0.8092102399300449 0.14097050100951206 -0.0008302092107792153
Ni 7.705188965310143 3.8505324258183977 8.253614864996646 -0.5936188689808486 0.21439760775141142 -0.34283038130522897
Ni 3.0824726561495 8.390892801974713 12.501797579954054 0.09788318290173466 -0.17373278304219758 -0.21472593762510758
Ni 0.049123879170398815 4.791317656554886 10.226731625699198 -0.8132556136440124 -0.09220567290098314 -0.17366721991158476
Ni 8.508894794081286 2.31107388853938 5.835612725901165 0.4898275481247952 0.7078087594624067 -0.008259668905630934
Ni 3.6152774600623347 2.467880451314221 11.22632653693126 0.03153123783906183 0.2722011490234409 0.7418200834108449
Ni 1.1285903284521441 3.404749127708843 12.43157033136325 -0.8306771515545694 -0.9088487149599896 0.5654416352156842
Ni 2.9494181003511426 8.332018146384067 7.984501557684705 1.0001043652428776 -0.8020255492561477 -0.6712335314415344
Ni 5.684310095138085 7.927665495701958 3.5672437185981516 -0.35593143746356115 -0.5741291356873531 -0.11411969936525508
Ni 3.1605330134240384 8.247505401196083 3.569727211120921 -0.06336946539558118 0.34795407568503944 0.45117872540434556
Ni 3.42465677489354 4.35832181812834 9.249894241516262 0.05355067953294648 0.18436506594506313 -0.33143139543966793
Ni 7.118364589299576 6.321020905254277 11.461416357654015 0.2537799662037758 -1.6013784367761388 -0.3995874835906151
Ni 0.5955373557734075 0.11370190421740421 0.30932747657052945 -0.5924575016828958 -0.6360263874127821 0.36060827411394025
Ni 4.589082673141891 0.31031112731537625 1.526594370886549 0.08925636046467209 -0.0920308378860157 -0.2083030648178993
Ni 5.766395298579611 5.644846749200333 0.4172159146427016 0.39555882204719617 0.20514729279773702 -0.3127255915000485
Ni 8.058057877466098 8.982870063997277 11.277573838305903 -0.9829353096627589 -0.4500628666323474 -0.3840824459764805
Ni 0.07598025180034404 4.867726563496333 5.70126047306511 0.1959175466693529 -0.6000525404213344 -0.02349371224656599
Ni 7.84101398696784 8.870679733172182 2.489879935587501 0.3640522667984827 0.02144685701986629 0.8794327236917177
P 8.472932883822438 1.6566302920596658 3.7002351041651886 -0.5225723466559838 -0.6748366754117604 -0.2443455602637534
P 1.721442949394433 3.042891994067867 1.671882293196047 0.8054332893861161 0.8893592387768103 -0.37485012874493506
P 4.77874678052212 1.09030916827196 8.131282102317119 -0.28854668026099983 -0.591440116161975 0.4176595106009775
P 8.514941087650529 1.7418740070672138 12.369479408566518 -0.007721537013973798 0.5635194784923069 0.39475432386802983
P 6.252607544734245 7.729708039381233 1.4036669056007334 -0.33216698805411177 -0.31506658092839934 -0.30289909232793
P 1.7694884224730043 3.2757645396712736 5.992708969308205 0.08096789520363475 -0.4717375233923037 -0.05310176492098597
P 6.742619029086864 4.004135355433417 5.995693311522157 0.6758165228265264 -0.5412290425252227 0.8739819849897916
P 2.489331257006889 8.377870710003943 10.230575083059108 0.15981051653415057 0.8087582399942911 0.7029876839246797
