# total energy = -381168.8459891091 ev
CRYSTAL
PRIMVEC
9.23160748399530 0.00000000000000 0.00000000000000

0.00000000000000 9.23160748399530 0.00000000000000

0.00000000000000 0.00000000000000 13.51139069800769

PRIMCOORD
 96 1
Ni 6.8718332425120785 2.48772436475261 11.456565261368542 0.055107225386788965 0.37060600875660044 1.5985684781311695
Ni 4.74018121168112 0.9173993064365642 2.319541092505288 0.05434592174073221 -0.17489080790604072 -0.46627032963014536
Ni 2.564706739919773 6.063762940856327 10.964939695164293 1.1864934035965051 1.4389363961564121 -0.04386379126248575
Ni 2.348354785918377 6.376151307960494 2.938308973374334 0.009244401416403434 -0.279433405105822 1.1048004573013874
Ni 5.264961173157626 1.771850127468421 13.260092726904908 -0.41278829855160515 -0.7096954349621584 -0.7010932951154442
Ni 7.980817023116008 3.8987940384606388 7.787925353322827 -0.11191986350045888 1.0610994168690113 0.1456229121798589
Ni 1.2105683898303912 2.2794777621598685 4.334913641248399 -1.60932725930957 -1.1650799709177353 -2.7477096663314615
Ni 5.52453551360016 4.305954088436384 13.269185860318945 0.1597470102860668 -0.08093369953158965 0.025951686868755302
Ni 8.041939496551885 2.896656883373528 4.080966888754287 -0.5149693374977453 1.2022722636973167 -1.722940194241736
Ni 7.957479519287901 2.4227800058005777 9.563605674754177 -0.21420811744842463 -0.30663876187602035 -0.5515044563093018
Ni 4.713455707890626 3.682866738405482 7.954061055020674 -0.027440612709455966 0.6254416699184003 -0.42655758442155567
Ni 6.3633193734980456 4.3814317115766555 9.761331014248462 -0.07842995927312946 -1.4664608268289259 0.6636647179553409
Ni 4.341301913657042 2.9366297439651836 3.4525658254308778 -0.051170352226228004 0.9898266374659533 -0.17282801183974106
Ni 8.944301437487816 6.797417254237405 10.879831659051916 1.506776238618521 0.46628961290385507 -0.10204322781669524
Ni 2.6888626295496065 7.181812160051712 8.596541242983422 0.13798904978368495 -0.17722665512806896 -0.8467177499572
Ni 1.6711886789946533 2.4551090953599264 7.657310107906394 0.3039527304034249 1.7945022227504384 1.7816906728080668
Ni 7.428139143693087 5.383033433427204 3.8959820908079323 0.4202570961248246 0.011127477371729224 -0.8825985230142092
Ni 5.59941308225118 1.4468790793050341 4.961747177613733 0.2584004956949227 -0.040873598285910244 -0.17911718728256248
Ni 6.0582793659853245 9.129533642515893 11.2308432257273 -2.324256174756526 1.1127040284191803 0.9250664623704328
Ni 1.8448444481839457 6.789782714812624 13.152163233825178 -0.6071243596664512 1.9884389915443368 -0.35136695802133033
Ni 9.087086711107016 8.833485220734412 4.239536364923052 -0.381120278024363 1.4697063303494173 0.9052126608692992
Ni 6.537455186278739 4.076982526945659 5.831016575047837 -1.3686882013631267 -1.3878909995438227 -0.46685088472396374
Ni 8.571566051980035 4.633629997605165 10.168402440791949 0.1911787464327869 -1.6766299983212867 -0.8755670700887243
Ni 4.61420669536848 5.979072173404168 6.71966034719873 -0.10952282402319201 0.2686651108457244 -0.5198526337319757
P 2.9166248504543018 5.076922559441359 7.620113191698089 0.6205699436483957 -0.20846273032421517 0.5113949898829258
Ni 0.7849617416943119 8.002834407067763 2.335389916307541 3.5518370924219598 -0.3502981504371838 -0.3438868475942013
P 4.771236339401751 5.637631937412718 11.415003641121498 0.2023692158319676 -0.5760656905884337 0.9707228267569671
Ni 6.137052673012715 8.447197835377082 5.177848955051148 0.899124031473058 -1.0334975959913426 1.547455204395122
P 8.62545094511479 6.3036462624438965 8.69285091166899 -1.6235881401039587 0.8664681931112497 -1.674340688066478
P 2.6718303136624 8.444483742764161 10.38384138880893 -0.7949742988363211 -1.134323149350853 1.4312415986153155
P 6.595715861381264 1.6722964718978863 1.3011046111686095 1.5025827693624638 -0.19815903440536195 1.6831202340313205
Ni 4.343563657501142 6.324500463847257 0.23278513856010408 0.1816101289077453 -1.1204458771481283 0.014305360879078589
Ni 3.073534483589723 1.2957484324814785 4.979028746904167 1.1782774434446157 -1.5251704248549927 -0.2690813724475366
Ni 7.80932145008802 5.877552185430395 6.244573205878999 1.3599058271848063 -0.25123765939789633 -0.8121636661314142
Ni 5.464982413443862 1.87781975027018 9.695206855854488 -0.1781298836686287 -0.7789696958779487 -1.335169757890707
Ni 5.299838186394409 5.885269809322917 4.4844306030762455 -0.7755562993210257 -0.18456741176385633 0.10229159638207545
Ni 6.504036767031211 3.7866946282609906 2.268413680538829 -1.9546829781398143 -1.4096756995190818 -0.38649594051397956
Ni 2.893619684497164 4.435556626507112 12.539894404655099 0.9671428227151925 -0.0805860863841838 -0.7032208829814083
Ni 7.115141490492143 0.18068102251729476 8.947040455441059 1.3162253555777201 -0.22202864193410796 1.425519608529874
Ni 1.9143676844693407 2.252779953191954 12.024070025640482 1.0814484128390085 0.20048099767031924 0.12058730936746975
Ni 6.530762270821707 6.298310393293324 7.938212231218421 0.6201066308587321 0.9212272911300006 1.2559877509429016
Ni 2.598845224554402 0.39101212208961955 8.680176837695251 -0.6956973209108536 -0.20930348105795565 -0.5516836621996434
Ni 4.612489616368469 8.409403634161784 9.491252027601023 1.5583633666671937 0.09699949474520068 -0.7469111247805073
Ni 3.8008282193847376 8.011290559562442 12.442437247153935 -0.42593203502241483 0.33654711939967846 -0.8014174833585036
Ni 0.9881789645063757 8.835894670298943 11.746803309372563 0.7726373259020177 -1.6640182230945468 -2.512718293589098
Ni 7.57378621564564 0.09627366541621256 13.23790640453541 1.8344149997849761 3.115294885983867 0.5782195037066429
Ni 9.036996008665833 1.5006439615419402 11.973943319929942 -1.3224736504802772 0.04759214795666642 -0.7539533763392692
Ni 9.37017395592067 3.0858679112457166 6.052724707736363 -1.5781881147026044 2.117137102944399 0.7262237716344848
Ni 2.406698545488646 6.088919071367242 5.509877567168882 1.0626958148218537 1.481664788262874 -0.556551531814906
Ni 8.1038281934125 8.14481653083212 6.833926415684952 -1.2835270940137509 1.0237806258138948 0.4552891480282933
Ni 6.909969013205872 5.88782696460788 1.1834763912210764 -0.13618233559224932 0.6741681885898261 0.0343656219640634
Ni 0.47605184430629727 4.835654496724748 12.195543442810404 2.478854808072434 -0.9108022391419346 0.9642084226772168
Ni 0.011870924118893794 1.0470119992755724 2.2513896730983967 -1.808119556423557 0.9819369503052314 0.250299206744027
Ni 1.056206680372406 7.7878948890179895 6.41130342310158 1.175198547408976 0.26474057898033765 0.8762067605552523
Ni 4.227014612473509 8.079198264530621 3.9989662117354787 -1.4282179812976437 0.21185581516616417 -0.2971040829127077
Ni 8.023420891852842 8.067658755121945 1.7870028880631426 -2.6235667784022496 -0.5486561882272293 -0.8320084687714833
P 9.082055485004833 6.0774257199962 0.4092777807424256 -1.012263883423547 0.2502218165388723 0.7719313009739286
Ni 0.8360836146962545 1.3632684099335268 9.904794811020894 1.1207335835918764 0.9248193793566332 0.15522135450157137
P 8.946360085966324 1.331040868056975 8.0068907754151 0.022102231215678062 -0.5102349081365536 -0.9330006296158447
Ni 2.6544287334741155 3.8915933845896244 5.144191437168674 -0.4013620589925346 -0.00025916719865761817 0.617987270522884
P 1.4642621962782645 3.787830115986804 10.540357755463704 -0.03214650282555754 -0.058056023602467755 0.18045158982326986
P 4.440218588308218 2.997253710594607 5.681174660635042 1.102877786357378 0.7365598634531701 1.156151558079854
P 3.246737904010195 0.6791158224334138 0.36947293540776016 0.38726161503541046 0.17494814350653742 -0.412297989178748
Ni 6.549880930010001 6.816794398436455 10.355953625630795 -0.9634759153865664 -0.6628234530009681 -1.008221080812741
Ni 3.7419305633628523 8.34397923161835 6.749331656951073 0.6415722569316757 0.4609139504142385 -0.6625637715816783
Ni 3.508223187210807 3.031807617567948 0.7861821602093735 -0.04192929324393424 -0.5524614209059323 1.0267934444982896
Ni 3.8015113583417315 1.6649296490913872 7.358992556994791 1.7540489998313984 -0.6590339040515488 -0.875246453524512
Ni 4.6725319917236945 3.0848432028102257 11.381455056207841 0.007612779350251404 1.8484077145196425 1.328797021595144
Ni 1.82391639392037 5.04223940996264 0.9108134776268443 -0.40153252313212784 -0.8611976887409297 2.1052892024668775
Ni 8.641246225593388 4.26380256846837 1.982512641750963 2.2774230164530715 0.4279272110755727 0.015461071750076598
Ni 5.693132361864689 8.511329812866743 0.34925571492375873 -2.0899790544723684 -0.7906167931985739 1.4569955676509683
Ni 6.460934391487922 1.966193929125589 7.3814078232309575 -0.014266280111027043 -0.24060306250218566 -0.17353197988530114
Ni 0.9868865394526039 0.19722498636632624 0.2807599565561125 0.7025557385935837 0.6265516151531274 1.7236842714966119
Ni 7.590209245436068 5.129515027522342 12.149186002453117 -3.0524062168794464 -1.1794100143871624 1.0323097463308286
Ni 0.9891021252590698 0.9921023977053256 6.156370734923591 -0.03159268720461656 -3.1096469436694703 0.5169711984191226
Ni 3.3889692811777796 8.11131502711685 1.6689943258854993 -0.047259704317912155 -0.12612623690782793 -0.9626999564524904
Ni 2.0918822656048945 3.7366962418950767 2.8577401186829543 -0.1096817181985595 0.8036093488034999 -1.0469475508486614
Ni 8.107576226068439 2.7561425852059545 0.008082272389837093 -1.9096277376723887 0.9183054894975152 1.3401849517171114
Ni 0.8907541176315534 5.128001043887924 7.11930032968303 -1.291449434184621 -0.08760005580817172 -1.9850299658627877
Ni 6.959155018109415 0.38741548779712326 3.289712883369612 -0.03108155189615293 0.5445717337452105 -1.0468778739529907
Ni 1.0461811545981476 2.7557733209048765 0.6169575626330128 0.5503086362289877 0.04792022072004651 0.6816218166543938
Ni 4.718616176498186 5.7237628356390795 9.182732627211397 -2.83997344616389 1.126701114029221 0.5167143452133101
Ni 0.2820016077684861 8.44485300706524 9.019312864447977 -0.10029256367417566 -0.5296444230114169 -0.31223682478908804
Ni 1.2243234850455336 5.571367458584333 9.259679922269958 1.2299134224533528 -0.8406288634506425 0.7546429462071261
Ni 7.293071493966409 7.317239842471942 12.411603678013948 -0.5547910974803736 -0.9687286791450734 3.158755528270663
Ni 7.876029046077697 1.2284130871799686 5.462344943173414 0.0406339714712784 -1.2563196803610235 1.3200475575372879
Ni 0.0449025390110424 6.63333466205355 4.589090260769931 0.9285366803072203 -0.8453121278589248 -0.19008705603050488
Ni 2.2781761054985696 1.1867231475883018 2.349927851840968 0.6481491388182451 0.16487353287935477 0.2396227008667873
P 5.842573624510814 8.826303030078451 7.49421437456717 -1.7415182143542391 -0.6492202603952367 -2.0169309283364427
Ni 3.7513837294704397 0.8177699516843084 11.462671969747612 -0.3491365260289148 1.002682410382699 -0.5638465228144225
P 7.972416260266492 8.733783859443447 11.016552689686668 3.421055101909676 0.9304876333860039 -0.9280916223500016
Ni 3.1692385588215233 2.7087844385927458 9.862018311223308 -1.2011144959437896 -0.5796906889355308 -2.056740604134213
P 1.9776965121041579 8.419216832962922 4.507305603367253 0.7400102838956159 -0.3017744918051835 -0.08562339169777512
P 6.263922655255468 7.362650119896966 3.176609074271033 0.2852746943779474 -0.26455083156703474 -0.6155889454940366
P 0.42219187651186374 4.525370936136724 4.3007705408100065 0.06714538749824564 -0.486602356319278 -0.6036271451464701
Ni 4.376529727979849 5.297982633281493 2.317311659287532 0.08261108723401256 -0.6964473117030006 -0.0848731437953119
