# total energy = -340858.2866083353 ev
CRYSTAL
PRIMVEC
9.31930852889675 0.00000000000000 0.00000000000000

0.00000000000000 9.31930852889675 0.00000000000000

0.00000000000000 0.00000000000000 13.63975004217635

PRIMCOORD
 96 1
Ni 5.651592184957651 4.7941505590704665 4.699739439488528 -0.07492914520872257 0.2600344317539199 0.34241771924784253
Ni 4.048344930841096 8.90513056297761 9.17562349494339 -0.7955790222998557 1.7173470164246747 1.4328706495783066
Ni 8.642931815661253 2.576080559025283 8.644477888957141 -1.3389539075234878 -1.0302556920152774 0.6107257038644642
Ni 2.0876369569515374 5.801204365139516 10.13743019392268 -1.3756276087954373 -1.6841957264836862 -1.558620476983322
Ni 5.946902435711541 5.632897651916364 8.336669513446685 -1.9863710532717145 -2.8593428518294366 -0.041843418398347286
Ni 3.1313529230327624 5.752604170817327 12.374390432489642 0.5672812595275842 -0.0370591096358265 1.4266377812947173
Ni 0.42844123368574677 0.8949108380236749 7.216900533784535 0.46622919197956475 1.2720640876794738 -0.7634006377950981
Ni 3.513211592707107 8.246124975000756 4.674710572395317 0.801708018015729 -0.002008802899912669 -3.4273926140919295
Ni 8.237709639339597 5.041550244338186 8.924624692696336 -1.7985712506134897 -0.6563033924942633 -0.8332040317414813
Ni 6.483694610775415 8.987941939151526 0.7966760061252669 0.5852915800620759 0.9785870599963922 -0.5377215435925965
Ni 5.947163376352197 6.824427171620647 5.984972743252398 0.725480465710557 1.1009779982315038 0.3652082347797968
Ni 3.135034049927732 0.8910181628236022 1.1792625138008699 0.2127757558772723 0.09279934062092404 1.6676424501106957
Ni 2.976792189987027 5.729697310291164 1.4111278435718193 -0.28583288087426256 1.104293692868298 -1.701541673961302
Ni 1.499336963283878 8.401729470609114 0.21424531301064975 0.5663119536357795 -0.4955870763163917 -0.031034243597985258
Ni 2.923709408230711 1.2518068076958302 3.979205912306697 -0.3830843437292693 -0.6703758114269294 -0.16946706578730814
Ni 0.9307137577834038 0.6543021329290287 2.1342251125480964 -0.40900312047756004 0.0808110579107963 -0.03741263632050331
Ni 3.3896561993564673 0.08985863733334871 6.3927055413095095 -1.1155785217534981 1.9791591089043077 2.6690866172109193
Ni 2.19082966102241 7.623669715332937 11.367054251370167 0.23266606704329607 1.8920079677080963 0.5296724480358749
Ni 6.8342031263366545 7.246200440006771 2.352160871762311 1.471705363057317 -0.5849953889778958 -0.8420463126234594
Ni 0.3889748937173787 8.278416379281941 8.420158403355448 -0.849665262621298 -1.8030686242632108 -0.2625805952145413
Ni 7.659120365227781 6.397108914620581 13.61601682747645 0.007495279935780639 0.9525633822391208 -0.016781076113080776
Ni 0.6450014629513595 5.72067621957134 12.22682197668263 0.42418137087989527 -0.1789896605657627 0.8242792184480257
Ni 8.644665207059896 6.124630969924095 6.953067179740642 -0.1945039541512779 -0.04546404587007009 -0.11774495482266818
Ni 4.8296291668910944 1.9951334998389676 5.473290513266512 -0.6059658205819758 0.8954607236888578 0.4311775996920703
P 1.669302513436915 6.26106564775283 3.8320745320727836 -1.0304917192854832 2.76531838055216 0.8860558854351902
P 7.085703307386112 4.695431123125126 12.28919704103888 -0.18516776435201657 0.9375301420550822 0.4885769635471457
P 5.075630955869586 7.740412694100736 8.023882763284858 1.8660040874451669 -2.7839503938310504 -2.512913697429356
P 8.825413197257186 8.181532847129787 1.110645376547783 -1.240072879484858 0.8451416637193316 0.5899031106921583
P 3.7571351758689446 1.8992284950892746 7.925458749421973 0.23236653352500627 -0.6644774436646234 -0.29232028837081914
P 0.11699366816899945 4.534188445816876 10.392070981968606 1.3701308473469243 -0.5936502364394163 2.8469676180935353
P 7.906054085065758 4.630811037328374 5.463360789958691 -0.9825352460108627 1.5044373060726994 -0.5646425363531566
P 4.61392445015449 3.2233065409382355 11.63181487661925 0.9647714942695383 1.7234389882550256 2.2688535296165053
Ni 6.557652643784215 2.1643535053044163 13.040447009349366 0.2946101128462603 0.8321030853678186 0.9062305606108523
Ni 8.066355512205927 8.981409103826529 9.98975270220511 -0.4299501550428724 0.9091148241371827 2.8277193113868853
Ni 1.7293934152565655 2.6192755543624546 0.1063025573489773 0.18992944740671805 -0.7929495550968085 0.46009891071211084
Ni 3.7369868306868597 1.9745285085357347 10.348300985291132 -1.644794856088561 -3.369737425472306 -1.811768208919738
Ni 5.680929368414267 0.8356307160517772 3.5464442471563737 -0.9830088432131716 -1.8708349331749072 -1.0804623947766554
Ni 7.100912419012921 3.005327912904485 6.476180452255379 -0.8798261024753944 -0.02513459028409865 1.594170349063474
Ni 2.230110546749741 2.6679782610791873 6.1814256322937435 0.6576159406580997 -0.8500763820167877 -0.5088454839881946
Ni 0.6656959196171033 3.83867912607396 7.359777649644896 -0.627468727650758 -0.368571751935391 0.6444752895110837
Ni 5.274029716545537 2.238209025918673 1.6245763556976087 1.9778820419640968 -0.6113970188998761 -2.1048282036700594
Ni 7.872178398323446 5.181125529163388 3.0406005640051665 -1.141715328049866 -0.17541994093663335 0.1455637768071493
Ni 7.229854372731389 3.252876707109723 10.783191180524522 -0.055388246962317506 -0.8407139669652812 -0.4580854798265078
Ni 8.278826428860116 0.19621151894873826 3.3726055923513134 -2.7562899518013046 2.4390908979109347 0.17981241357737418
Ni 7.269433476333755 7.1293176716100515 8.660641297784064 1.8337418849773515 4.408570831854266 -1.1957051520027602
Ni 8.925353462628452 7.85112608020766 12.48375438271203 -0.10570345027710182 1.950961306313853 -0.890232385410383
Ni 1.9250988957486028 0.32693066481624594 9.151167765328761 0.23443344335636399 2.050750447989049 0.8735667518292439
Ni 8.9220078308429 2.2225059909363356 5.2742188985100125 0.9808714851551946 -1.4073092561694345 -0.448058434607809
Ni 3.8876054961969695 8.68642502887346 13.200768007037585 -0.1556242463669449 -2.1071985036744483 0.27440664131519193
Ni 2.265626431804748 3.6010460762136525 11.69667260478517 0.1757287304263038 0.055865957929684434 -0.8873213824111751
Ni 9.366557489434857 0.9505601573670155 13.147423352709751 -2.0977610124106323 0.10397515473208545 0.48017614107796003
Ni 3.9592896179086243 4.1061432827464115 9.686800618403435 0.10301459059102903 1.0927869777802792 -0.4670403750269505
Ni 7.689296286457934 4.291681397561457 0.6457218455057421 0.14072573198855765 -1.8835215275036399 1.5990994109339751
Ni 8.286263237118812 8.397125732163254 6.286288356464816 -0.03008627786241915 1.2029759746325606 -0.7219431419812599
Ni 9.068367572325158 3.276324087534388 2.6804698623197356 0.32246261628215434 -2.483165005412014 -2.751140803500197
Ni 6.49557672923386 6.525072340936588 10.66367943517319 1.6719030251592626 -0.9485714874709082 1.5329742371701278
P 3.507228596589208 4.1500651841539815 5.092114016981312 0.2150272709156103 0.44294785285412097 0.9952784046091441
P 5.249911345902041 7.540103475162838 12.072897752413924 0.025224321784427524 -0.5910241116704789 0.19305693729210624
P 6.9091862832908895 1.3061476961124525 5.145036506629796 0.7660887261502226 -1.8405743345181527 1.116584337310193
P 5.461338499993606 7.845683603988262 3.687396925791896 -0.6128306660226092 0.5754730513097573 2.1515407772352493
P 2.156124555815156 2.48642881034274 2.2321319047839654 -0.10868644416482573 0.21661518422802048 0.891024028073743
P 1.5544886315482531 3.116153130714548 9.257270889473808 0.4984407437151028 -0.2904914626921965 0.049791469600830376
P 2.9902585909065986 8.202557207319789 1.7604006188133798 0.17586859843827776 -1.2458550333842737 0.07115116622352907
P 1.438836011886054 6.598340745109369 7.822519530544881 1.420859226939727 -0.642926714077041 0.2977679417489517
Ni 5.372171355357996 6.3173076751228034 0.3466503218029674 -1.0821061010276656 -0.15660177978886577 0.1880602554084632
Ni 4.225160172811354 3.0595290116921845 3.2928807711840142 -0.7090179492791596 1.51983898533975 0.8687323065550782
Ni 3.9203162693649243 6.218271382685238 3.4956223296651703 0.4408233503119504 -0.2747344569682559 0.2714208192139906
Ni 4.094941473815391 1.5641993511040961 12.998163442392773 1.8767829232282258 2.3647281667286433 -1.2350137197943958
Ni 2.143012288622189 4.436550049668539 3.2107702070164317 1.3331658400868007 -2.259305223806438 -1.1772387177674564
Ni 9.07422009812273 3.442850812815922 12.38693888151262 -0.24357988574232242 0.5956654670972321 0.8377132324657443
Ni 5.648339746258046 0.44305018183904765 7.165547415703426 0.6783940537457155 -0.2680027946713771 -0.44271311113549555
Ni 3.6615470276114763 6.0087826447814034 8.191379628591116 -1.5181777955872433 0.3407367320009938 0.5090324031880201
Ni 9.140862473884566 6.921804627128328 10.306195417128698 0.20466495384467978 -1.1021727898705536 -0.20218898150036146
Ni 1.5141546639497039 7.531902483599362 5.7015520664038295 -0.9087888082563316 3.591386058359176 0.15545841021304194
Ni 4.227900049538243 6.353168374595821 10.475791922661381 0.7933151659663433 1.0040497230438707 -0.2944553324359509
Ni 4.984525395046244 3.823237031732279 7.272537738026704 -1.5900511846887777 -0.4732786426271785 -0.4203324294474503
Ni 3.667623216815324 6.436706656840136 5.998393479559855 0.02123911188443439 -1.542733887660053 -0.3910030843557137
Ni 6.785789318186361 2.9426928398384384 3.8059133689852955 0.7564833418499746 0.358278340429183 -1.342605388233146
Ni 0.3571270885253078 4.223240395240813 4.495075307644253 -0.4276104511661023 0.5899231652968163 1.133997390580318
Ni 3.948600370950321 3.887847798220436 0.2363646919605474 0.425424499258377 -0.027202014336088636 -0.36870313530693277
Ni 0.28403668314668873 7.87913060253521 3.415502369813449 1.8686101576094465 -1.119243372199595 0.10866047602289673
Ni 5.303022085584143 0.26939791320588435 11.175183666364916 -1.426213292162789 -1.6915233704933512 2.5792324752612488
Ni 6.068985378304193 1.1518479037073732 9.392413911131296 1.667444732277593 1.2651941000325178 -1.2991624865581626
Ni 8.04039191846065 6.811585164376931 4.757231186141073 -0.7681340387150255 -1.1505925759348379 -1.0818505333734336
Ni 0.41536251600372176 1.8979610691203737 10.848907217012028 -0.4299668672134208 0.7899907295788007 -1.360919098940669
Ni 0.31661512213259657 6.287942533740403 1.6687414910595044 0.5755152174016024 -1.6185500634594188 -0.32796040617193195
Ni 2.120832334166425 0.8985090230721499 12.136936313354356 1.5538842478499173 -0.2905655104632415 0.09428235292435376
Ni 1.3371157585731688 5.437807245791587 6.018580965838039 2.347317170341048 -1.7149934285908335 -0.25621171557372
P 7.260039613270137 0.6724151411139966 11.800989217472585 1.3422665168364882 -0.3209515789542666 -0.2210685920136838
P 7.619494665082441 1.7077819386250876 1.5904220216283103 -0.8107351612150037 0.48708778059612884 0.13694595323115122
P 0.7595795663325714 9.181065971162786 10.993733932230434 -0.7326610426193962 -2.259007232950045 -0.8431485445487027
P 0.9325832110875326 4.496510481167862 0.4948496948018519 -0.43085158381121924 1.2778855794572572 -0.18401436747386374
P 7.818517819434248 0.09068432807485322 8.030116448803959 -1.28199831607405 1.6953496862179769 -0.8987926162755682
P 1.3009754798423059 0.46021728020163727 5.218077519672863 -0.22390143347678856 -0.26979485357479344 -0.34969548385617844
P 5.311176480604644 4.966119760571399 2.2578289663034297 0.5068173978145722 -0.3614138007343711 -0.7797415410469668
P 6.4457277475599595 3.215049633523191 8.761575001451542 0.2938866044166745 1.0725464823636883 -1.0351816685619848
