# total energy = -340869.4352459128 ev
CRYSTAL
PRIMVEC
9.23643242207230 0.00000000000000 0.00000000000000

0.00000000000000 9.23643242207230 0.00000000000000

0.00000000000000 0.00000000000000 13.51845248260079

PRIMCOORD
 96 1
Ni 1.4703569364114637 8.463306213329137 0.3646386557200639 -2.0458985192133863 -0.9687680170234411 0.05304288665859252
Ni 7.897842575283982 4.917208840916304 12.397380859266585 1.9169756933970277 1.6080517350312564 1.0676454455176452
Ni 6.680767092662464 7.493841014902821 5.668976865651543 0.5014221949409301 -1.2670848892973274 -1.1608451069007815
Ni 7.751158789723552 7.187256108781836 2.6957285827626203 0.5649379561063884 -0.3322109539181698 1.8489851842896674
Ni 1.9201065472857182 4.6099034930552705 6.777341384272737 0.2080068737337192 -0.8087546404498652 -1.0256814423810336
Ni 8.620344039794626 2.974279068763146 6.867847339687984 0.09471738357924332 0.6156758487808881 -1.2999281610795934
Ni 8.457210167836417 4.295458382821703 10.3728167251766 3.0137239698179 -1.5396858448623483 -0.8301241072645769
Ni 8.137481818175825 6.6369679294405275 10.207824482986368 0.28012708873873693 0.12924832747657738 0.6306412118414688
Ni 4.872227414326083 6.215315546428173 6.856437574540776 -0.5167308002735423 0.6383527215531135 0.5035351275188747
Ni 3.132739305843603 0.4013728716732398 4.180878589569751 -0.7822442528641624 0.7629977459297246 1.8342635618087764
Ni 2.4654162894746383 7.412625063361176 12.066368359941666 0.6655881602302988 -0.6337283354072247 1.5756244677404865
Ni 5.5110560362328656 5.849839146274489 11.600306285514849 1.684001093974377 -0.24756509564231557 1.387356210086275
Ni 1.5180076920128907 3.1020004582681913 8.578283173181372 -0.17833068682552514 1.5530386120201705 -0.42945238947084746
Ni 3.615056577941085 6.012381886548555 10.542000460464704 -1.1251911051425978 -2.0418433753074066 -1.4854545943226094
Ni 8.734903512894936 8.276794930549602 5.0094115289936925 0.3672905712301223 -0.4039239061824399 -1.2865031459229392
Ni 7.569921509938477 2.40445583454744 11.878583373111459 -0.4779963598178219 0.36426721102276616 0.1158935034362262
Ni 9.133649543146767 0.7048072306463964 3.0697837814824234 0.5497267955835887 0.6590256765214327 -0.8052743952107486
Ni 4.208284932275809 7.7148873190418685 0.7466685903162523 -1.0240655040441653 -0.09900289832847466 -1.562986981482134
Ni 3.0115296012966897 0.8504574594028338 13.301129763638125 2.137777662012886 -0.45444248375728186 -0.6354507174149701
Ni 7.37611344543281 6.63197101942301 7.849192437679052 2.0192261521285224 1.3136282842745053 0.5318776832173098
Ni 6.859335043436332 0.41691778767967547 4.21713528195933 -0.5533415095180405 -0.7093735328463654 -1.2790742004487197
Ni 6.212498434495932 4.489940706904595 0.14398767089478645 -1.6011339248655005 -0.2713228601835456 1.7810085591393778
Ni 1.96538353971801 4.95289841634641 13.24885432625154 -0.8816541568230686 0.6856131972019741 0.462498778402855
Ni 6.39528743495188 2.290875423298991 1.6668657337990576 0.2553928192168505 0.04659070327534557 0.26036738961330647
P 6.182886431693417 2.88208099890204 6.549987520335237 0.6164597781347642 -0.7522880728217044 0.34472168479067083
P 1.1163521855031702 0.9808814290763185 12.491266425357267 -2.0620103371735845 0.7276157668860049 0.3674949739314445
P 6.503252095200974 3.956351997640314 10.857818104577392 -2.3819062211698268 0.4966671967544478 0.2639121695417713
P 0.7585023077181807 5.903669075261718 11.65976027829074 -1.264934161502912 0.08865883608998924 -0.19908874530848292
P 8.68621827684626 6.048671830095367 4.373030561716563 0.19218379065853355 -0.24794921845461165 -0.32641928693705724
P 8.56351227022386 8.425159746836814 1.1865499966383521 0.23219555516478074 1.0535753405778243 -1.3034737123390068
P 1.9476403527611694 2.292417907537301 3.02340211171539 -0.5524992161224034 -0.5560303692041134 0.0815440794220789
P 0.4967907619264091 7.594324164774487 7.992784789260068 -2.5511141197584775 1.6396786179079181 0.5910032857348725
Ni 5.947634494269818 7.431652114444514 9.760147527579637 -2.1822646886816677 0.4840435944531664 -2.20617106298562
Ni 6.923703741979915 2.8916776523367917 3.9913904045746063 -0.4265347016034202 -0.5853841397758821 1.338702967854946
Ni 2.6885315545081845 3.7455304243504193 4.544254624958216 -0.29458954402097004 -0.6560552810391992 -0.005128322365500845
Ni 2.610021877708005 0.5329089078275178 10.946567290518828 -0.5058324081934837 -1.2653771625776014 -0.41855091206699535
Ni 7.401947747316352 2.4007150793587253 8.73275788961015 0.6742095833507227 -0.778756294315562 0.5308538699384857
Ni 0.5925568656872685 1.2016783495361185 7.798241504722248 -0.8012837859941168 -1.513920048752154 0.37017149232234314
Ni 6.038465572111344 5.139566718479543 8.890531859751048 -0.38849703010440834 0.06721197907012295 1.4659520055133075
Ni 3.8533934838413013 3.7737661987007898 0.6313360278102751 0.4823962886577305 -0.004178813968037965 0.8083635756590336
Ni 2.28026276228212 7.006887053657846 7.319592943639476 2.816457108209504 -0.28225724770786226 -1.0131079765913973
Ni 5.081811305652305 1.6082384017377092 5.180865579406207 -0.9541142716660084 0.573912905911489 0.4065024655428935
Ni 7.646066660002087 4.580162180196849 2.659890300768223 0.7089351597573661 1.3808562041842283 -0.8888954117665142
Ni 2.783472844841014 0.09436863151381628 2.02786246415885 -1.5921530615231287 1.4392752675530696 0.3622257551127052
Ni 1.1515614664399096 5.601979478400038 8.950621319087393 -1.3817350072447558 0.0635216747027293 -1.1147449701086092
Ni 2.792312110805458 2.9033247938009126 12.05037547695584 1.2087252184115118 -0.6213410174864654 0.7082661587147996
Ni 5.025949361500835 1.0425715621761305 7.902455249706806 1.1668910559845453 -1.419851097390187 -1.8978569702897055
Ni 0.8547219203179682 7.855909171440121 2.7262125047992454 -0.10535429446779919 0.9322305842190396 -0.07881048254099975
Ni 0.16791834402673778 6.03554685942089 6.388307462862716 -1.259613777731263 0.38923159427758774 0.17347567272606898
Ni 7.917950288977393 8.86099929026859 8.528156130009341 0.8085795483245817 -0.01825534666576211 1.8215214316517596
Ni 5.04747024937665 4.451803476844837 4.5323451688092575 2.0284818663988355 0.2846866830849613 -1.2468307670339818
Ni 1.777514501351462 4.271101910148518 10.635372480904786 0.5860161169329263 0.40245272095355206 0.21887132725204886
Ni 5.314643297743944 2.1276676598802644 13.159794796175929 -1.5389139996933303 0.3390601156295193 -1.3542146903373
Ni 3.5159588929541283 5.018744944100348 2.921824444584804 -0.2759765569054731 1.0133136648443 -1.567575629294081
Ni 6.035352894337032 0.9186777503259078 10.150817221196872 -0.4809721546166942 -0.08354079813713354 0.10898597768311553
Ni 4.156209925475878 2.257716630391621 2.7778801849230716 0.1063498256118491 0.4224703017260595 0.04678739266718394
P 3.9058564208089512 5.737219324012772 13.199808869332838 1.5339731107482872 0.9090127513416796 -0.7211712968122419
P 3.33842542262751 5.689162165378497 5.387616656864826 0.1192847885059623 0.9038402060018046 0.030775590619959898
P 3.1802699878216885 0.995890631994 6.53805127853184 0.07927893753698605 -0.7180502346847569 -0.6975156050665149
P 8.202404702673292 4.547151170210515 8.39560778084597 0.31511183234403795 0.7846801159991648 -2.681850087524175
P 3.1622866536181644 4.6334933418255835 8.594558691003678 0.8262057460467772 -0.37502907752496056 0.24873751868386196
P 5.832363815862025 7.6907525207502365 3.609318906031876 -0.5087637229076658 1.3294482820258975 1.0394653835390033
P 3.380349590038806 7.941807994292083 9.936116346229792 0.3005452473837727 1.7804241473908176 -0.5118763003947185
P 8.574974683036688 1.6641372916194372 4.845487018407942 0.196737471467487 0.2989984717219431 1.5290946996100634
Ni 6.652124915279245 0.4037484821288876 12.580745289471315 1.3389181691895458 -0.0993692805289579 1.4152717055496207
Ni 2.8754030581577426 1.29603774461737 8.682428568564951 -0.14014569111537153 -0.3177119889710464 0.46917824730555974
Ni 8.869967866288938 8.599719085877592 11.664478248044803 0.06835586286657905 0.15030797636035403 1.2863097989652106
Ni 6.810889954634338 4.984958073778578 6.484937173068377 0.7539968279826951 -2.1175600494144304 -1.428590534145714
Ni 4.2675828293413565 3.9252159834646188 6.440961593984455 -0.8169150647734705 -1.5823458456247201 3.359569483800369
Ni 0.010930394297097992 6.204490447462313 1.040766763252983 0.14394835269091338 -0.3108368591177679 -1.0364834180925442
Ni 8.511548100614705 1.450119912662147 0.7591858037279704 0.5712692976410548 -0.40860665637008986 -0.9139760088842258
Ni 1.7382596629513718 6.9755940201285505 4.589798550291629 0.4057010526875206 -0.9271511128136032 0.9507990912498463
Ni 7.079374576425824 7.0404430131655 13.518723489284477 0.3718990165364111 0.144359472086403 -0.040413370820040075
Ni 6.3016761909083705 8.842443297246053 1.5220292347515727 1.4908654809255355 0.17025356624434548 0.865199096590839
Ni 1.3181128184470678 8.906701158598858 6.09737646265243 1.3335314509563356 0.12222304519867984 0.8352362316801615
Ni 1.5158094210624857 2.0992009747157754 5.569373024160039 -0.7407834146162144 -0.6162144948931775 0.6920039312196663
Ni 5.1742310498949635 3.0949715330864342 8.733042371733143 -2.0031726982100855 0.2967215027623083 1.0293524634747175
Ni 7.165578201552422 0.5119246566837143 6.591948633476791 0.19987935953057837 1.832491300399702 -1.1026373882117977
Ni 0.08831137903786827 3.8752376468568808 4.620620525760123 -0.4229390138323619 0.7005777889316063 0.058255026987151286
Ni 5.760578261968966 6.432251638075917 1.8942463833909953 -1.123474379561807 -2.107763375038983 -0.26525788493638836
Ni 4.575664037537827 8.415784767783617 5.7916431556139125 -1.2734275436859037 0.7618356073008234 0.00958790079875123
Ni 0.9966110737340487 4.4313817244442255 2.3655261185736283 -0.030244657817154363 -1.5987962778712594 0.23700197541448856
Ni 0.5091223230435762 3.2759686656248257 12.419483642393978 -1.6045344659066172 -0.17101949787609255 0.02515361644749216
Ni 0.8490045685604022 2.0036962619964975 10.470704437497577 -1.0204559323160363 -0.6766778423855573 -0.4978833285497361
Ni 4.6127760235829 8.554515984905816 11.796309850041151 -0.8046622155480464 0.3569398241234175 -0.46164568637394043
Ni 1.1574820197138997 7.557600108897132 10.226236387660894 0.3591064927574331 0.9576737068824926 -1.6825299087454892
Ni 3.7214140989239164 7.538813205060477 3.12145146160625 -0.1945936856516068 -0.9130799794325178 0.7608382763845607
Ni 1.71074433034105 2.630120354968851 0.7229642097821368 -0.21335579675045838 -0.698173807475804 2.1072689519010672
P 5.472595531033342 4.2709541272274825 2.388101807048334 0.2313110956772984 -1.3829822493882957 -0.6225656339221859
P 4.235781792021001 1.8670432422013612 10.94222801449992 1.1574841608483486 -0.10527767559359288 -0.528840953273515
P 8.611006006471687 3.7118082090566005 0.7835376581848733 -0.16996148892522345 0.3002212883854507 0.08695136648057927
P 8.188494635230812 0.9071525297716413 10.378048240581261 0.04740779986000223 0.3085308366924106 -0.728523623412255
P 2.0009715143899034 6.265709522501324 2.072121601722509 0.6581134491198086 0.554106155598207 -0.7267403062595871
P 4.5626221947564325 0.6484908540127426 1.1943658658746241 1.7301863342811878 2.036808641096976 0.11082791598786074
P 5.890405558098769 8.203429946687976 7.597911595182626 -0.8300695998775575 0.26859954771511163 0.4543756350750885
P 6.595616420848245 7.866521832456993 11.605645867180517 1.9644796525152621 -1.453470585216845 0.40679557130328003
