# total energy = -340894.98449736234 ev
CRYSTAL
PRIMVEC
9.03666470041269 0.00000000000000 0.00000000000000
0.00000000000000 9.03666470041269 0.00000000000000
0.00000000000000 0.00000000000000 13.22607222912615
PRIMCOORD
 96 1
Ni 6.704698979325179 1.8750355830334096 11.270610153562904 -0.2535956181071116 -0.49560635959010135 0.2186880075966492
Ni 4.530025675983412 0.31632843957398116 5.91255672004554 -0.2936014690760879 0.46794154668498117 -0.1679341740825495
Ni 2.6575655423223368 1.7094838900468265 4.755156097783343 0.9737592995904456 -1.1373691352660282 1.3998818533571118
Ni 3.3157871452398973 4.337526649564187 4.767205586180085 -0.42145471597735157 1.0483626860286333 0.23021631995122288
Ni 5.174665172211079 4.620374247297813 2.890836191471739 -0.13724548674944106 -0.41707278485957205 -1.490628168103749
Ni 7.225192779141838 6.028313680834308 2.685884641420664 -0.7216091556806089 1.5705213421859663 0.27172420938702235
Ni 5.044681790556112 4.426546831202332 11.464530647302366 0.6139974326372006 0.6648656802419775 -0.2358429221093809
Ni 5.730212193484887 7.8004668389412855 12.432441452411963 -1.2714979307633585 0.8932179504012681 -0.7556878425318727
Ni 1.6868380088992077 6.485306839460099 0.3706857836598378 -0.12566215278721582 -0.37807094967507787 -0.452823202986304
Ni 2.7769398798961773 1.5664696382342904 0.4836666811251627 0.9008615829894548 -0.023691687189985006 0.3658299275241958
Ni 0.4986747734675272 0.11587534109325084 5.0106316388545045 0.35870231534047897 0.22175147701332132 0.6317516712968281
Ni 8.515230851412179 2.3406045362358525 1.3928111535567544 1.7216659555150027 0.23550225094051055 0.6045612269249653
Ni 6.74891537854916 0.7573755000860095 4.933285020371384 0.34666158212586107 -0.18018445220481227 -0.6493639850619526
Ni 0.8889791556794322 7.673745693157942 2.4408184341459673 -0.6074367487005474 -0.8143290492138491 0.7526385141825876
Ni 7.627342421133592 3.893618581082751 3.7651190197328264 0.26749397335575864 -0.3520362161742131 -0.06708599501521995
Ni 7.585014684782655 3.8377900680221004 12.640487156375627 0.5049114390411111 -0.018069713017517267 -1.0032094865307626
Ni 7.878389996617229 8.594066712199021 6.997001639087837 -0.11393663682017152 0.22394668489242722 -0.5691345106862392
Ni 6.9129218019123435 0.8137498276803053 0.38878170424966485 0.2781213711626178 -0.5607277746797826 -0.8759172543392916
Ni 1.918266985830779 6.319538266526372 9.325108468369518 -0.19278568590859058 0.6296855327964188 -1.5896590914566817
Ni -0.2804402303203286 5.120237342142401 1.3789769239283067 2.220251966558718 -0.8161239363307429 -0.8557541491278553
Ni 6.326135031585335 1.9683933636144348 7.091833299642996 0.28285888584760316 -0.32205098266603244 -0.5996187953180254
Ni 3.5307784295108466 4.252220537020882 0.44781100386358175 -0.683859447735661 0.5262675361193839 0.2525684623941779
Ni 6.016059963820672 5.650418446264825 4.854669654197472 -0.20136905670222738 0.32398162402984204 0.5280115153936842
Ni 5.332626067047623 2.725177865844477 9.25518185507806 0.3341230833392181 0.3308500690149012 0.3462082966385263
P 0.025720154398384952 5.536863720606015 12.387591583009034 0.8191681224737053 0.24714574871670983 0.05736645373461088
P 3.946772241461958 6.185488385862454 12.589673088426236 -0.44680245071352087 -0.3233951553987527 -0.20441067174202862
P 2.374202854714243 8.626562557612763 1.2256292463008058 0.6535386852649325 -0.25773406575551744 1.3734632541542668
P 6.223867099842477 7.751009174327989 5.737536410033229 0.5083387195551052 -0.5225623193536548 -0.0833939881466241
P 4.9310638082460505 1.1930475525746527 12.536081149820507 -0.25753094860577586 -0.7809481597605582 0.11096007069035083
P 4.032575370550801 6.147019305237788 8.217795366233778 -0.37585851540479137 -0.11987974177748388 -1.3894622006856845
P 4.750131712341173 1.0712784989177637 3.723985930424075 -0.12696364520745876 -0.35853133698025347 0.0782918910333684
P 0.3045699317729909 5.65726823792879 3.686913014459148 -1.7492726614886778 -0.9848435824290652 -1.2657738837953878
Ni 1.5063035262307605 1.1359719798179246 2.794180028361232 -0.35829762370289264 -0.4733933138281718 -1.8862777500925385
Ni 1.716930101565437 6.818325998299704 4.7138251055228215 1.3729318071308292 -0.8815094037150882 -0.0014043365466943555
Ni 5.986004017812301 5.707801265613341 9.100317825153445 0.019884654739068978 -0.5710065308979714 0.6014347654808416
Ni 8.885128637930725 2.23317666908386 9.856214023266643 -0.8605263737055181 -0.36695452804694223 1.5273592049761953
Ni 2.3282423792486444 5.172387932766068 7.041799095836876 0.3675893334174637 0.43655557617453206 0.15926261445048054
Ni 0.4395686622056635 -0.07161375854694717 8.972487880640328 1.5939240373806225 0.06025328836410269 0.8158963937009691
Ni 1.6491460814184742 1.1729229008125828 11.572931763217168 -0.7936347540892912 -0.4264814797679816 -1.4916491531690956
Ni 3.899492412984567 6.963436756267965 1.4970454634870511 0.29014693486858417 -0.37773850603632364 -0.05909706327247242
Ni 5.532986991550817 8.019334852267434 7.859778082486489 0.3312874136626359 -0.6045861666256297 0.5748529012272552
Ni 5.133132662333004 2.976424247946331 4.732976508522083 1.2906431362332418 -0.8584142124585216 0.7780117028400537
Ni 0.9642030616798805 7.446238628603891 7.03042464627562 -0.844436667232507 -0.6922451006961949 0.2100907528459414
Ni 5.12655397060297 4.474332712889726 7.062696382410646 -0.045063982218174 0.4697312915955523 0.08425607903660327
Ni 8.079564220922213 7.14244404264194 9.11981262140235 0.08829013989666085 -0.33034973233971493 0.3947728358107911
Ni 4.656502831826218 0.2834521505862908 10.495403507155872 0.12013479521108342 -0.30053599141239207 0.22239810945838473
Ni 8.28760631022009 7.272535864270479 4.76838215989334 -1.4408241000974282 -0.8377574554401185 0.07870969529707735
Ni 7.168641332924041 6.042826563964027 7.049482971630899 0.379786646814604 0.6699829468638848 -0.9011832279949318
Ni 2.1741943601251577 5.303437640827826 2.5859617241063004 -0.03856500475739165 -0.23718786617304954 -0.22608172895755901
Ni 2.3606478580177432 5.22534278652706 11.334849090240507 -0.42501029453909384 -0.808852342369994 1.5524809397444876
Ni 1.0556450693944675 3.2342222117848265 3.7847068936257147 -0.5873510336942659 1.3574002871541333 0.02285813554509612
Ni 3.557662506292238 2.7516552927249736 2.7473728174353256 0.40991406232760375 0.1467004615147538 -0.35859252923549206
Ni 1.0485422511255016 3.284095562963481 8.146268359665688 0.2723111922387439 0.9242429380278727 -0.3914013482353969
Ni 3.6931853632638423 2.6648039105582675 7.053887441890815 -0.1413008877657373 -0.23855517883422142 -0.07701662386537059
Ni 3.989199381122002 6.959722687173124 5.949787777638592 0.3597814073372707 -1.1233869620543233 -0.5744957749981524
Ni 0.8230124087562468 7.346889539483012 11.282963273885647 -0.24990917039445992 -0.5798909778717948 0.36171127737013187
P 0.15770334989930962 5.581522916388749 8.055974008338072 0.4070660513558473 -0.32598451339248374 -0.6317239033826862
P 8.501025214874247 1.5485680059304465 7.790857249949913 0.1522717849549442 0.2552904893110313 -0.2307192277295704
P 1.7537996925799162 3.24190337657951 10.40848254267279 0.6943423495448559 -0.03719743498590368 -0.24997293375285987
P 3.8489684219644804 6.204763591164878 3.7231256399670705 0.3240998947752612 0.4894909907209828 0.049300646007340895
P 6.907761866503208 3.8060442657588984 10.43221011255679 0.40285355593639655 1.521623845154315 -1.307351450126858
P 6.284710961680832 7.7886739918153305 10.236992857466694 0.0549591298446989 -0.7067044706546345 0.03308109882468497
P 2.3834021791389337 8.533177667038345 5.750748917146531 1.0730154515803068 1.57032516701476 0.39679038046145215
P 6.98484461438397 3.8842204500398445 1.4595369802949438 -1.9444165632167996 0.4465337704331665 1.8871449831888403
Ni 5.235075274155147 2.653824363234103 0.8612393067732688 -0.520964892959548 1.0858344577218462 -1.038349010546373
Ni 1.6810093603197127 1.1177359909289002 7.235243357359069 -0.5257103780643333 0.1025240241078557 -1.3619812216565963
Ni 7.103179735544412 0.45135066533426105 9.146331616939383 -1.3365697235620273 1.132659645605501 0.2622108705799484
Ni 3.0475066506227755 1.637036951036268 9.29081251939448 -2.1090383850966643 0.19955360076004344 0.7428048159216175
Ni 6.461666925221403 1.7973293053046089 2.5637017085313087 0.7960737025480871 0.6832922623782813 1.8123017128257048
Ni 4.120999132334301 6.723974184627601 10.330805182270277 0.32094206587256985 1.2208076034973425 1.0111192282961423
Ni 8.01167176080168 7.325734707972009 0.11905805431758897 0.8633880115240291 -0.7056721727353782 -0.20572270568523277
Ni 7.566155166045592 3.8781387748553477 8.08001876514477 0.4448846648655177 -0.28663712194311275 0.658380586738266
Ni 2.8947237645242954 8.280440235299874 12.410155230510025 1.4145556533192025 -0.3942182488589017 -0.868962163177697
Ni 9.154592935592676 4.823274474515486 10.177753003570759 -0.8688557195068197 -0.5200740057141624 0.2762606638047952
Ni 8.690135492119346 2.4246545524186147 5.703094970760316 -0.04893632068938669 -0.02559070398491077 0.7698073126523903
Ni 3.5706753031208773 2.686003925391593 11.626192959903502 -0.19918644722861178 -0.19784767381253024 -0.28357776629149867
Ni 1.2039276965897099 3.2045186956905636 12.893224588114096 -0.4646011694578386 1.434632883685052 -1.254471314298375
Ni 3.102811037144494 8.243055554410928 7.861378475763122 0.07719171599065415 0.037724511133967284 1.4049615818728642
Ni 5.5402615064446055 7.717112645922277 3.4846462574204264 -0.0474687350049247 0.2875696610597112 0.43737370120045316
Ni 3.158332303613357 8.494573036446713 3.378877521864086 0.26066383780780267 -0.2636375757241459 0.8695704861856574
Ni 3.553270687362572 4.330369611308435 9.361876848741995 -0.30781915533736665 -0.46085327237963214 -0.3152956662200699
Ni 7.1665267534393875 6.039790244704011 11.258773026781073 0.20360000291527516 -0.6128036694394157 0.5932182911083203
Ni 0.4554189716761038 9.096306449797726 0.4191765251754494 -0.1356434323696438 0.45828088366676556 -0.20761118095719727
Ni 4.835266128259655 0.22320470860258185 1.5594327876159144 -1.4541789241377794 0.8336573172288159 -0.41265640095943124
Ni 5.803779678889024 5.614335045058743 0.3200786553266794 0.8982879087250077 -0.18057628832659223 0.967056176538657
Ni 8.225190068764942 8.929236597181136 11.265650832104878 -0.5626424752039922 0.3631199847922004 0.2826840508326357
Ni 0.10535033799164203 4.954956749089749 5.8194718467313375 -0.2747033466200043 -0.5303247369078932 0.004517428254379317
Ni 7.760036802127859 8.732634925095105 2.730390213907505 0.20450374567646715 -0.8626215656716498 -0.5098147898799995
P 8.587361507166486 1.3867574920320977 3.655567536431716 -1.1710559859955123 2.32267726030518 -0.46870902097862505
P 1.7821477090045292 3.2845564328511623 1.6759949152084543 -0.0021252738731189205 -0.08245116461738058 0.31447934096636165
P 4.637607166431297 0.9458044128304983 8.191501383641908 1.274183705125638 -0.10847638503654866 -1.0494985994052894
P 8.697211200394918 1.7419706987961041 12.401929154848144 -1.0691387422337202 -0.7587415417565321 -0.08897276778598226
P 6.368227814660198 7.812494639343313 1.312621600433155 -0.30660250932144617 -1.3592039160217755 1.16390549099366
P 1.8491455393430951 3.297930696258375 6.023140190428478 -0.6718637088263655 -0.36440450793157886 -0.12060659264117939
P 6.893845403228135 3.855050097148977 5.893445078369923 0.0171428303278737 0.4605462826621745 -0.10428522977333654
P 2.3494243207530414 8.38199427055005 10.091823361179415 0.2218178114748825 1.0010420465657985 0.389955874038122
