# total energy = -340855.7494646187 ev
CRYSTAL
PRIMVEC
9.35626284108568 0.00000000000000 0.00000000000000
0.00000000000000 9.35626284108568 0.00000000000000
0.00000000000000 0.00000000000000 13.69383641346971
PRIMCOORD
 96 1
Ni 4.179395734100705 0.6466964521314993 8.194323341241594 -1.882387671009513 -0.5964437400241535 -0.36534244636481594
Ni 6.176817460993751 0.934098384998023 9.436162302804386 -3.355638267066763 2.8508075606649164 1.7866798984925423
Ni 9.091340050570622 1.4210198115033321 5.250394953854796 -0.8195676719049692 0.6205953975696925 0.3137460623447629
Ni 8.521955332151046 0.23514720609556722 11.722567170947894 -2.796319199809049 -1.0886171626733057 -3.0898090830079368
Ni 2.52567631480499 0.7975979982823849 13.675746874383616 -3.3383172592898114 -1.3303594809862571 -1.6321913083919375
Ni 4.984053032535048 4.572199707963744 6.444538495424696 -0.644893865105741 0.5457570123025633 -0.3832082709016432
Ni 4.603112799682855 3.3820363205153052 12.402863833424936 2.2804787725602598 1.9533298065460294 0.2476237167943929
Ni 9.063084137437535 2.7183778998675896 13.154134297310474 0.654437542930118 -0.5871116639899502 -0.7664517659165961
Ni 1.1512039098702356 8.369345332444498 12.063831236504665 0.8934493496857839 0.3533479930071011 0.12876598852352017
Ni 6.059321514925771 0.39984549711600553 4.478103774725515 1.1421922676862846 0.5617117358596069 -0.5229976071188606
Ni 4.2281137935987125 1.4180913013011285 1.0481428057829587 2.4864117944840856 1.2564358942239136 2.691436188550713
Ni 3.5065213947655427 6.069398209774888 4.4959461675549175 -1.1893139037644356 -1.1911733255706776 1.00173264487492
Ni 8.700837717313789 7.423417824607348 4.510982617222528 0.40639293654822267 -0.6975402876568633 1.1217041750352619
Ni 6.940775017001298 2.0077791096209685 12.917327290224904 0.4944388216445613 3.2217948640203353 -1.0490702536186192
Ni 9.156066675423169 6.434142752020004 1.1223463890502425 0.17631082818201893 -1.1584825202058757 -0.8558608499090486
Ni 3.339895713643973 9.008527770060374 10.349979117306187 -0.09814980629956 -0.776374681457263 -0.3095201971888734
Ni 4.340417013908792 4.227000398346117 1.646423405699298 1.0742248985073757 -1.61348936110706 -0.9226411407583917
Ni 2.3421345108540756 9.150555836735956 2.233040488625006 1.9901426044990047 -2.0045022156547865 -1.544506149069127
Ni 9.35850812988032 4.834904850000434 12.780826903509265 -2.518667826304314 -0.36317166396574224 -0.22719270263355065
Ni 3.060573849181997 1.5030742347408057 3.448135509095212 0.6318938533016473 1.3357019762450932 1.4131598014129403
Ni 7.026618726602645 2.9542773494783554 4.439651406581687 2.510475263191193 -0.22846179915396136 0.91816305038238
Ni 4.308895765118934 8.978101203997857 5.695252494842313 0.051654233841182014 0.22329850978546703 0.6375811334944116
Ni 4.407885023711006 8.485044876088123 0.43612159857282795 -0.945379720006488 -1.5426595827786915 0.09016421699092214
Ni 1.143456924415204 5.804428852182499 5.929431327756002 -0.13883288584121897 -0.8653531056702001 -0.9211468156010522
P 7.999267720502077 4.125952761976139 10.95554824580884 -0.5554140757763532 1.5928410887290891 0.8274519597490523
P 8.11393807525675 0.8432743368004032 9.446268002067647 3.4498293458288916 0.046485545156048975 0.2926648161944314
P 8.701707849738085 4.854609139092581 5.924322808361741 -1.2249409089394259 -1.2121452998366542 0.06397444596943175
P 1.026279091276536 5.203111209417485 2.3773187364623447 0.06702351720840069 0.9774385482142456 0.273656907633361
P 2.675975317642706 7.923425855648833 8.39905988692111 0.04480147258540671 -0.6778402381247746 0.0007098815828310355
P 5.422833680946428 0.028095921042167495 2.2552382217072076 0.3904171299452567 0.16798791013862036 0.8781091197842876
P 0.3760132249528936 0.80120296627251 13.09478565221584 2.875022724458539 0.0024281498255183985 3.6631591744374203
P 3.2055210697971552 2.866244274422325 13.561457319517856 -4.084477364836908 -0.3671237066349548 2.1255677502102555
Ni 4.395965145124399 6.43038153444401 9.365159496981748 -0.30916384229071914 1.3771147348639252 -1.415748130965407
Ni 1.2583424732102935 1.682602202024801 1.8759456267036032 -1.5115412641073322 0.4015335515733923 -1.213868196065032
Ni 4.838768986465324 5.366836449124731 11.30882201007344 -1.9903806886517397 -0.3902106703614054 -1.53886154918884
Ni 7.0867327139801555 3.385058393343778 6.795976560961907 0.16267369701455855 0.6943706316796301 -2.1181213212345393
Ni 6.881877343765277 5.753053614098467 9.908572165975452 -1.9346157750762942 -2.0527188845693294 -0.8544120332776639
Ni 1.114592854211372 6.229006693926319 9.375731138123827 0.00048850960064432 1.1374727507234281 0.060197495425502776
Ni 2.1763228245810424 4.709942606356227 0.14372061458477825 -1.2793747624082739 1.0643086678349283 -1.0950886293302622
Ni 9.121635628956362 2.5084795040968397 10.512319630144658 1.6106349223774001 -1.5184935270554494 0.9202317599859506
Ni 6.685742010318624 5.097460291835096 12.516632244462379 1.4311459535777158 -1.4530674362411555 1.6946462323930493
Ni 5.85726366723632 2.6160578117803595 2.649647730237013 -0.6404265733630067 -1.3551793682434146 -1.4731228122301339
Ni 8.08500851121453 6.860011758006329 11.52866237051148 2.163344197628081 0.5317252167998455 0.8587883079684887
Ni 4.788666200098542 2.5311216596538166 4.909172055853581 -0.9324288162727747 0.0644783821890438 0.8261586948589256
Ni 1.7585563420295685 1.4162855426141463 11.19299896376314 0.3699274946323371 -0.27138765198321 0.06508464831447501
Ni 8.436008703660802 4.09176497833763 1.1538601528299983 -0.466327665230642 -0.49489339268347676 -0.06643190637098882
Ni 5.799114495010449 6.698522665066901 5.609269376927826 0.391257623568681 0.3439390409883754 0.12721998419263894
Ni 8.393016676890428 4.662646698777501 3.312908509723088 0.6230682845902173 0.8070240309120036 2.209556177407769
Ni 0.33563814483924825 8.951866243592171 6.738887453291656 0.5863621874184354 -0.4002176609754462 0.6658954070580725
Ni 0.10256709342057908 0.33572796496046603 3.2907519441964443 -0.930153647085353 -0.32055357218489955 1.5285745654405352
Ni 6.1456330376584605 2.927714919880729 11.01974530619671 1.1927452980434876 0.18837161600129493 -3.099959026957745
Ni 6.488577487983016 0.2846184447350359 0.1940198824667232 -0.8503946845881548 -4.357411021150999 3.695955652142151
Ni 2.9302691795778593 2.9378103272551 6.997208250661405 1.033094189905337 0.23189447898459414 0.17794939222670644
Ni 8.238881606375703 1.1702906856290094 1.4150664215938678 -0.478372255100002 1.221702090287154 -0.567650469941545
Ni 4.113639920359204 5.905373569663582 13.480239346159225 0.20453845556914452 0.8605220028301438 -1.0572473901127728
Ni 1.5853906333318308 7.356483121774865 3.3327372371081707 -1.0845810449307192 -1.4387744166572514 1.3479175444746785
P 1.7400683670789132 9.265235547753253 4.5054362247373305 1.0426844046969335 -0.7081062360981676 0.42451895672497214
P 7.710449249473849 9.010791985616072 5.911670334411452 -0.8395677691759799 -0.8037651576550738 -1.270445064018812
P 6.311968674638598 3.4982504586034078 0.6883065589118887 -0.046441322181674856 0.6067641481135551 0.06131695374192665
P 6.04450119492484 6.495379490912735 7.752943523072475 -0.44716009116325567 -0.3821816294093418 0.3859601226151676
P 3.907278191861404 1.8238443426397268 10.092549036138513 0.17270537021894772 0.027479693477507512 0.8764037070574068
P 1.5702054190884536 1.398611562512027 8.212412739404344 -0.6810026950131562 0.8137873177777663 1.1229087368663244
P 6.93580684154644 6.300497896658079 3.5235469858676214 0.0751695433543028 1.4150174234469697 0.14593478699332285
P 3.2421789067691535 3.9271789624687132 3.9635851159760485 0.9893347854311995 -0.4451749424124269 0.561916138560929
Ni 5.519783274285846 3.659702126492329 8.53551910608119 -0.5785352351748488 -0.4474981912289648 1.0449644589803617
Ni 7.987694023632664 3.4690963442581433 8.798207406845153 0.1810030914513657 0.22325660080393808 0.7454936756076903
Ni 7.467289340064647 8.351147401635274 2.8667906801597334 -1.7458170988399093 0.47709775926295256 -1.7041618851929683
Ni 1.226400192602228 3.180427573431944 4.684866886890007 0.4707113961206345 0.6740352625563876 -0.7050625641758373
Ni 1.4374026273629463 3.923791995397794 9.120451126107803 -0.822094552091881 -1.7776231876069126 0.566093152756754
Ni 0.6697147294460754 8.916508927125305 9.375320398194507 0.1883011677746757 -0.06576521932126737 -0.001362170454849267
Ni 4.330901694817285 1.0584833472381532 12.273579932073387 0.7286321239656612 -0.5076900302275127 -1.0921352031288933
Ni 5.808695307940343 7.265512180254003 12.248109378324314 -0.32321877772188845 1.782810645345123 0.5683158714396858
Ni 2.300798542568653 3.5685534159815577 1.9932881300645033 -0.3688625437029325 -0.9140053194602646 2.2387639093199763
Ni 6.69187036233921 8.110307845357532 9.879541554296862 -0.03491300982710117 -0.077235424744396 1.7611861250968122
Ni 0.13119351455368897 8.566070110436643 1.4758802574158667 0.676473696794551 -0.21185375828363515 -2.7954352545421983
Ni 2.290955754285207 0.7817831075642204 6.370235735773568 1.3129852513738678 0.14006727246895231 -1.270916861448908
Ni 1.3081552154356422 6.120876366747816 11.898245971787203 2.605502978922003 1.3126126985257975 -1.4543157068259598
Ni 0.4833913086161989 2.9989722160468175 7.011983660601726 -0.7372946847366657 0.3705820974972005 0.13951139996548234
Ni 4.825024636666481 7.6712277965420945 3.7194652540213324 0.8115581713369313 1.0793413937983347 -1.738930399022405
Ni 2.4522951470226064 7.564678677747527 6.136960717829633 0.27715823591840005 1.4257054992884348 0.6056032950362344
Ni 5.400715476096554 6.09826227997872 1.7530436320898286 4.1573635114736724 2.1725232930241876 -0.29373233822699735
Ni 3.2660280202049936 6.334685680296589 2.0072289613785097 -2.3167778641016104 0.4931015908903766 0.4210201995430943
Ni 8.251465779608816 7.070303116807407 6.947417027840098 -0.812319217872672 -1.032902385609505 0.4032402498518539
Ni 5.5525395497424475 4.815518673837602 3.877369027122153 -1.2991069507298787 -0.8646072286431109 0.42202678643073765
Ni 2.584152956222802 5.232274680025376 7.660345527480804 1.0010716142521534 1.7279412470007531 -0.4969844708845505
Ni 7.829442197562126 1.2247534903799024 7.345291160420626 0.3716192805124632 0.9889959140345418 0.5825433278929774
Ni 2.390843214089456 3.842261522867424 11.405746341503766 -0.08921316593156249 0.153117163674375 -0.01600203185521115
Ni 6.2505167417054475 8.841162944191282 7.8242878324809935 -0.3140350543400915 -2.1947484229709753 -3.593155491554773
P 5.32914942326378 1.9271000569896422 6.986102366923334 0.3608486722595205 1.0037334773550328 -0.8850271870603597
P 3.2442559970723144 7.4287321817794 11.833186263985139 0.9786749917245081 -1.0275434352904367 -0.36049771667800495
P 3.596884179215659 4.341455559060372 9.39028761151868 -0.10264975105244256 0.35074449394598306 0.8432282487467025
P 8.90229676419512 2.5115670707637 3.032828787988336 -0.5375130271262163 0.13457436767518113 1.1408205841497385
P 8.414021486487705 6.9354793723545 9.201997504284638 2.0990792170014236 0.8178650873915657 -0.42856047378419737
P 7.221640664796703 7.112256598426201 0.4298575807441519 -1.1115429182315437 0.016962595996267562 -0.4638835745655237
P 2.2474210642824746 7.509036983905651 0.3498970890825675 -0.3762475233130939 0.24360791076678043 0.7738334030926479
P 6.272167133423979 0.16379634730321005 11.875664631937301 -0.3053809782095192 -1.2716874210663454 -2.8287721781314312
