# total energy = -340890.8651354859 ev
CRYSTAL
PRIMVEC
9.07976772872573 0.00000000000000 0.00000000000000
0.00000000000000 9.07976772872573 0.00000000000000
0.00000000000000 0.00000000000000 13.28915786797617
PRIMCOORD
 96 1
Ni 6.57366997778343 1.7270081043194176 11.539786180921038 1.057209852006618 1.5236542453207824 -1.0835253499726953
Ni 4.613765836178817 0.4088655640299105 5.987695376183098 -0.34669089270189973 -0.682488021309431 0.4209386955728815
Ni 2.7846920649930116 1.737967383734748 4.832057067383184 0.5722979960158853 -0.837766197190867 -0.06653449338712412
Ni 3.5101927303808815 4.432034288956082 5.032138824795135 0.5737691812447732 -0.38563204985178745 -0.0675729619539675
Ni 4.932038927600178 4.374813593947455 2.5978840197411865 0.7454695072379742 0.5099901391155991 0.37536152116371485
Ni 7.396923420458332 6.232116362401085 2.5871335749791724 -0.2615886636149172 -0.1348402197420581 -0.7084895875795153
Ni 5.104091442630088 4.275989404091235 11.741223547626035 0.7933164515179241 0.9508577124019236 -0.40436330771270357
Ni 5.668353596122811 7.8417593915568204 12.248590061787903 0.6051350971505642 0.18094575585086903 0.4135845692006555
Ni 1.9350618976275242 5.905952952991387 0.6214674128965417 0.5803100676870845 1.232045381194691 -1.3379414070985731
Ni 2.703646059971271 1.8194492175981918 0.10486495919757864 0.1378257847329433 -1.4960344267209849 1.9745344656481028
Ni 0.7892742286268569 0.0064684263922796205 4.772481988652605 -1.1300193797691764 0.8876553687118262 -0.777850494671841
Ni 8.390213669770265 2.216934200999125 1.3861254837579449 0.025483746093401274 0.6983247312313715 -0.12958874153513167
Ni 6.974360119124389 0.7728770764345243 4.642500576498367 -0.7765860261371206 -0.1840871296933281 0.09029945701720578
Ni 0.8610733983904593 7.640097754593696 2.3275829721168075 -0.3774222603474855 -0.6111951873017152 0.2168085311857492
Ni 7.653426853335788 3.9544385165895637 4.059040162528613 0.8887576006370694 -0.7686068645863859 -2.0887279556740865
Ni 7.630010132861772 3.847569652696903 12.779026449303931 -0.23017826762443583 -0.531841944883368 -0.2455166977537191
Ni 7.886894915975717 -0.12465522051792208 7.016355859929515 1.4106740588766091 -0.1412134702582536 -0.18249458839522764
Ni 6.770246944926683 0.5513343804757009 0.3610860113046805 0.701370974256863 0.007641575705657807 0.12415728610691522
Ni 1.733082468800657 6.298416824945196 9.217439510741944 0.19859715038404507 1.0491481580444062 0.8514768619087402
Ni 0.17855453656206904 4.770400905933472 1.6390714637149972 -1.3300923433677994 -0.45984000062376934 1.1675099205154666
Ni 6.305735117578799 2.0407231524379648 6.992422500682729 -0.17780026824335185 -0.3064628984197883 0.5188367908729516
Ni 3.571117970543987 4.156563221696999 0.27752037079184294 -0.6587695946465686 0.1979407477469688 1.0812062149212154
Ni 6.234122991026426 5.662034077918114 4.647098570778337 -0.5835231753077434 0.1540381328267476 1.3862496072856576
Ni 5.302557001420721 3.094012505624384 9.212894179113679 -0.2501523967535175 -0.8146231834155002 0.29855187110282777
P -0.1186407825024167 5.609634739470828 12.896689340842777 1.5490510881273323 -0.8843440449504059 -1.3543424741644159
P 4.065683828434327 6.152759194140944 12.626932171293774 -0.5657630231108449 -0.7585420241512162 0.8611820050116459
P 2.3474649390892597 8.531095342850852 0.9623400457137253 0.781829533924247 0.08101648905338305 0.9047881717373708
P 6.412858214962452 8.153894560124193 5.8118003035321735 -2.095858653181597 -1.5908667386115376 -0.1460252898246001
P 4.861997600831446 1.2081538682716542 12.64955078020142 -0.7948462578988892 -1.6962269466166076 0.30079747260389483
P 4.157126167284199 6.015509428074551 8.463465602339546 -1.5478568107089148 0.7701089030532091 -1.248641337880159
P 4.705916396896456 0.772411284359954 3.8539754286931878 -0.2101807414565864 1.341957727346818 -1.00078493624967
P 0.17598133044251255 5.975585690221022 3.5984117517556555 0.8650013787577361 -0.7801675728407919 1.4248552354729977
Ni 1.3456033892238282 1.2021521419306982 2.409616855846409 0.7154827310678968 0.333113154017465 -0.18225676135280872
Ni 1.872738373263954 6.816699035638225 5.0099723883107545 0.2024008404008514 -1.0663892045130408 -1.4971621125675247
Ni 6.134445303021871 5.908313692550612 9.233904761190793 0.9012313076240478 -1.2745863398806954 -0.24667446550724612
Ni 8.714733641256041 2.35299451751837 10.167747048517644 0.09950734876871896 -0.21852191433243012 0.6616769981013507
Ni 2.421328847990431 5.408109299020736 7.086111174020879 -0.23656231677390874 -0.8013233809828005 0.1172901266734367
Ni 0.6458801838692007 9.256005823348916 8.936985467059385 0.24711078171371637 -0.718280348417692 0.8798330444539298
Ni 1.5238210664103309 0.9032852376629298 11.482748897216627 -0.20411268088563556 0.3241150642839128 -0.48802031971272725
Ni 4.055578047167332 6.6210754440861965 1.7889729778653358 -0.005951075377112332 1.161605896326206 -0.4781346851678991
Ni 5.70099536041288 7.898435300513318 7.888125224476775 -0.9325923384338325 0.7949755843879018 0.22738579248096322
Ni 5.444954995679734 2.926735948318141 4.793903884199075 -0.37410759415195566 -0.18542358911656454 0.088050513082029
Ni 0.7477787830129363 7.352405320231848 6.9044749643572665 -0.7226278267531103 0.2918505478232522 1.4983774730318646
Ni 5.199619676870926 4.737332392569235 7.103453530013657 -0.13597304779492064 -0.6515977594884779 -0.3561934328756962
Ni 8.222819075486061 7.425588246567859 9.041410965508247 0.017739583371608157 -0.7580979946352621 0.2623317124285288
Ni 4.889463897626289 0.352129728607678 10.414832038530541 -1.6061324065213565 0.4409110249297504 -0.16791051993346565
Ni 8.136225332500139 7.438744829726777 4.921161366092668 1.200555795226842 -0.5415815407686351 -1.5928840261518826
Ni 7.37060117437296 6.352958988530856 6.903876607676678 -0.04738157460775711 -1.560463443729332 0.5546255184367868
Ni 2.328951293084405 5.508059380051357 3.024081044042831 -0.3745832482367936 -0.5286895152973153 -0.5608097928706277
Ni 2.4800749439450205 5.110955746886914 11.406123831007912 -0.3094368934464477 1.0081179795759736 1.6619741960813248
Ni 1.270513711705366 3.3226955307731134 3.8319288451402764 -0.33510010254050676 0.8592238528440106 -0.004895894639720601
Ni 3.7330647043068996 2.3269809835292055 2.471450980739817 -0.7576976738730499 0.0593837412749558 0.4070904768358796
Ni 0.9573888484766251 3.437436553119039 8.30493921700725 0.199980660995133 0.6581497016743827 -0.32058416831251885
Ni 3.762237997398414 2.5657153113397166 7.0490875139181846 0.18310265429287176 0.8165738793839677 0.18204387401105424
Ni 4.073982735961761 6.909149228684535 6.1276173178351865 0.8528238628549377 0.3196074062215464 -0.2379903074696869
Ni 0.9202162801863489 7.145731651589135 11.598165454267193 -0.17398269426947455 0.21254435659275656 -0.08217014304185204
P 0.05214873686330541 5.514142824300131 8.08137627277178 0.00841573486752099 0.35481737846377603 -0.01663272346067458
P 8.572144971878782 1.6927319818729611 7.865294149008799 -0.4204545568476113 1.5580334941316007 1.3586884098379375
P 1.71676612653939 3.2338318459033197 10.804351341872593 -0.3932224606045357 -1.532033213413097 -1.3329791779972913
P 4.254570232475025 6.130168732512657 3.976487824072736 -1.5767477827116523 -0.5837239784646399 -0.45554471568252514
P 6.881428698398698 3.9638723950589325 10.580947293568995 0.45139058430483553 -0.497841162457891 -0.6143550730869355
P 6.30482714082525 7.895121185362867 10.086231619514319 1.731221974634554 -0.5827960673337317 1.0652332365317267
P 2.4155631956053982 8.622410564955226 6.015178016559505 0.9460824025004675 0.6140372847362007 0.5301774126967514
P 7.078041984612094 4.026450152913496 1.677596917368061 -1.2406904584641987 0.2537804804244081 0.6949535007662935
Ni 5.455423967648149 2.810333328513222 0.6428375537680595 0.4210500243397652 0.4672236946823502 -0.6603757627914241
Ni 1.4177603018283287 1.3732422016018448 7.009406205857855 1.0073443346347426 -0.14400388851919715 -1.1328285670831975
Ni 6.998666656816883 0.8477561033461632 9.094050009818469 -0.9704860281558125 -0.1888722097867973 0.484788700149307
Ni 2.6426754209704884 1.6913427774400318 9.184907611639053 0.6848524077765495 -0.2788559353357971 0.6548005826964917
Ni 6.183394329805671 1.8823810863866393 2.6256454089809327 0.5820440196590557 0.3163634453629519 0.2781810207559596
Ni 4.23070860339177 6.706697651945822 10.539510866444056 -0.43798459531157474 0.6267372488013723 -0.7312695615885083
Ni 7.8414869985307565 7.264122740484327 -0.057871714340921705 0.2521156911274755 2.068901150756146 1.0897199088191813
Ni 7.47240352798082 3.886603573331954 8.450150123248758 0.9434030558960914 0.04302021231526785 -0.8300950537988542
Ni 3.375076709685327 8.234377619558733 12.276071794187557 -1.6676020837910634 0.9805315853172727 0.5208422513387546
Ni 0.07516322363549963 4.797567570399643 10.430021581640654 -0.20103969838726668 0.28090459033470977 0.19581495965321763
Ni 8.352777788221461 2.3447591683636855 5.764797070931227 1.4214477524533455 -0.14561545598069114 0.6170909839608598
Ni 3.719644807889453 2.531802379594679 11.468848681096551 -0.4909768312378899 -0.0018100566255452699 -1.9591093893422844
Ni 0.9426069869288554 3.374477445027985 12.943214069694601 0.2350145126708146 0.5973071164657132 -0.5196266337640986
Ni 3.0965911596044617 8.270978162494274 8.182705570491041 0.5426976566509493 -0.14114096514910532 -0.6105534399526582
Ni 5.506997047249705 7.7518333738853755 3.573640329965345 0.8547228796498634 1.6936198480110638 0.07439307019959446
Ni 2.8341949575964764 8.57128239396291 3.384881042670144 1.3378686448791088 -0.01989005405570768 -0.23696263753612093
Ni 3.207573158190697 4.2816733385684485 9.43865079518572 0.4541123541113728 -0.7382537062158253 -1.1584228706125341
Ni 7.130241568173598 5.96179352333462 11.473739043891165 -0.012807436177313426 -0.06111640769534635 -0.5462159542168528
Ni 0.3569147660988786 -0.03867072993363125 0.42050582601040243 -0.23173687036080734 0.30233524940465994 -0.49155610078012757
Ni 4.547084023398215 9.317566647239506 1.4062317209885231 -0.7249623884235579 -0.747764473919738 -0.15157810132202926
Ni 5.836574449252745 5.681183307650452 0.5156154829678559 0.8912831952724004 -0.4341893899352007 -0.2400551604185156
Ni 8.1740334845179 8.902566792262622 11.06565524784606 0.004404299715282737 -0.40528890485076646 0.46412474404205234
Ni 9.29014574928234 4.733537049739402 5.734776635528653 -0.13295225869072588 1.0157685541426957 0.6267719586940497
Ni 7.980888669503059 9.189723520339875 2.491012431918266 -0.0447734475609487 -1.1884574693014114 0.20490689465215678
P 8.78510183965605 1.8000003555371826 3.7169508408616747 -0.5291510283147661 -0.8179710168418105 -0.6579478700762218
P 1.9275620096432136 3.49304104950635 1.7223283921316286 1.2050840221144987 -0.7193689534961805 -0.4734712182539588
P 4.716857516776717 0.9513508030655276 8.253776542898299 -0.0009921887099402268 0.9765049806563828 0.27128789318055213
P 8.707297311644478 1.5382488170242168 12.45215300207296 -1.3426917772993652 0.45594683621695026 0.0012143320230753281
P 6.260953704093785 7.721279956128468 1.3526365771568152 -0.40480219502233505 0.29604041753488375 0.8224462790043449
P 1.9472469456601453 3.4090350402680416 6.079935826599339 -0.6164482081705384 -0.503295757814559 0.44847906708499535
P 6.981968964319125 3.9567720168461835 6.155617504961115 -0.5679296917448606 1.641833716577708 -0.6621814485415951
P 2.3756303779843346 8.42091236380774 10.174259057794094 -0.5185681105925972 -0.30718152175336777 1.1841148760619993
