# total energy = -381173.4922986178 ev
CRYSTAL
PRIMVEC
9.17637053439979 0.00000000000000 0.00000000000000
0.00000000000000 9.17637053439979 0.00000000000000
0.00000000000000 0.00000000000000 13.43054583883814
PRIMCOORD
 96 1
Ni 0.30528958521992494 7.53651632243684 6.316614226667967 -0.7479313385149055 1.3318034125216351 -0.06759764454431584
Ni 5.549777067764334 8.713358299998593 8.214886847009224 -0.13721411929087338 0.4181099678748348 -0.4468996384130174
Ni 4.942328874912607 3.0420218532487033 7.039163469001962 1.0045292337834506 0.3220409553637035 -0.37491980564060595
Ni 5.425354661206988 0.17893004686641104 0.7870747262331977 0.9660405907899493 -1.4997087902487785 -0.7818375043440471
Ni 2.436307994406811 6.719764296620553 13.602188017711557 -0.1592531013687838 0.007819238934102664 0.0008803457224242902
Ni 1.5039153485274173 2.2066142663636734 4.4053533716308415 0.6560473106193991 0.3209338383424537 0.06292415032804648
Ni 2.0598565741982027 9.397888004398494 12.001239893063579 1.529754187570933 -0.28986797017558463 0.35223162001447084
Ni 5.358743388310775 2.5751648316385936 0.5850973074138826 0.5731737137526194 -0.30557766760135757 -1.2247164516334454
Ni 8.607536396287456 5.745013524871353 0.1293436940148789 -1.2237126929592796 0.2933225043830884 -0.5882745739497998
Ni 8.019441168656575 9.128111890350304 13.518113194264467 1.3221283513257165 -0.02462371208595114 1.1478042145564231
Ni 6.759929269959405 5.576333483766764 11.698180165856296 0.3341832471531922 3.726356118810879 1.176817828179954
Ni 8.603856671748073 6.684829854422469 10.368233200707898 0.8711951662732739 -0.8753832362126924 0.4471557202878815
Ni 8.372492844288058 5.803641355500077 5.045748404847159 -1.0183193455890076 -1.7376538463028268 -0.5899632745061324
Ni 6.208704698685733 5.102309716856759 0.7670656505271507 1.1974861551625828 -2.1365255347733396 -0.45670711142174253
Ni 9.051590137397897 0.8618869213759122 11.353807501370321 -0.43916910253797914 -1.0713892288307936 -1.1981425577996592
Ni 6.274664449281957 6.964048453635309 9.56930443916304 -0.12499186619306862 2.5755894791920224 0.27836639729388835
Ni 6.359637639393397 5.368580457403589 3.062970589286004 -0.8086332843806525 0.5395298004459288 1.371010164628084
Ni 0.1669291896279941 2.3342759316801263 2.490170535875182 -1.5552322772373797 -0.3620645469444926 -1.3452862774994185
Ni 6.043052859820539 3.5761508464254397 11.922819549070773 -1.1804207150398638 -0.8923702576889921 0.13127229988514166
Ni 8.971599716425821 3.12331531882076 6.91666351204811 1.055502125286892 -1.4525730131032404 -0.21810590984093403
Ni 8.222862948180376 7.116009147830281 2.2791901800344485 0.5206815573911743 0.36991181090305325 0.43185508537506917
Ni 4.835580157788808 2.249311917939109 4.707433062477011 0.4405189316976542 0.7065946845496476 -0.09625824570380195
Ni 1.1230500941456338 4.125062972352666 0.7306180248464134 -0.18749358427171578 -0.2341058848136162 0.21903382097184212
Ni 4.402299475554266 4.108417036406429 1.8541810780986596 -0.3040961979598246 0.8298117182304805 0.21546718666650633
P 7.994701673997779 6.457797273801828 8.389578328377528 0.42685480394700037 -0.48357436812623167 -1.9770880853078918
Ni 2.759013413051412 3.154221334403409 12.873768651218349 0.8161139090284139 0.0022183478075574695 -0.9191464973415718
P 4.515646003011772 6.536429591951388 1.0832310699717063 0.6813137984956718 -0.09609472354274419 0.13725345716924103
Ni 2.511691877426841 3.854791334301668 6.263442665892402 0.2222333017457463 0.023889919243720147 -0.18816284242459852
P 8.235122579064704 4.20684278555711 11.441562049356792 1.7843803038250883 -0.0620808284911447 0.67508375842556
P 6.835505856758305 2.0157641143185625 7.9418843211205195 -0.014507963808187916 0.11117938579000854 -0.04734840737697652
P 0.8792935784301661 6.1015889267450385 1.6847678449973214 0.5384049428128663 0.8599558459140286 0.08734963036026247
Ni 5.1926602600357255 6.642150555587879 5.074999920842649 0.367087968301013 -0.49820960154090327 -1.0531955886409021
Ni 3.0451601719331642 1.4640256663012368 5.966627458757565 1.4149199786371567 -1.699179087266396 -0.4088377985442895
Ni 0.8692803230252413 6.709826287453092 3.8494093930489295 -0.8491847234404536 1.1985953290663613 -1.251869872119786
Ni 3.9166217182078102 4.604904558110474 8.561448993477985 -1.9794203329854942 -1.6614216660119645 1.0743146300077047
Ni 0.6721764745372636 5.342923325702554 7.014734135663445 -0.9577089309958022 -0.6847457069953562 0.8577236141494002
Ni 0.92011466225422 3.083003523555149 11.030843309079808 0.04939449127272784 -0.22996897982710715 -0.00845044476019835
Ni 0.4294385359386822 1.6202166672609366 8.988620965922335 -0.9519383470606121 -0.9038062674400756 1.1403346456522554
Ni 7.6015492596204 2.5248232635012977 10.305150242239097 -0.5381015526398346 -0.6102287096233878 -2.039443764726978
Ni 5.759530542879592 0.7167782229753471 10.318285298861722 0.024490528942196534 -0.148120481790732 0.14302044156000532
Ni 0.6024103654898278 7.667995357849011 12.166328302784839 -0.8154438795445828 -0.32431561033049305 0.7270843198625672
Ni 7.915215953398937 0.20923684546047722 7.119424592901498 -0.782449169786117 0.6971528224104574 0.026374890449102965
Ni 6.970811438636619 7.045993441507356 6.476343636062544 0.8858072597594937 1.401536358241399 0.6203434294598865
Ni 6.743843092608934 3.0265871981982237 2.835631517893255 0.07780312432240793 -0.5974894076798485 -0.3369443548380971
Ni 7.9873055194373235 3.0932443529465496 0.16339720465241167 -0.3348247373919331 0.611508861887392 0.604564569359075
Ni 2.038916096894282 8.478011927775256 4.764378864407309 0.8511984114363728 2.449766889567542 -0.3270576918520045
Ni 3.657003846217221 6.880176427974557 8.667725127525031 0.04533394805010903 1.387501477414888 -0.17494222996926645
Ni 1.127344635503318 5.276247818213383 12.030464797584845 0.7627511771365574 -0.08354979699819805 -1.3562890563678254
Ni 3.704427328560193 8.892141524938246 10.034967614981198 -0.17683173368249544 -1.0850975795558215 -0.5156398812022087
Ni 3.778223699497148 1.5520454113929143 8.404943243012797 0.2391460183406849 -0.011281229340774121 -0.23984587262118692
Ni 6.762113246119936 0.6927508146613305 3.72889703792857 0.7440050068773058 0.3869245434109659 1.8005985654561636
Ni 7.115192450862687 4.4750405638926445 7.251594609006477 1.0126809163563077 -0.4848915442757585 -3.099444806325488
Ni 1.4612727551745164 4.522289695197591 3.93249041557927 -0.2072301434686947 0.6419625503915589 0.7936596937899557
Ni 3.0549330064330227 1.7868503777613294 10.626704026395688 0.4339271374127494 2.0713997488082843 0.786982024659464
Ni 2.8428579096008963 5.940974915241742 2.5680146038054583 0.7691915334452623 -0.5341911618418348 -0.5553968493851725
Ni 3.4211803027319196 8.182945736842928 1.9518883174452666 0.12841323316979172 0.910119354142297 0.8742977164579975
P 2.9142133660054923 4.3009372878684164 10.604194389749535 -0.3138908154527433 -0.1134740953614562 0.5898542597320938
Ni 6.684279272197125 7.239009216972153 0.6382183981521239 -1.0998081462931186 1.2181177153700053 -1.1930348042594485
P 1.7091999312469661 1.947565329339273 7.427978213080672 0.13348447704511207 0.010995836889871385 -1.1261766089843186
Ni 8.547366935427767 4.615760204320176 2.4451512625828795 -0.2505306060285427 0.9083067264135906 -0.6032887879704449
P 1.1574614832296404 8.550385961296739 10.1205069871477 -0.16941847193755982 -0.2431029461059039 -0.36533858971007405
P 7.4392284432185365 0.9234640374583967 1.8358081492389269 0.6433851417706984 1.180133522816748 -1.1335729014483895
P 2.647272750417826 0.915915555148929 3.0013512618995764 0.020292688810765052 -0.8231931844726985 -0.17447428919391242
Ni 4.269939508581544 5.126709685809925 12.870989128617405 -0.60798979299054 -0.0519455398293557 -0.6032409654516451
Ni 5.059189952241893 3.031946198524906 9.803250497259919 0.07896243473783175 -0.5925778293108439 0.19898538696139925
Ni 0.48664035860376553 0.785512907987305 5.779419408133106 0.049930566281855944 0.15522623959757784 0.8143676157612685
Ni 8.041143284705555 8.835560024913717 9.2733885163296 0.13812891779565886 -0.32549934622594906 1.2906287380555386
Ni 2.399354750715799 3.0484728416556512 2.378186699425403 1.1888685886969008 -0.9816888388501673 -1.1370235790011514
Ni 4.948743157837866 1.33256498362991 2.6292843114787923 -2.3708121681391945 0.9397981121536525 -0.6689478207311512
Ni 5.246121794116638 5.702802220928304 7.392722597917804 0.4158923913982257 1.8259876949532297 -2.132580948303295
Ni 1.077461885887142 8.68729740799897 1.0769388327730653 0.15514756384084247 -0.23178803531371694 -0.4635673288766855
Ni 5.8729413049300545 0.6547046652530107 6.023357615982937 -0.14083448965228004 -0.2847748719233934 1.153986432107735
Ni 3.7023718215855754 4.119300211727397 4.065453270088744 1.0025736527189766 0.9001337036844949 0.6725049419547902
Ni 6.016487267447684 7.802741181131558 2.9852742609195286 -0.2678094477136484 -0.8129882189152386 -1.1009468878832522
Ni 2.999094792412708 1.0786823431533217 0.6562986007953819 0.09948703705374479 0.3868723500167918 0.6537577432542742
Ni 2.8279096021828036 6.470836896172061 4.917057150769312 1.5968463532337402 -2.2794860696296873 0.2491730635593838
Ni 7.180968674050463 2.7262629470138604 5.397413530907818 -0.7666870218558538 0.196623571597442 -0.2606021313319319
Ni 7.300958893693788 8.148589405981456 11.640254327564886 -0.8801264073246327 -0.18933680812804166 -0.4539981971310116
Ni 2.1891608098202653 9.034017388038999 8.047663095890671 -1.0463099172646626 -1.3260472267641485 0.058015400172519445
Ni 1.7587890370096249 3.6591235877847965 8.629837729325018 0.28020396472325937 0.4036521405782919 0.8274439893292524
Ni 0.27359531941799164 9.156833929772421 3.260318529227218 -0.6884000159184918 0.18803917236254067 0.5038619147306742
Ni 6.907604599167115 1.4665583445378196 12.1726948685839 -0.9300585162683853 -1.0416791033608706 1.6393916827951185
Ni 8.682644988194815 4.244181436805862 9.10087367002549 1.5209137064611677 0.887065300536311 0.3246040881051893
Ni 3.971826762668979 8.043290555384397 6.496744542785628 -0.1252921710423068 0.4935476772888596 0.475653056396626
Ni 6.5003022215983925 4.7802282914008805 9.252651754449056 -0.8702585133916174 -1.0278308846238686 2.4438703215774495
Ni 4.8269635459621725 7.6618838951476915 11.986708192862663 1.5054526347110913 1.0269312556277348 1.0907581202757086
Ni 0.7499370374966957 1.7596516158293307 13.193590854276232 0.3049333491491394 0.4788823619672011 1.414194670435358
Ni 4.579935654191119 8.907612885470414 4.350878766255296 -1.9108603245279088 0.22254311967668125 0.014357297162936563
P 8.816262117915405 3.6014500996800014 4.29909100213943 -1.2754340325929712 -0.8060320993123796 1.0285973304762477
Ni 2.866900000107589 7.01269239324446 11.160178744361305 -1.5960806787123092 -0.5943526618230796 0.36439653751177886
P 4.503652486869694 0.9406972611116672 12.467817035375806 -0.2764864066623561 0.23179266329940726 -1.764039535385207
Ni 1.639367752332489 6.011669672975923 9.437751992787492 -0.8114015911544091 -0.5966121472812177 -0.35267693508200554
P 5.610038292328246 4.542789706721237 5.231452448359387 0.3520657838605678 -0.797521233627891 0.4285159936995072
P 2.1824712357823346 6.757837057503097 6.899298148660758 1.5587698580769929 0.8328602752488172 1.6334588622504511
P 7.970008061191097 8.681305238113143 4.937646173086056 0.5607072058544924 -1.1997307282223855 1.3470528824815382
Ni 4.790909586572557 5.68540382260743 10.586493171204722 -2.460139748161434 -1.2832920951848092 0.020089314550707338
