# total energy = -340891.60850981204 ev
CRYSTAL
PRIMVEC
9.09899164480489 0.00000000000000 0.00000000000000

0.00000000000000 9.09899164480489 0.00000000000000

0.00000000000000 0.00000000000000 13.31729401234409

PRIMCOORD
 96 1
Ni 6.36953971234725 1.9755639322556455 11.432111206563052 0.662445243725943 0.5323875329741928 -0.3013212063178488
Ni 4.530806414044693 -0.053790507962526074 5.64464125871149 0.49407655320913624 0.2564382297622293 1.501051934540234
Ni 2.77217153778556 1.4691959571177768 4.81871670261655 -1.2311429239850797 0.19955282942909505 0.6251629623357169
Ni 3.459363770707024 4.505301940911929 5.18273095596987 -0.2480680034206631 -0.5416319343905962 -1.2139612699994706
Ni 4.998612863268665 4.474174291041367 2.6471850610486407 0.461474965124031 0.5199876166479432 0.12869091231121063
Ni 7.374050174320448 6.017272257001209 2.7295928071309867 -0.24458621551964974 -0.06566571762892562 -0.9499979355047898
Ni 5.172167026855656 4.680129963306836 11.693343252100567 -0.7324959777964417 0.03702594240504591 -0.277232026579129
Ni 5.625624366507609 7.8963595825402315 12.36843655604428 0.22483731502749665 0.08810759157220954 0.5649466978571367
Ni 1.77201949273373 6.686184616029086 0.5031023470938627 1.6646807963792105 -0.40998965276054555 -1.8987843671999813
Ni 2.98720800355317 1.9335993835263172 0.3316473208424854 0.17024431027296485 -1.2633423915357596 -0.4596101440011504
Ni 0.3384260694988924 0.12804555767421355 4.627400397751474 1.5394508460334069 -0.7758226656085347 1.0461898467470303
Ni 8.564125468640984 2.3421350022162812 1.3364434911483156 0.43348156523489856 0.7949635002030438 -0.059129459172304624
Ni 6.973667252001144 0.6923813877654226 4.582108347836042 -0.8668865115955909 -0.15015628127383818 1.1455429293260724
Ni 0.7616283525637053 7.340811558425342 2.447145553046789 -0.5978987273031252 0.39269461312552373 1.7153150735963105
Ni 7.799155056504799 3.828218687530422 3.8369782866331374 0.6059519366249048 -0.24216680744487973 0.7073030234705818
Ni 7.6890481605434795 3.9891070549701415 12.682178881442365 0.632153534720937 -0.7044074470903416 0.7809982962722033
Ni 8.155298682223497 8.56552671332969 7.0358060846512585 -1.6947192517228296 1.6779985965340392 -0.7974875521764782
Ni 6.806709857240857 0.8571668532582141 0.455576494768835 1.0060266442645833 -1.2313462982451373 -0.8404712548268556
Ni 1.9905135752656817 6.349412743182187 9.532305477412434 -0.9602640933174881 0.9731455772658466 -1.729560527771731
Ni 9.462860154599776 4.962034917498522 1.4374686837083461 -1.482422749474821 -0.9055155368216985 -0.42475806931897175
Ni 6.25930543050514 2.068137071625157 6.7824574053364435 0.8345788006018208 -0.5476316036174569 0.5452728735772931
Ni 3.5541843609733577 4.433465403136984 0.5608736638311246 0.2665244103536377 -0.48584079556290516 -0.8732425357206057
Ni 5.848404074029048 5.530066757930982 4.888751640077444 0.4204221609477791 1.1435912049163401 -0.408461131931161
Ni 5.2333031506441126 2.9890823957991026 8.973725669334707 0.10944851914183086 -1.53324703121554 0.9756323482434422
P 0.2217724491640369 5.645878721553466 12.515353422058613 0.10000639989232453 -0.4635339045355888 0.5999453254195086
P 4.017577799327051 6.2955376145988495 12.866357027487373 -0.3626001077329884 -0.33285218704659447 -1.196274908463301
P 2.438429629103202 8.486028824724283 1.4543154664430273 0.29693361877311436 1.0295195851802013 -0.35180995909601986
P 6.467035406110207 7.7853245894474306 5.745080476219878 -0.23716472624459797 -0.1745398523245252 -0.5629769757252756
P 4.781774797187003 0.9151674645809007 12.589050703592262 0.6779502813400776 1.6611514430697132 0.15859875561423653
P 3.9660775075213275 6.33768414315788 8.333762661615856 -0.3705782408424585 0.5424798842131884 0.6069922049639611
P 4.679129074243475 1.1093399428731527 3.9142987865761585 1.2337639065476944 0.16994811918878475 -1.6152608511851858
P 0.3117742135398561 5.460222899291277 3.688250721313269 -0.10413456312808518 1.1785921464715574 0.2530901392256028
Ni 1.5032170862806038 1.1311411264714768 2.6691582155860334 1.2697015009845682 -0.011630642260392872 -1.1544163205563023
Ni 1.8225188954760918 6.454369609962934 5.116371101169812 -0.14982872273109032 0.8069579535607585 -1.0338284969682001
Ni 6.006426259150958 5.824846785074097 9.27336455793087 -1.3013558946650554 -0.5481445386981334 0.43480671180422537
Ni 8.570676742510264 1.9026628124769422 10.133394863809448 0.813217047096593 1.039714780545648 0.23424446727400947
Ni 2.4422512055269485 5.156908018135128 7.159976381851964 -1.2525046774903077 -0.09504494212199116 0.7743221698036084
Ni 0.47818111931529433 8.921251785440075 9.042975363830434 0.1193171844057945 0.8719502992717435 1.162326062321682
Ni 1.5452999218992387 1.3086533513544922 11.654310398427741 -0.10914770007196042 -0.5911673221165624 -0.9007888207699906
Ni 4.348817485351003 6.715710843398269 1.673850473600876 0.00992857196762161 1.3442046143994657 -0.5246184305517352
Ni 5.758888195798534 7.981435152926012 7.849053015909995 -1.1842010080179026 -0.3343452266523532 -0.21049055938752134
Ni 5.3681411054619605 3.1281513816575273 4.73708146091129 -0.022641905769231974 -0.7062812670742868 0.15017839276102524
Ni 0.8224259938689147 7.354878599261322 7.367393352149942 1.3049430977956817 -2.1149172124749445 -0.32093101012897635
Ni 4.911544613747645 4.722258293882897 7.277700953484617 0.9490036899123204 -0.7631705240621631 -0.722423424051788
Ni 7.998796028679602 7.060107671109691 9.263256488290061 1.64947169273894 0.5855466334956754 -0.5610800158128788
Ni 4.63788334584147 0.4824494562209595 10.374784738615382 -0.723740857311631 -0.8281659550969416 0.09626390213075679
Ni 8.300272913555759 7.215936999283688 4.633579522869013 -0.23435193938615126 -0.4780732358023444 0.41097489949195026
Ni 7.279229584054115 6.005707438823634 6.893151186248552 0.21463543479383035 0.6072727123188573 1.0373804759855165
Ni 2.465799395490414 5.323310374414823 2.48420756516394 -0.1658821766495272 0.413791543005139 1.392274216213183
Ni 2.2706897210751955 5.106235734554548 11.493769612462755 0.93023952193094 0.12239993709617632 1.1173579822514241
Ni 1.437749842545236 3.5441299753823112 3.769180791178433 -0.7039834721790457 -0.7125277622046309 0.6653027677793961
Ni 3.6361298782882603 2.541812370357025 2.584660431159557 0.3888600698707819 0.13022611800881442 0.5158792509065245
Ni 1.057430196450599 3.411239204742276 8.280933007154157 -1.124326186039141 0.2794899693753703 -0.06389602732301254
Ni 3.7941156674442293 2.5037330909918385 6.879207891696769 -0.3815977318814138 0.3425028227624811 -0.13872361395686433
Ni 4.030880524878282 6.784926871625502 6.1181509557983285 0.00016506482295455444 0.33414519482640515 0.14141041676040805
Ni 0.7883693786392958 7.544210414083495 11.564525190049267 0.8338588917166607 -0.05006966296288151 -0.313432387759086
P 0.04607183348570708 5.422170916900545 8.283929305050203 0.4674941747349175 0.7294137393266923 -1.3026000514848017
P 8.365330702674296 1.6006581860946492 7.813696154797153 0.22430483956279434 -0.727415735060057 1.6134150562256988
P 1.5642076262052977 3.17792286508108 10.376276063319793 1.8500658189483556 -0.298650344353905 0.7172529355944421
P 4.023091788167028 6.265474546732046 3.7783689527800974 -0.24488806303078467 -0.9297026755908634 1.0942769320622443
P 6.973139510495008 4.1265746183271865 10.669109816184244 -0.6634330615605091 -0.35296027065037927 -1.240965052281824
P 6.19812381175926 7.856487801852478 10.11353904459064 -0.16883226041678664 0.04099495435512295 1.5210330056478514
P 2.167043109068305 8.592796390810566 6.070288440788352 0.703092327823344 -1.0906056538582445 -1.597220191633391
P 6.971410702112837 3.9665870510444936 1.7471492193074782 0.1782278426990737 1.403755734490221 -1.3248616910964794
Ni 5.533588067635719 2.8552544290361013 0.30840030749717723 -0.8356746047691608 0.763496539943014 0.24097124447488177
Ni 1.6385918815960736 1.1909851934690467 7.223873139657002 -1.9536337109396935 0.4674296400455692 -1.3980946795497018
Ni 6.753426163104051 0.7052974061785364 9.127473148256911 0.6307669387860557 0.023042740752076442 -0.09859023627108826
Ni 2.774591869520599 1.6985087405255246 9.097229920358702 0.5981129001964602 0.6471839466914983 1.8700607740130442
Ni 6.344471990805772 2.2074881262196198 2.7023449672296755 -0.4137066966008166 -1.5612748838870336 -0.3773775231524791
Ni 3.879800870259512 6.932940166113791 10.74423290968361 0.8430513568492062 0.28259766176641654 -0.508598143864079
Ni 8.39612168985991 7.32793648547391 0.35245125497404134 -0.9175333872181811 -0.0498716880194625 0.16932077001743098
Ni 7.30640827162014 3.850584008600823 8.525438376644594 1.599037447347788 0.06839571496557897 -0.6564018657453404
Ni 3.1902519985434044 8.571404661829073 12.482725348492156 -0.8721984107268076 -0.3262886748964639 0.8402511683962496
Ni 9.25176355214522 4.894993548236229 10.39092543961082 -1.109897412208321 -0.8995654898858508 0.03562726228530639
Ni 8.65008364120082 2.165086825899006 5.777108926247467 -0.3847463048127245 0.6128432644280994 -0.4024169826196102
Ni 3.73017705427836 2.7616076086713472 11.362208204478693 -0.29629881340259295 -0.16009616609536942 0.014322330159943076
Ni 1.133625151146912 3.323452134893933 12.659939126454459 -1.0601758766134775 1.1086373145489745 0.8958145074838507
Ni 2.986543777174757 8.55630033596379 8.23062013373724 1.1273204927807745 -1.3829881629255667 0.15158401485930023
Ni 5.703311555807481 7.86042766516553 3.482125807806176 0.21235538051040204 0.29893239437069813 0.6835128630295196
Ni 3.1930544879208185 8.33177362207721 3.4671179312506353 -0.2464937169550077 0.2614896761432077 0.7219482841875825
Ni 3.5439570945440937 4.3921468828030985 9.368702880812709 -0.9487566068985209 0.30945334850667994 0.6721719840954036
Ni 7.35261295038153 6.224820252776573 11.536385648982415 0.01985714393524322 -0.25126028510571563 -0.07786945878396911
Ni 0.6273363372349636 0.2800187332568214 0.46721956427318206 0.41845218170560194 -0.7084499925908315 0.18736117245890957
Ni 4.735142465825812 0.28094501059000565 1.4164536529743352 -1.2676705865974685 -0.4570529247969354 0.9292267643957093
Ni 6.130918660650235 5.610520040642326 0.4287381094843539 0.30617082110066624 0.650994321576524 0.43755444975269164
Ni 7.930671879430581 8.697298308017057 11.375631946616675 -0.8165114015771486 1.3440238658472272 -0.16015710124029192
Ni 0.1048604174710042 4.755851770445924 5.943681433667935 -0.03868250417186241 -0.09467778859055953 0.10480690660476144
Ni 7.97968814656087 9.039138319121164 2.5545764356123373 0.2519236297213274 -0.45325232010392263 -0.6621541948480855
P 8.82416554629395 1.8122552330808872 3.47614686050131 -1.9572191142981066 0.44643298318924407 0.8630242004267072
P 1.833037329632879 3.3026063454015455 1.516986590095021 -0.08301192221685703 -0.041335882634309457 0.23346388035424306
P 4.834248681081633 0.9602347694066515 8.146708324362406 -1.1780997802161712 0.26936496512622643 -0.5441331035458952
P 8.575908662614202 1.5566190673067157 12.479423324482209 -1.0777154281591375 0.36432968882958544 -0.6879040501186798
P 6.465215607813185 7.812758048775038 1.377207882900758 0.1400652155864233 -0.3068534489899876 -0.08544110048363995
P 1.5430433720109313 3.0848583801713723 6.098761004943559 2.2956662789339752 0.510623916044856 -0.5194137464223443
P 6.899783441142049 4.035621099442024 6.154187511575108 0.10755104500880186 -0.4418613046581616 -0.9012127956812866
P 2.2505263559441913 8.808315103126887 10.424164965405076 0.7303953865136711 -1.0838313112488882 -1.034074037320103
