# total energy = -340888.4342884145 ev
CRYSTAL
PRIMVEC
9.15140027077343 0.00000000000000 0.00000000000000

0.00000000000000 9.15140027077343 0.00000000000000

0.00000000000000 0.00000000000000 13.39399933399170

PRIMCOORD
 96 1
Ni 6.541649603267805 1.9590951358292708 11.623259204683078 -0.3679374607855018 0.37864199168719953 0.03740055213564526
Ni 4.575809885537217 0.6839070107735615 6.2374378447579755 0.14478524676991195 -0.807154642952597 -0.8568982900346276
Ni 2.734044850870464 1.4343538519466759 4.678028279652729 0.19826110720086498 0.17917066622831723 1.2597623874939852
Ni 3.719138167268407 4.188385360717377 5.277744239441583 -0.5229955502363316 -0.19711825184567344 -0.9814145021428583
Ni 4.944638765277716 4.346219558888341 2.54465937044554 0.82305228801946 -0.07033689785234983 0.1309869074342389
Ni 7.0267836273554245 6.064120392694424 2.470576956052684 1.2008566142967125 -0.8327193787955788 0.6570667530228491
Ni 5.052304987895065 4.62338801485193 11.670740329156335 0.9203410318703052 0.012696364520745877 -0.5272967487148467
Ni 5.612910608916408 8.233999727890067 12.273564104431875 0.06210011176485434 -0.9199473959763125 0.6152701287020371
Ni 1.8586036109197002 6.328019318458678 0.6707189280354521 0.3225587755403864 1.5525670717003908 -1.8809717644985928
Ni 2.921273346282986 1.6533377058362226 0.3690622404440047 0.3783658552076774 -1.7174789140168487 0.21239214728560843
Ni 0.482390434326406 9.057854525265906 4.922321245762466 0.3999479522538273 -0.022960979671547553 0.5524002286506937
Ni 8.848461338720428 2.591960212336087 1.1860791116371252 -0.39337852656642575 -1.1750591936176342 0.6908934717643068
Ni 7.040336850959019 0.6672807470038041 4.845587670749784 -0.45413009472318566 0.19712570804484117 0.30407408647263756
Ni 0.9105588228382955 7.539957541464256 2.803310883370969 -0.8049429800132589 -1.5053024822864722 0.6565815858563144
Ni 7.602406696002358 3.9938815021955656 3.9747633121683745 0.7094786909656621 -0.5665137852339404 -0.7729252894560817
Ni 7.695833340005802 4.080627624098654 12.584198315558181 0.7989592516259981 -0.41556946084116814 0.058900116770317916
Ni 8.008939344309239 8.76960372373584 7.077723981080643 0.26379904100267476 0.7843343026239719 -0.4874356508538508
Ni 7.122781814797497 0.6963099033798762 0.3703297093630445 -1.6328651945305106 0.6637431366017601 -0.3036215723162513
Ni 2.122731321687392 6.514158797254842 9.193788507767888 -0.8970432376846292 1.0052691972732688 0.6317861240791893
Ni 0.10155400246553094 5.015671933144768 1.5025793702515509 -1.1377697131385565 -0.4109221918771439 0.22204561121497243
Ni 6.718930526730896 1.9962223661869911 7.060285072978679 -0.8806866507034768 -0.3740790549068655 0.5790473989245769
Ni 3.2427071247115222 4.296509153341598 13.24178956009643 0.8212306614296888 0.5226211976160483 2.1413137001906026
Ni 6.183418044886497 5.551102052387929 4.696391479168579 -1.7000792304831622 1.277600958337303 1.3382196004606242
Ni 5.209297257253382 2.962280770298994 9.512886848881342 0.6223797431636249 0.3696919815827633 0.1653270754770056
P 0.1947170861450146 5.727458684437135 12.547149787241642 0.4336646277799821 -0.21141358542242297 0.14699151039261138
P 4.153500223393337 6.420485065447687 12.702092142969166 -0.840153723586437 -0.9536861829896544 1.3542517142228225
P 2.283210274498086 8.508523429213925 1.5573742937146728 1.244585936863863 0.22984376710315255 -0.926692942230262
P 6.2248189791084165 7.9449893601485915 5.692101334866002 1.4442830051803062 -0.5118369625163508 1.719389500776
P 4.806727165206026 1.017882783090502 12.78175965686592 0.1099758524002106 0.735395925052056 -0.36795391584573406
P 4.167703196406692 6.343402822089767 8.376366229548678 0.039037573518435995 0.16201112372989515 -0.40452451588091626
P 4.9027253526480985 0.8883007874239383 3.910659584485417 -0.785250386680338 0.22043327242253005 0.07048139385001409
P 0.22665364234476137 5.564572913390286 3.817517549026249 -0.5839304380484911 0.4504372192526307 -0.6221349741426705
Ni 1.3153490445590013 0.9295168633630807 2.8686866556730357 0.9358257577694657 0.333493163064703 -1.840961542654242
Ni 1.9433455761926828 6.459177185228915 5.001239259987962 0.26202343715949067 -0.34284992168925466 -0.5329284930793273
Ni 6.151250873403286 5.949965827379608 9.3197190947796 0.45930469694558956 -0.5050777894156462 -0.12257142967703406
Ni 8.68477939586162 2.6954533964907483 10.379117204593742 0.32182086893309736 -1.317182577284667 -0.04169583707688948
Ni 2.649678093003118 5.329995073666489 7.020303520918081 -1.314221437773814 -0.2882093515262391 1.090442645917819
Ni 0.6859898694448501 0.25872472412652897 9.142784094241707 1.2789515588279263 -0.7970496933081112 1.275219859699636
Ni 1.5342688386475858 1.0888701939568657 11.521585318875747 0.16727545745262803 -0.7899110253808009 -1.4576645686935348
Ni 3.955555438419836 6.692208438329479 1.8745837858397525 1.0218857227840272 0.8888571023294111 -0.7856640771789889
Ni 5.873414365229662 8.068093994797852 8.071250312705265 -1.125071805955914 0.2220985759400949 -0.1904336407366462
Ni 5.562925661365542 2.9907507761266667 4.69644547242939 -0.07991939933446236 -0.9760118430700481 1.0227907510967997
Ni 1.0345932397415243 7.527822784881969 7.1424838641534585 -0.7324491837189063 0.1241212906626572 0.06436525364994722
Ni 5.093925555720284 4.606567741399258 7.25145782185045 0.40298545352857046 1.14461064731979 0.9452763616594042
Ni 8.52277215922797 7.514983370489097 9.273361762243226 0.4942675861740197 -1.118791372263841 -0.3130068701858932
Ni 4.581822355427536 0.44289390647309435 10.426424452464385 -0.6141025907564972 -0.46655315097788685 0.48289405422975545
Ni 7.99996182077438 7.444618254832081 4.3833339772858695 0.22000852618028563 -0.9816914099533286 0.2815555936551474
Ni 7.42153842368538 6.273943695046361 7.140943683510321 -0.18786279468567646 0.08847191689016376 -0.588457122274251
Ni 2.290805936612187 5.185531071096369 2.638028360628117 -0.3873644591618619 -1.346216502623172 1.122906679983795
Ni 2.0886149019749 5.318702245896849 11.501868627279567 0.051443917602588825 0.0393497054422161 -0.4926038253183517
Ni 0.6650569567703987 3.2931038852685757 4.052113691550322 2.523646253355512 0.41720159712795246 -1.0711575724359617
Ni 3.6150226879043976 2.2679731932691967 2.573254750455096 -0.13049351273758816 0.48024298976015356 0.49246909951270024
Ni 0.9685384335492576 3.452814120467722 8.267620141715108 0.22234025963725576 0.05317915512614067 -0.9046130796120873
Ni 3.623204039627297 2.893334121663287 7.21052543931557 0.29061127609951243 -1.3646613395919207 0.8189063841718864
Ni 4.270693053553792 7.131951517735243 6.322342704953405 0.27134805699452624 -0.3892349367116974 -1.0431965684466615
Ni 0.9229736122647889 7.668717741398475 11.588367661378944 -0.69357898901627 -0.8093573070308706 -0.30802330092837277
P 0.2615415250888426 5.690166728876941 8.088569337465431 0.24606100029296335 0.1909740866211485 0.5428298113534393
P 8.704445754757046 1.597422650996274 8.106517063415039 -1.7470432579375268 1.1169414635392958 -0.5561591814724938
P 1.8586585193205252 3.1998785720681573 10.229291396683077 -0.719897829416457 0.38138175921586576 2.049409360580122
P 4.047215862196747 5.7043513990900205 3.9460324914367835 -0.03343256862683274 2.4720586110862075 -0.8153569762577312
P 6.881404484771558 4.177037624546912 10.438465864765268 0.21197717123537685 -0.5069279552505076 0.8577081875304325
P 6.703894776305031 7.927308855082996 10.199235453211582 -1.5870759041105376 0.5682641922661439 0.6122547389144811
P 2.5486649382857114 8.439128361971482 5.8953017689384515 -0.49793963570896815 1.4570433901697681 -0.20244454915459328
P 7.024944195927793 3.8226588056234805 1.3739967074799988 -0.22688314181293184 0.5689097962699428 1.0380731311771672
Ni 5.196952018467933 2.8017835146880254 0.6960243796955872 0.24904939349732597 -0.08941088376466537 -1.1166871814366446
Ni 1.4241317379931206 1.114558174142747 6.940046656852473 0.581746800133611 0.0864911390147091 -0.24744322535247065
Ni 6.732630172736689 0.8395467031915607 9.372477831712136 1.6409693116948838 0.14942917329982652 -0.12593109017788634
Ni 2.8306836363221595 1.6571263854931357 9.084989341813522 -0.4690273235499922 0.6251205391335557 1.3847830500424605
Ni 6.442027461371294 1.9386692107224353 2.7548377471228123 1.4766897036457858 0.15787087630927651 -1.3103971789317173
Ni 4.269951790142657 6.714162647259273 10.587246582780233 -0.6042442099051787 1.3153797197479733 -0.19626773091992006
Ni 8.129811037324957 7.184242618120753 0.2875168592390407 -0.015471870383354 -0.008956180752023285 0.8791540161090342
Ni 7.681026374583373 4.089824781236813 8.359154276170122 0.05604079294465188 -0.43994326169984227 -0.0689418172770361
Ni 2.981608527389333 8.495619955020091 12.62361614137031 1.188826679715372 -0.2911985160615501 1.1829509376608853
Ni 9.073055000894245 5.030378233165683 10.235453034395636 0.36935182463452515 0.7388000656375986 0.027551170145391258
Ni 8.764735178862706 2.4601708989563655 5.947806096947165 -0.1659611095165787 -0.24358554216927727 0.32192679838334237
Ni 3.655773872716557 2.70608732345049 11.536104015193846 -0.21156682317083564 -0.8634291491746098 -0.4392259239178436
Ni 1.3470311918349263 2.9696751016100706 12.766543623857348 -1.5940515640974222 1.844941610347913 -1.2432620758461168
Ni 3.093173246465244 8.771607880365947 8.098480303814311 0.6867624803150689 -1.3961948914238276 0.03835674540132749
Ni 5.636283284867511 7.802401394606653 3.600869132451785 -0.6966810249803614 0.3154507037406954 -0.05791564136986154
Ni 3.128909464002069 8.176519783626611 3.7623071519968856 0.5541357232845618 0.6302560605879081 -0.23115117306066643
Ni 3.3841694680365513 4.47284748259053 9.381625571289552 0.4507534649414688 -0.23393362090181002 0.10998639392317187
Ni 7.41009917351354 6.351218117807167 11.57884471439589 -0.6091961545938153 -0.6149811367067086 -0.5416900413220412
Ni 0.5056578691759264 9.138277029674002 0.26132097634552953 1.328329337930106 0.11852065664642815 -0.3189312060901281
Ni 4.8492720244451295 0.22104383406049158 1.694461352633977 -0.7504178523821851 0.02498675185232471 -0.4818010782758928
Ni 6.005871730819419 5.547642823135965 0.43974765510583175 -0.961077847468035 0.7991351150822301 -1.130464694836711
Ni 7.969295478913715 8.799400682583446 11.81167189127339 0.09865014297474622 0.4169133764635723 -1.2534241039807832
Ni 0.09091549980572074 4.974362512924223 5.997203524609207 0.1715915683294787 -0.6670660303274061 -0.08779725942064234
Ni 8.266258413374652 8.85667014464374 2.0501927484977274 -0.9199759352214026 0.06121205273294619 2.5092539891895815
P 8.602608974027266 1.5294552021752759 3.5822917901727185 -1.2787628398558881 0.07754909933007288 0.30310349502925216
P 1.8191976819277496 3.2738859449798863 1.441247601670233 0.6058285236731632 0.7593007566941117 1.2961987759441482
P 4.856153877348508 1.259205204715616 8.291394564132245 0.36034293626769553 -0.8639976200835701 -0.3069472942553746
P 8.72588748527914 1.621079020351637 12.483019520498285 -0.9246615136225301 0.6050029424480742 -0.3210428531164923
P 6.197245810494215 7.70973431681462 1.3994586480824847 0.9453768917930105 0.06144448045872644 -0.649364756392901
P 1.9275777137558203 3.2095332992131893 6.062016485802818 -1.9821703849268058 -0.11711194922435958 -0.8527215329491186
P 6.867393691161089 4.062635971428386 6.334317312033286 1.2716478260776616 0.07651320186639081 -2.339267303453378
P 2.5829735374010907 8.436300579329004 10.470463735345938 -0.09376761807146432 0.36853215694670727 -1.575465573565119
