# total energy = -340868.3948322564 ev
CRYSTAL
PRIMVEC
9.28486580329044 0.00000000000000 0.00000000000000

0.00000000000000 9.28486580329044 0.00000000000000

0.00000000000000 0.00000000000000 13.58933963173598

PRIMCOORD
 96 1
Ni 1.9130072650894567 9.112826235710505 11.021796441276772 -1.1788597983106472 0.04073167339140727 -0.9631586412564638
Ni 5.13322146028632 6.904170283092336 1.9237479975099459 -0.17653837081179272 0.10342879531031221 1.2525280745290752
Ni 6.417011959580731 1.722119715095649 1.8307145735991062 -1.7440474085339963 -2.0511564251782155 0.34457461768984526
Ni 6.942591056567426 6.69982896297639 10.719460793608675 -0.11948327767001357 0.34506184173890897 0.20034164387897754
Ni 7.144063353241176 8.702128779663223 0.47339536736802734 0.03900106385354574 -1.821566168846766 1.263686919359372
Ni 1.4137971861475305 6.899007897869486 11.804705585837684 -0.95643263538654 1.3087465307021717 0.6052911631124543
Ni 1.889618688872987 1.4855784813954573 9.259925431478631 -1.148843454454215 -0.7202786097946433 1.0408157269193108
Ni 0.17383682297359118 3.0752960143367365 4.997370879082011 -0.22562252993295334 -2.501903205251465 0.7118461627565741
Ni 7.997927440019741 3.0876727400598623 1.2469685796599226 1.323202815336818 2.6263960203209282 -1.1525802957888278
Ni 6.568633813338154 6.609849331331369 3.95851977434043 -0.1840562764553927 -1.3893989515479168 0.19257974054537158
Ni 3.712479194738265 3.2374469055810504 5.443821566743727 0.2501274570528531 0.9963855216303936 -0.342018684037211
Ni 7.6994654382418855 7.708936001060782 5.8790059985971626 -0.47347790312217813 0.9632969666065408 -0.2680462463148029
Ni 1.9040009455459967 2.8714096526307187 7.45975899388977 -0.7001486718139878 -1.2273952840171893 -3.009786839547023
Ni 7.785703269086891 2.7325730586788044 8.90968730567794 0.32192139906670364 -1.293818962858062 -0.030199663511831856
Ni 8.2883023239395 5.080167738769484 2.7670477643126876 -0.325859043558213 0.16880629227485766 -0.035141580898139485
Ni 9.005781021260454 8.180440041324683 10.267588672976418 -0.09990766953093116 0.6913182180065514 1.12184044350281
Ni 3.5789442589918314 5.532192131196088 0.42945566983455313 0.4199277378098639 -1.139418304485573 0.6454782768543013
Ni 5.431544189081545 4.768753349606961 2.692673206128175 1.270972911497824 -1.050669994005571 0.9060899212679299
Ni 3.11165554766889 0.746861582709854 12.636223786796409 0.9497454531743516 -0.374550081006013 1.7860900874273433
Ni 1.2918776171525073 6.509879184398964 8.742701784963234 0.14984029269531612 0.21599529125583444 0.29820322951415745
Ni 9.046160901357885 6.210869375556093 13.452956767919048 -0.5400501917257732 -0.49715853456856957 0.6021924695824726
Ni 0.4927645253057715 3.6624801939737996 9.479216313550168 1.2960157133990646 0.6861724121395538 0.7658398433642101
Ni 0.35841159290801894 8.061816599585255 1.2768417059476833 -1.0531629356307541 -0.2295360060547466 1.820192942648323
Ni 4.72606153799786 8.316992558361452 0.25795863296915983 -0.6567944731980689 1.6482648169150325 -0.056588437918005774
P 1.904223782318206 0.43706183165929796 1.2116786628343734 -0.5092020959966649 -0.040818576678258736 0.41748107604158424
P 2.327715783036507 4.364963833498168 8.660050697664248 0.4066600741666803 3.094779282529019 1.661254544306481
P 6.810764536074597 3.580764092631541 10.667033800513678 -0.38111693559025334 0.3472385376752536 -1.7730306831402238
P 2.1868272338071657 1.6423720052412392 5.580869895598662 -1.297024100058921 -1.4926284863632293 0.5504155941204972
P 1.4574546237695396 4.501822751096724 4.198181651338103 1.3782552762262716 2.1800759085604646 -0.9263761823207918
P 4.22091842999586 7.992579357486718 3.710854343274239 -0.5020315463901547 -0.01921231126239272 -0.1591353448439969
P 6.939034953077586 5.2768119053787 1.0057728428802086 0.4676574397856591 -0.8269536799563951 0.23809392292708673
P 9.234560107395355 6.024419991275455 10.382133273297862 -0.1053463240479992 -0.7172583349110808 1.8842015842898003
Ni 1.1650370694378613 9.31485562431478 3.3720449584282335 0.745615288787219 -0.9061822238714199 0.5036749955308487
Ni 3.116492962598934 4.450180329137215 2.543163659273985 -0.45713879964252235 0.2464404951195691 0.5931606983975074
Ni 8.552967415265611 0.8193401713574857 2.2616326097512833 0.9418588513374231 0.5195793254659311 -2.0021781955073
Ni 7.535401864702775 7.631834477876357 8.514944034034293 0.03780344400101877 -0.4473369830607522 -0.9713463192735786
Ni 0.9235674291256402 7.11258765916661 4.865934322940547 0.04864064382583881 0.42052757617739184 -0.16607398094535913
Ni 0.6253979006113088 4.485871352152741 11.913814825890325 0.02459465862022861 -0.8633728420153777 -0.25899981984181847
Ni 3.3629504326624406 0.7600173086491616 7.450518695735491 -0.04151148898022528 0.02012119622990728 -0.7577048729619016
Ni 8.1370240102059 0.6365731647376062 4.489618723872061 -0.35836884326046026 -0.10341542557387351 1.1781923399299772
Ni 0.9129641127146801 3.6475686999667927 2.119978059117472 -0.7602775187850841 0.518219726114243 -0.9296234856134956
Ni 8.84856967846678 5.295353781799617 5.214120493463811 -1.1200162458098775 -0.05676070182981192 -0.9994767589612077
Ni 3.926161089555985 4.715281809142234 7.312899347651769 0.48190160840949914 -0.7308643557302896 -0.4762636933974313
Ni 5.434162521155004 8.990795248329377 11.650588888718067 -0.33177463771169957 -0.7293378917834342 0.5016116852439167
Ni 5.274054300322609 3.3888923468938086 0.7035281868940995 0.08377939651050087 1.3424508649331526 -0.40729950752289207
Ni 4.2000460523322545 1.123654423865489 10.311563652998824 -0.7230566867604128 0.18759180041247694 -0.6189725172542889
Ni 3.035853905655687 2.4241019718825463 0.9115797392673297 -0.6240499317771961 -0.8339637927256411 2.4008920182437103
Ni 7.466842417786374 3.893032689420866 12.542171813139264 1.0881829033493646 1.1813421984128687 2.476323557010148
Ni 0.7980499747459872 1.9484383118707385 13.544168501217076 -0.2745094854416434 0.9441905847943932 -0.0049038650595205876
Ni 3.407062828694377 8.026162716031763 9.828340255489813 1.2306965804762806 -1.0910638244415856 -0.9439239613965678
Ni 4.010384104585598 1.0048545696813962 4.575829628607091 0.4366203679741964 -1.069486612491442 0.3838137656961261
Ni 5.831684753045412 3.831084066746675 8.576449768623718 -0.6155989727963657 0.8842381155001611 1.0371223372281235
Ni 5.519954678455592 2.508454975029282 12.044312682128858 0.8749461486752739 -2.076899338470275 -0.9490155169868623
Ni 5.522275894832773 8.695954344099922 7.765315561402841 -0.497993114654723 -0.3198920273415007 0.06700989036164588
Ni 2.4170826135579526 7.728527067284184 0.2743417781592991 -0.27961569631995714 0.4616989082093791 0.23196518432152954
Ni 7.616672292500614 1.4238155560314414 13.353197387433688 0.07097915942203904 0.9552728107504839 -1.8538792791571748
P 6.2065426282290295 0.19898859515016715 5.6847870388588255 -0.6825895798843018 0.3955850472994413 -1.243242278351775
P 7.50369404899049 8.814568500973841 12.030098481521554 1.3953274012172099 -0.6553981070711744 -1.6040654966899988
P 8.059625371325197 3.2318109922172567 6.848456447607252 0.13653740493882294 -0.0013467438358815515 -0.3273184017125589
P 8.775098537696266 6.3394554779863785 6.969958197654384 0.9236814090974478 0.11220731283389063 2.6635201788667353
P 3.8189394626612674 6.8718218116599505 12.453298008976333 0.6610262518912292 0.26676403716826963 -2.641786643844386
P 5.17048162557282 1.475253710949759 8.387639243044212 0.5576455362100332 1.3379640328063924 0.8550064723285532
P 1.6343963057692472 4.607623793568607 0.24278994818756133 -0.4694392142764303 -0.23815511518232532 0.5763803936153751
P 1.927844480172394 2.0566627042403973 11.438853101710977 -1.0223053268199491 0.6560665938931088 -0.7519959955025823
Ni 3.483050168017755 3.196435654629027 12.50391816724333 -1.8276090326067362 2.1047140466896974 -1.7891931518326993
Ni 3.542027633729154 7.006730907501675 7.34828582707861 -0.5583723870737287 1.0082233948055863 1.5405533350689662
Ni 5.8509229943794825 2.6825554881833207 6.624490635752073 -1.2845676194631233 -1.3484574761385486 0.31629196869506815
Ni 7.527509729020362 0.9196204327978826 7.163497505237482 0.8795527942093498 0.033793294400361155 0.9473337584090651
Ni 5.358249460755697 4.806282775993214 11.861577244051707 -1.2879385928178853 1.0820983877181818 -0.703904282201678
Ni 5.14730660126305 7.524306450419852 5.708052126364029 -0.47134465882925924 0.5636130666473776 -1.3402250609264272
Ni 8.774838561462023 2.2935846174264465 11.205116825880971 0.461079015237193 -1.0427283705609913 -0.03989657908462162
Ni 6.071735665907901 5.931682754574343 7.209089908831508 0.5037400444408293 -0.23746657375573296 -0.03620936004102151
Ni 6.07123428317043 2.0220023012963395 4.150823266324318 -1.3417751790223664 -1.7161069733699865 -0.04432299028709141
Ni 2.7073367942260993 5.399010020338985 10.947911195504567 1.7609544687019802 -0.9634291213090311 -0.9490602541818687
Ni 4.373032381625247 0.47168788060097344 2.289572627040128 -0.4468096498023724 -0.6312271662519258 -0.963844868690211
Ni 2.03449044540557 6.6825776828611865 2.615621821217498 0.3354392310474804 0.17810622951954488 0.35739902314802324
Ni 0.4385873350623809 9.232536006714454 6.158117412168291 1.1865301703717113 0.5021333620753416 0.6482789795278899
Ni 3.171682203182775 6.146144578094796 5.023992445468617 -0.6398617019984723 -0.5637177105460421 -0.8405419601637911
Ni 3.828112909783884 3.5424268829460295 9.876663338029957 0.6038482600183407 -0.5580599980396325 0.5871193772994341
Ni 8.079170013221056 5.205327725827052 8.826738174196123 -0.9897055385070568 -0.029166080040994927 -1.0897996130171812
Ni 1.5602102303545615 5.42120084890483 6.671468341280001 0.14838633385760897 -0.5429928192938648 -0.5757011081601634
Ni 6.766252890825785 8.621285455678784 2.76538948733283 -0.7303717323645873 0.37241092317582314 0.5749650013250872
Ni 7.025402772039714 3.7544653565687045 5.034320001373969 0.6392227828628927 3.385407527909395 -0.680140604123177
Ni 0.382342405270198 9.00291199781826 12.773571088320725 -1.1855207552705904 -0.0158747622487275 -0.2546698250078969
Ni 2.149799190158384 2.3330452958385135 3.5257540499520177 0.4042249823626264 -0.4402109135389322 0.30405660297114084
Ni 6.1149659997165084 6.634797764953305 13.229738387737319 0.6166922058605444 -0.5481190847768367 -1.0656824082540033
Ni 6.692577483014079 0.4611477012754726 9.693737560209877 -0.39792655094842433 0.037197949206535935 0.5044424698244925
Ni 2.6979126557347466 8.50213277660536 5.5479838304533216 0.1516871160960678 0.33968643635960855 -0.027063174765379196
P 5.00859071056275 1.1797442964036764 13.711371287784685 0.43153524014180517 -0.0263365810119998 0.31213192378010757
P 7.955978417651337 2.687560030692522 3.2934578567624135 0.8329209532834236 0.2324333822071997 0.7965858662978152
P 8.758915017114564 0.8060776694648278 9.260890129004988 1.4275924318985027 0.29754759820802945 -0.8360373874252182
P 1.9016425897067812 8.568575274185772 8.105632808407464 0.10059929628131706 -0.24228302130776988 -0.135843721305908
P 4.972435444271787 5.100232333133832 4.933935749439874 2.0240215166346367 -0.3812352063356724 0.3899049661955285
P 4.291687674903337 2.625258583129 2.877420674561065 0.588766940205186 0.13742572108104717 0.2628184222569603
P 5.26220681193348 6.788508713450192 9.086362512037548 0.36996426140754346 0.2672252930754043 -0.13717683829503474
P 8.482356013071783 7.683662597146041 3.7584717760357176 0.31813082167601986 0.39563364114918964 -1.1861455333387831
