# total energy = -381170.55133537966 ev
CRYSTAL
PRIMVEC
9.23524695312250 0.00000000000000 0.00000000000000
0.00000000000000 9.23524695312250 0.00000000000000
0.00000000000000 0.00000000000000 13.51671742895926
PRIMCOORD
 96 1
Ni 5.069236137131936 7.059348679150803 3.03286701507395 0.2961247497185739 0.23324713635774666 0.6541302961023444
Ni 1.9363264653626822 4.567023422749498 1.7124197566892851 -0.14403268487460355 0.20643104460616707 -0.3577857170634806
Ni 4.729536058552877 8.951835428530156 1.6893325635174452 0.13651169390721005 0.04108725695861311 0.789619205171995
Ni 8.263218495186793 2.5725426090516517 0.3886404213029805 2.457708513012122 1.1627973455311458 -0.3680850421069596
Ni 8.976983005235992 8.843247398083141 10.14501267596166 -0.7726468389837144 0.449116186448362 -0.8263780099585832
Ni 6.224288439224829 0.7774461535215079 3.7557550253169416 -1.3105941254338718 -1.7361620922486485 -1.0467418625957585
Ni 0.9153874920117957 8.747542536752777 6.380309620137819 -0.6630844199718386 -1.8211267673165024 -0.7416843291639291
Ni 7.5273170988489815 6.0490219277583 3.058860540375546 1.1012579913657679 2.3003312885098124 0.5963074715566052
Ni 3.96491304504461 9.250854245489968 4.137953862061597 -0.6835432020468228 -0.4910382806034446 -0.29283836565781823
Ni 7.202033240335222 8.422277148732375 1.8084552398507434 -1.0684016069573794 0.5907988830335503 1.9566853532818238
Ni 5.470276724150278 8.026500652320838 12.26347390574575 -1.088247695149029 -1.1023771925718757 0.9653836739322407
Ni 8.479858911773464 0.4443723644343468 5.238957806492633 -1.2597785854439012 -0.1367387223163516 -0.33456017087663675
Ni 5.545682513281072 5.567283755262324 11.902672212030751 -0.5267647874707767 0.16739347108773106 1.2550274439121614
Ni 4.049692609554187 5.0250454817748205 7.753431955003232 0.5009221153760599 0.7156459961186385 -0.0396680080135833
Ni 4.155223773350585 1.407451593819117 8.22831480388968 -0.4453415498972782 -0.9945512966351322 -0.9124811695062542
Ni 7.499131125985884 7.274178987388469 11.585759181106477 1.7959780359650166 -1.199312409738044 -0.061974641930583586
Ni 8.69144764842694 5.002308304452099 1.4477486691765338 1.7320071895400104 -1.5616335527780332 0.3548060656098664
Ni 0.5911943161307793 0.2051009758617576 1.1146074627886189 0.3071151872918066 -0.373700331411208 -0.7932118076192598
Ni 0.7472533615551508 5.0917701390277275 3.7542949328170545 -0.2781542812830823 0.2271687913741507 -0.4183434240418795
Ni 2.694992744763251 0.1293987353125799 13.44922786189699 1.0400644505755832 -1.0313214142756302 -0.057776287578519846
Ni 3.542021864384694 8.503510378517367 6.599929327303009 -0.4152596429102332 1.2179716767104443 0.31703758861184106
Ni 4.1801127631494195 2.291181583741329 11.746324103385339 -1.3489974078024187 0.03871284318916559 0.304818677948146
Ni 1.810653228560251 3.489380958316656 10.820240348670385 2.24194153571701 -0.42371600120770253 2.1399127060780176
Ni 1.9291599139400861 8.643932304265528 10.5614493427179 0.5103634632946179 -0.2765933645538656 0.4868532959878196
P 5.8389108305734 3.5678436140980683 7.620481343818062 -0.2653103354408786 -0.047715560908408144 0.25245379119318456
Ni 0.4914102463424761 1.8203410023261057 7.007417963552349 -0.3106527681314198 -0.07013429492324051 -0.4609982825979287
P 7.093232799214598 8.037093480261195 4.234625653719211 0.15342132517835513 -0.04084017394481354 -0.6867336839596625
Ni 2.4877999855287896 7.976076205455664 2.2285555289643852 0.5984327454297242 -0.6617379332462733 0.7977567466774649
P 2.9214409933225998 0.7621839848604485 2.271511431840572 -0.47206276794220636 1.783899507533928 0.0842679061111452
P 2.8135179006364432 1.7405761767630104 10.053463675636666 -0.3073224182066062 -1.2451173838873009 -0.8860571709867708
P 0.9113627715092605 4.12628974550652 6.741773481039673 -0.6679908561345206 0.646239580500358 -0.3780005014484587
Ni 1.2884831461053514 2.3085715532371385 1.9169269061896086 -1.0393771947005712 -0.07991374290750754 0.3744837465444518
Ni 5.284629795416997 0.7414970323003773 13.382698991873669 -0.550799202712161 0.8744972340633133 -1.8658266813270383
Ni 1.7224750932729485 0.10609174326978917 8.21394660710711 1.6890160306904654 0.9635427640687599 2.293651819607108
Ni 7.71707371235424 0.3031174194357762 13.394863658798727 -0.5322062702013222 -0.5490608798648157 -0.95357356867119
Ni 6.0454478872936805 8.979162523452143 8.445123301965902 0.3478787423624138 0.6627879717773424 0.26575796450125844
Ni 4.215409875955041 4.964646968496757 2.154511015194017 -0.7410114714666206 -0.6692465829184926 1.127047441625046
Ni 4.136162224205948 6.741619252420141 0.7942801611672657 -1.1692731830634766 0.7955306855604234 -1.995228503662344
Ni 0.5848423134652361 8.227773618434314 12.515601681219621 0.5874160826042463 -0.44587531091356114 -1.0789786111422772
Ni 0.5897637764202637 2.838055951061492 4.856867022134118 -0.12247012821247938 0.1478428026493131 -0.7081278333647224
Ni 8.370264239438482 1.0650178822231915 2.7354052607041504 0.4867195986234327 0.38959514826459357 -0.030663490522127836
Ni 1.9812467052074079 7.5562788324330805 4.60990359660292 0.4808047758008946 -0.14446617286759636 1.324624635385009
Ni 4.099609117852037 3.462016922407955 9.483882607307821 -1.1259755487171061 1.4651827314474508 -0.06318023220291054
Ni 0.2607645781677022 1.1794425885710842 12.169465559230243 -1.5464838416207882 -0.7016854201734883 -1.6218665294271617
Ni 6.424296176543338 4.654638207989406 1.749901005334396 -0.7945652363233606 -2.3664047831001183 -0.8120626217771757
Ni 3.2431508113717396 4.672850114439611 12.706308601608107 -0.0012845231393784331 -0.25724375638266017 1.1569833099525302
Ni 6.129691807495898 9.081756878804745 6.133615863809637 -0.5292505300071079 0.9248504897048847 -0.7545552715893263
Ni 8.75961300416171 6.195483704834267 6.870304103164465 0.7181415088469825 1.3622272762291314 1.6612524874239516
Ni 4.51563851022975 3.9243333711388275 5.616547331619997 2.735451160679083 -1.836432030215005 1.1434567362210049
Ni 2.4779829183094346 1.3864875838586879 5.643878120640656 0.893029745649862 -0.5173319241926511 0.5295629190412041
Ni 8.106237772143897 5.2692346392037654 12.764782489478353 -0.9448706415805532 -1.000900893002244 -0.6630024017809937
Ni 2.5721916696778653 2.9757904200261787 7.297607884687418 0.8510032647064311 0.7221830259062079 1.3302936607453284
Ni 5.766294085939544 7.281225480604244 9.940545238022054 -0.6510699120094657 -1.4366108333470289 0.055848217317871554
Ni 0.6462243805145718 2.077791973985525 9.24590784736891 -0.32409423834830636 0.0019517244097321223 1.1397502339036951
Ni 4.100467995793147 -0.0029626671344958836 10.773242178322972 1.1654291267270378 0.3421343836794688 -0.6541344098674026
Ni 6.412918352635299 6.643060699866088 0.595500711657012 -0.07166307286294109 -0.18640755029638864 -0.7143735571641181
P 5.046018726981927 3.365767181523553 13.418977811401227 1.0181229133074852 0.820183194001781 0.2670178050502885
Ni 6.819130677793657 0.07787344704331732 10.826795526762858 -0.6682147992198686 1.4589838017255907 0.15290916142862698
P 3.00692243657975 6.061886626381594 3.725572392121931 0.9071749268019925 -1.694779929757436 -1.7626380270519904
Ni 2.534290217308878 4.511925941064952 5.324248080143537 -1.9568344772651782 0.5796379813207243 -1.0499868518956175
P 8.482444780843474 3.2614365997953736 3.002454424236642 1.1906063973236143 1.3360274779053118 -1.3552163921289369
P 0.8072713826700568 3.9489545387839833 13.256871526451706 -0.7863526186055813 2.1354271595028385 0.31087182612076136
P 2.9414075966417395 7.211637896880968 12.218639553695134 -0.04652719702726181 0.004075455620954271 0.31292613754662885
Ni 8.981591393328616 7.027200785462586 4.8270085460975265 -1.0931587592974013 0.4742453774158219 0.20026168257066157
Ni 6.590327441331264 6.72265005574229 5.955857682789219 1.0947129911583986 0.12583955890534457 -0.12199575967922215
Ni 1.2142687037960966 4.756004275533754 9.244812547112826 -0.620206646771706 1.2485644618956369 -2.038279826325864
Ni 3.6028821399966886 2.7296618607947267 1.3730687704346776 0.7380372193296451 -0.7163085694033019 -0.6748557015751538
Ni 3.232225514550952 5.686067498042518 10.51431633776898 0.16464007671230999 0.44751670317172604 -0.1568717456208008
Ni 6.537215537682618 2.4233933751922114 12.04239502960534 1.024000712244501 0.3616323445030804 0.4881020807932562
Ni 8.843561396470214 3.29729706264839 11.35778619332049 -1.3416767057712893 0.6202786376602222 -0.44531172510060735
Ni 7.6007557804372325 4.391646088322824 5.802280148147388 -0.3481888174036648 0.01012371869756321 -0.8418411385911888
Ni 5.671734395197326 1.9695918238990107 9.903158188893064 0.6250230943237429 -0.7440649135809637 -0.5975084338432419
Ni 5.162835362219579 3.067902770398567 3.4758781041478706 0.9833515712645711 -0.24694314578760052 -0.1944756720165038
Ni 8.640912378601625 7.179610061399574 0.5329956386115581 -1.1384597972270458 0.12971318292813788 0.16965064255302395
Ni 6.542285688109171 5.595866843732601 8.141645707909662 -0.45211923494074385 0.42232683416965977 0.2916967958542073
Ni 1.2116643642327307 0.30365029316913156 3.9456243088316794 0.4286933998176359 1.5543758427743553 -1.109174160889051
Ni 0.8461453065143009 7.093639150068457 8.86099200105141 -0.5421525827807565 0.4290286716698676 0.16596470906100447
Ni 0.17327816285662695 7.815105855847612 2.71959082429171 -0.504009496052132 -0.860820250796853 -0.24647829033604002
Ni 7.440819778457184 2.033296555488015 7.027206326610593 -1.5240111144395687 -0.15889854624284247 0.5621071715258125
Ni 1.879067935955343 2.255579707795314 12.931983860020457 2.34595294300367 0.5359400262121415 0.9984840560306351
Ni 3.382464507518468 7.417039018259781 8.832080137799373 0.2643171182896738 0.06261638927964054 0.10658225333762933
Ni 5.942585709787399 5.30649885955193 4.375793787399003 -1.3602680956202315 -1.8675050974707255 -0.5936263251800163
Ni 1.5615509198982886 6.680685094834717 0.6754613244496935 1.0131401153809132 -0.41756617955622277 -0.9282034653375176
Ni 6.427066750546919 4.371854954690578 10.248037393809483 1.098221261421973 -0.4133943075667203 -0.5701092158946827
Ni 8.389224200869654 4.181691990331461 7.897587690983552 0.3106923631201036 -1.9311722966123839 2.41851795885559
Ni 4.131369131179753 6.558502781276799 5.590081885213125 0.21918988693373218 -1.1004416661120595 -1.1152720462566728
Ni 2.092189723557467 6.122830019213696 6.930548387822997 -1.1049107576270067 0.9928309715099158 0.5871756844586662
Ni 1.0053489534327367 5.860549013541366 11.931665345453558 0.5103691197215726 -0.520926840632761 -0.7939751681478455
P 5.128535656055247 7.137996039865788 7.458186659836297 -0.6860510560703411 0.8230026657284469 1.4002554346464464
Ni 6.445878948031233 1.93653887603629 1.3550240219493548 -1.746743724419237 0.24200714193856385 1.7294594834174923
P 8.201406989166902 8.482897307930726 7.815163114377019 0.9099460617892264 0.026770583225624863 -0.4748657846086402
Ni 7.388400518309433 2.427152120590403 4.516867721562672 -0.2919857878495359 1.6510416083292212 1.2176222637908254
P 4.767529863388651 1.6116428978830322 5.424028455833168 -0.061581006036590724 -0.004043059721122069 -0.19595559899613996
P 8.271123866343677 5.873201301491053 9.583581712826682 0.20733298759514615 -0.36157937977795795 0.5687138782090528
P 7.746072386925054 1.9728795717165937 9.792212399969001 1.2052529435921955 -0.17819853212303505 0.5930822797510883
Ni 2.9138219148127518 2.7336145463731687 3.6942538235854525 -0.6394837498337631 -0.3033181821432196 -0.05364092525390762
