# total energy = -340896.42309397436 ev
CRYSTAL
PRIMVEC
9.02599753165535 0.00000000000000 0.00000000000000

0.00000000000000 9.02599753165535 0.00000000000000

0.00000000000000 0.00000000000000 13.21045974939517

PRIMCOORD
 96 1
Ni 6.3000919665128015 1.8492373029097333 11.236235693695123 0.517415742155709 0.29263010630175407 1.043503558164119
Ni 4.512890343115847 0.27920929819297924 6.123153536042133 0.3190736452052633 0.4227261264906075 -0.20946443211585217
Ni 2.5831411441994234 1.5740075669308067 4.865425038257162 0.9794224114134938 -0.0836626684269785 0.3702010600086979
Ni 3.3848211992911583 4.366912888618514 4.902586874382583 -0.7620261260450747 0.35756434508129387 0.25191565930152743
Ni 4.842916908764798 4.71451307103036 2.4206713874169528 0.722617285230149 -0.6031401782077226 -0.11528800864174338
Ni 7.2330461264836075 6.061444597631982 2.656028780278216 0.057529718785352534 -0.06974245880146053 -0.22402433220789802
Ni 5.105799080423417 4.547080820926761 11.493971241687484 0.415804973890742 -0.0685990892256367 -0.0017964297787904544
Ni 5.864316816377932 7.822055632953185 12.30513310695355 -1.2162462093789055 0.13115891423572895 0.3306204695025984
Ni 1.8468634656171592 6.3447616272008185 0.3964461720552782 1.016594649588417 0.516592217813149 0.04495676721634838
Ni 2.5981062477396804 1.6370812361342546 0.15243916597168178 0.525757686362501 -0.8254112751699397 1.165227038018561
Ni 0.6523512477931369 -0.08271875234902674 4.683345399718623 -0.8741035981693204 -0.1413620800209759 0.0063765929503051474
Ni 8.598237245643698 2.337408367430123 1.4849083370832228 0.34788491301000085 -0.08262265719823836 -0.20373061495586847
Ni 6.734513217051146 0.7004408588619764 4.951147642511013 -0.16729191251286027 0.5738614838482633 -0.932649159813697
Ni 1.025407450418848 7.355610143958367 2.5152845990213177 0.2711891628191588 0.3306646924769725 0.049609435497011335
Ni 7.577162273933729 3.8253891539977265 3.9380507498235016 1.468664005127832 -0.14811559669472554 -1.6385115941830104
Ni 7.52100251866987 3.721247197033018 12.486103450422672 0.10539851744217331 0.1610983821076387 0.37897314977437313
Ni 7.844927510137149 8.896284702822726 6.982824721251961 0.1682445062341167 0.35811636093002197 -0.5550119552419279
Ni 6.838104588179934 0.6177690416989625 0.3996043685141057 0.493226289393699 0.6900311237640117 -0.4977995105866782
Ni 1.8449950841739546 6.419054611060805 9.238682300384992 0.46658091889202874 0.04109805559189051 0.02024152385785546
Ni 0.14574097336780675 4.747819001104878 1.4153025536264068 -0.31050081593458784 -0.7349575519630569 -0.3067817152117878
Ni 6.17908042057539 2.201115808046599 6.947882377865111 0.6044804942857009 -0.7936717779748137 0.05415103212110674
Ni 3.3746398743252897 4.093939651967129 0.29041056085489664 -0.8167258315807999 0.47548439202924564 0.2773587819649804
Ni 5.8868637576587295 5.402826599906397 4.572853653646211 -0.9886447013427101 2.4195196606472265 0.5347912573196789
Ni 5.319092422859977 2.97502286941495 9.264389243324079 0.7425240514564051 -0.3975671107264766 -0.3514849716564334
P 0.2230269779358439 5.393087548808726 12.439880415597571 0.3119174937764564 0.591534218537678 -0.4920435819395075
P 4.017633870706977 6.15692159717893 12.7814097122186 -0.07101386931471641 -0.46700566513427316 -0.7743090571774858
P 2.4845862795697085 8.51029695385074 1.331666759950667 0.033411999801542455 0.5382421919827569 -0.35384010215217127
P 6.26329297547925 7.77321596150787 5.903965314762304 -0.33492346775332643 -0.5228220007729447 -0.19575171051544996
P 4.631058699900556 1.1550568757820887 12.531217190178348 0.7168099345197526 -0.41053164130694464 0.31537485619743755
P 4.034169497779203 6.044150786785702 8.268597895279353 -0.7141874092952409 1.011413876718426 -0.33641753580034967
P 4.665682425582357 1.0570796749802245 3.978607263537276 0.46850101873287703 0.289312869003063 -0.9162444932034285
P 0.3048846501414807 5.563904547903639 3.3851145442037387 -0.8306666100316082 -0.39340218071550953 2.2845490859748914
Ni 1.4252410792646317 1.052738170274034 2.638498488302409 0.27054510147725663 0.26639379831304444 -0.6472027157445757
Ni 1.6503043221936495 6.578381515579875 4.824724108586426 0.8683942064893689 -0.06250017541675043 0.005545869518893675
Ni 5.957699784548921 5.5037372498340655 9.130791846737372 0.23030605145155175 0.6634646861293928 0.5463535082359817
Ni 8.57846128553712 2.243465787425903 10.146795110558758 -0.0763872178114878 1.2969857906218178 0.4033672623480214
Ni 2.3460281948613324 5.350575101477839 6.951238243665031 -0.5142663978934497 -0.3245349254301507 0.7631093318069244
Ni 0.45964801042053055 9.332339658874211 9.054356091115952 0.5323996171590508 -1.0177529315625764 0.09250674908116971
Ni 1.3769068636686868 0.9446789304767131 11.326978557652888 0.23597970479756133 1.4168904720999662 -0.148954290545937
Ni 4.1603258621834085 6.931866648237951 1.6639633639231253 -0.060394956148289526 0.6026493546142331 -0.4134575567044879
Ni 5.622492296443934 7.828554351016505 8.072039654455574 -0.7102178831245317 -0.06483113754277221 -0.21449685233343704
Ni 5.279757126582267 3.146065518442617 4.669580753820617 0.3844786529736346 -2.074318465116976 0.0725012524935203
Ni 0.8300361282413562 7.628781952550575 7.0868303856572865 0.1903048284682658 -0.6567078270215335 -0.4473719500637456
Ni 5.056092913236325 4.572913225228459 6.920259215697076 -0.509350191538755 0.4603254249006201 0.09047943423849579
Ni 8.106058638317593 7.321248172198561 8.78968496679046 0.11549883910096884 -0.028113984627396744 1.7378399941717035
Ni 4.656439804336745 0.2505228735418061 10.296192515436912 -0.43174504215976606 -0.6884357542524338 0.23239995786610299
Ni 8.035105273462369 7.179422676463905 4.796757055920873 0.21492879766453307 -0.2765357718430527 -0.21719034000520013
Ni 7.182338073595089 6.033382771994672 7.014436471631359 -0.2159310136768023 0.15399828072774768 -1.0807146199967774
Ni 2.363764279575811 5.096520355188564 2.5461706592169784 -0.35555811328454245 0.33428609127964365 -0.08263756959657381
Ni 2.4279030164618587 5.130412975088243 11.447985590591644 -0.8531280243589179 -0.39215545279260206 -0.15900730390656487
Ni 1.1342158479929128 3.311069775269783 3.9046157479874495 -0.8873488932150009 0.5515260535758566 -0.012424856026914085
Ni 3.531078459705107 2.7425944126808357 2.970239993440292 0.8951521913095035 -0.5241214363106587 -0.6504381919627379
Ni 1.2561390196586504 3.481146642585262 8.298044308904043 -1.115240678798105 -0.11562070939081377 -0.8802043117504196
Ni 3.710163272336133 2.697238776197246 7.103303733348072 -0.9105451288258061 -0.04203110892912116 -0.5037017350037262
Ni 3.9903392548410306 6.891836350167359 6.132175922953376 0.9204225358405181 -0.2272605797570086 -0.9442137247228448
Ni 0.9734718618961462 7.412979382861789 11.496560800315772 -0.48150103053697074 -1.0590587322898986 -0.13227117346330122
P 0.1809865902642784 5.633025635304899 7.98893278422221 0.3526111148410766 -0.3009306557476495 -0.3274572412832683
P 8.36338982163046 1.7867322715368257 7.934360701885208 -0.20708436191944982 0.37504913212961866 -0.4091201056713986
P 1.733722589334214 3.1895527734830025 10.366498716284998 0.3184848625813289 -0.5850671227560956 0.9851204902395357
P 3.776585586541653 6.165387982655867 3.788429500212054 0.8474353448495148 1.0337847882144584 0.4842731939654692
P 6.98204216728517 4.018924588322331 10.383473909426227 -0.2711935336945329 -0.539714148542593 -0.1091171039443411
P 6.37990886072661 7.6534500031992625 10.1442588053146 -0.24224265498813766 0.4288209265344356 0.3203327144233451
P 2.4455037112166846 8.543341130003261 5.861599991187572 -0.4646798452145739 -0.0788711605756061 0.5133122615102966
P 6.91941077194992 3.998291158471288 1.7502139890196204 -0.08112807493058287 0.3473208129764147 -0.6174645652501947
Ni 5.365946374897054 2.9825505511716295 0.5255675765758742 0.18998601167626633 -0.9236688106919576 -0.48769070428745037
Ni 1.2154859277736578 1.18807397394268 6.796041635515093 0.30039972294484396 0.188105763934418 1.3394984671730479
Ni 6.867177325515983 0.6348886507971565 9.154319913925784 -0.4879100193871081 0.4808181455373333 -0.22183195254226953
Ni 2.8173657743982603 1.4766802379352744 9.077487917022449 -1.5515504575104182 0.5813745043958568 0.9711768835752499
Ni 6.446394356913301 2.0375466847917503 2.5432119372987056 -0.364564687658527 -0.8665669234726431 1.2134568195592264
Ni 4.245025820942017 6.639884661251354 10.551206725240256 -0.2041571609703258 1.014029459964402 -0.37420863850619424
Ni 8.361485336198013 6.9565617768785675 0.6490973757628216 -0.7195923823608962 -0.07363768009080866 -1.0407717610552527
Ni 7.510631647760488 3.8704198545781505 8.118381832445165 1.3178371801495303 -0.3041306507421859 0.4286977706930101
Ni 3.262509909741083 8.383219937720895 12.301196869526587 -0.20047405569178375 -0.26951408910958097 0.5279140705838715
Ni 0.045915248316820235 4.869841458741027 10.101879942743903 0.17954604728986498 -0.48732123676317357 0.4146839729124213
Ni 8.50925896416007 2.443229159894522 5.679017604598856 -0.11400477105394559 -0.3101524314562336 0.7578650526888496
Ni 3.759201515722271 2.6570550361723817 11.178611921667553 -0.9459705595129515 -0.38316199104474014 0.5003469595988802
Ni 0.8761084289113733 3.22723631225295 12.640401971840244 1.1765854004541736 0.7897379901380464 -0.47955573388514183
Ni 3.113454590160983 8.300839660271 8.061709400534086 0.32681883636832104 -0.3880607138979381 0.03616282307380223
Ni 5.5514576976129195 7.836425020670971 3.7447554070273483 -0.2977789974925452 -0.054289100360867794 -0.23735807320232669
Ni 3.0109102347201744 8.439993460801848 3.679350322718684 1.074326971302879 -0.5864604035591965 -0.437271371294634
Ni 3.417630699513616 4.233066374506046 9.2400560571756 -0.37413664761767823 0.43635888678269363 0.10978044855995286
Ni 7.428675592184169 6.216114087539006 11.381867452495477 0.39179729812223496 -0.8832693238289886 0.13561720711739872
Ni 0.5591659489632403 8.889036826982663 0.1675008476831577 0.42431481113396596 0.7613051887186502 0.7948827675637794
Ni 4.8274102453859316 0.39054948801254596 1.6471723011270214 -1.4513077732375717 -0.04273096320962318 0.25745278706967273
Ni 6.116214349310076 5.51640072406023 0.28860084839420813 -0.3628088813096848 0.8974489577634802 0.9188618762216175
Ni 8.052001940427003 8.831956419993165 11.234280662677742 -0.25176987775228254 0.18225316180838289 0.08415040669667442
Ni 0.12524022567722415 4.8912150203715035 5.888562450352503 -0.2732254765228972 -0.2936698604201781 -0.4530705431104197
Ni 8.20249239357942 8.721099121029692 2.4095351119356683 -1.1626024559115204 0.48653756451961366 0.5087405829792141
P 8.43095843749437 1.483512917899071 3.6729174944357283 -0.06995791724637629 0.6888450738757105 -0.3162570016920747
P 1.837341038454933 3.1194117483856934 1.7785637439711244 -0.6093506778938087 -0.5293382046249078 -2.1444468465029454
P 4.706164023518456 1.1005669300206098 8.233445246155174 1.1061873103465854 -0.7935573638841367 -0.3963378663050658
P 8.452963818936558 1.6455115176219506 12.474531219271304 -0.5384211407627824 -1.0525181029579034 -0.22224024372428178
P 6.355015160145169 7.73162416590262 1.4038621020357698 0.1991514802256183 -0.2871531423475829 0.38876031106812403
P 1.8191626798722562 3.3088223019395513 6.111304206773346 -0.24799498409088255 -0.2940138740231582 -0.5501106612855686
P 6.881736259177282 4.081357411716756 5.92493090131436 0.7720482861677672 -0.1500549798092835 0.7293098667589762
P 2.253981074292248 8.425795567032955 10.107587080843121 1.1128618941532835 0.13508601720427701 -0.028605065331202353
