# total energy = -381164.8799301828 ev
CRYSTAL
PRIMVEC
9.24206066975322 0.00000000000000 0.00000000000000

0.00000000000000 9.24206066975322 0.00000000000000

0.00000000000000 0.00000000000000 13.52668999199523

PRIMCOORD
 96 1
Ni 8.978837243101182 4.660937398822156 12.656558050063252 0.22053405966645245 1.7647201063919995 -1.4389623642983411
Ni 6.263963526956199 1.56614106521997 10.219278859021522 -0.8445343691526358 -1.5117538943387707 0.5494884543205375
Ni 5.170535365251383 4.273001915029073 12.5741807934178 -0.5864891999146028 -0.7316086900954819 0.308675589800391
Ni 1.373656674011905 5.161265578705952 0.9916971064504029 -1.3564227537322124 -0.9813628229693163 -1.2938061073422555
Ni 4.756620449774146 4.570328239010188 2.086789763226836 1.540846697939669 -0.11792930291933239 0.34538374385470194
Ni 5.607749514907115 5.449636346194023 6.719694144551883 -0.8490476836419572 0.30100907439406865 0.08972018747496806
Ni 7.013392959839994 6.006073074549714 2.5530138161601887 0.23293397599270207 -1.0741264252562985 -1.822610036730248
Ni 4.752313649644365 1.1555902597153525 8.421067809640954 0.02168005607659492 -0.6001733822699147 -1.2405045677056377
Ni 7.253621834890229 4.280524952165644 0.6770631760249931 -0.22188003217138563 -1.099722528557848 0.5629980587711981
Ni 3.804420212496778 2.2589351521911025 10.288765289870796 0.5821224383054749 0.5629294103167918 -0.8927404965442174
Ni 0.7111257137037967 1.9193171599827783 8.25896391926254 -0.5879377594356713 1.075575498997999 2.6419578793149276
Ni 1.5357716548627558 6.531724499831796 12.47711328182323 0.6767364635376346 -1.4153452391000336 -1.1772788269767724
Ni 0.6906148091372217 8.23746688685509 2.0035187993441514 3.445605794665846 -0.8532509230900274 -1.8949397966429105
Ni 2.4856521349886758 2.724115776509322 6.424379817112084 2.7670803575485894 0.9387534729392221 -0.3659559115790988
Ni 8.971979634310843 9.168271754389016 9.403402708942282 -0.9223989428405985 0.3012800686672682 -0.6984671703465067
Ni 7.608664825846633 0.1500161996278962 11.772020785125275 -1.8098265118123347 -0.7025413404158803 -0.02691790743676654
Ni 4.735058722944146 0.6351624469511944 0.8809596633709427 -2.211150261367766 -2.4358356241984307 1.1540730782842703
Ni 6.6584331474268685 3.068595092469288 6.462889634238207 0.41932327145664555 0.026980385243585793 0.28927404534532764
Ni 3.394802855088958 5.98288474509559 0.2432926180610128 1.0661099827097251 0.006566083253291917 -0.41871083468362724
Ni 3.433037258816224 7.8729230578441465 4.055572278691623 -0.1151046889863437 0.44240406453550907 -1.2218733257576957
Ni 6.70266564833059 3.4275105067183502 3.083733587346073 -0.5862716845871581 2.115817612802027 0.4154401343521555
Ni 2.159601487395199 8.325885678360711 6.112318876292106 1.165333481689438 0.23458308156035082 0.616853414028757
Ni 3.4287027325053496 2.662609864784653 12.603370916872525 0.24397994939421858 -1.9807645057182144 0.1735566624756495
Ni 2.4216785931467286 8.311754568063638 13.430447519907304 1.452542674085937 1.4576794810918703 0.7047581455615411
P 7.966314077825781 2.1136222370826183 0.10370423514219904 0.432478577891681 -0.31130428567248963 0.5980601925816539
Ni 5.204647810056154 6.309203412439633 3.762881772189261 -1.5590711913674955 0.4212431141871777 -0.07164841757492177
P 3.8675619689059344 7.823367130170567 1.609567658459921 0.12534359310553253 -0.2450919515114747 0.683523404552481
Ni 8.81290529131986 1.8331626732664206 10.688884581842185 -0.00436727582976022 0.7368213446446729 0.3819060071504519
P 3.785631103776079 0.5895140623996566 6.448253907445242 -0.02560278816976881 0.4258952682472084 0.2252553764015217
P 2.4901160501446507 4.490550773945222 12.270493159287911 -0.10652080397207461 1.7719248516705548 0.1718751610081685
P 6.87183232123943 1.6855392430668514 4.412798244306084 -0.5759767304190532 -1.4810297257820364 1.1409802496560544
Ni 0.2592850793154631 0.9759800585948099 3.0651478039533897 -0.6335193047202121 1.0954951207400616 0.18791215986637316
Ni 1.5028514358449843 3.285996078419608 10.814101560894454 -0.2694984053802971 1.2392246725519498 -0.9342843814242748
Ni 6.357992249102972 8.084677144911856 9.519326796298209 -0.6326011637813169 0.37564948471777887 0.024759723443183165
Ni 7.04421523115506 1.4380830768117043 2.2856317677595293 0.19522746258086376 -1.9749224451151404 -1.253067234861997
Ni 7.747268005130608 4.81261809352167 7.594871050752859 0.19284482128130015 0.9966400608433609 -0.15560624864481587
Ni 2.334405817126286 5.156746211187791 7.394513348320413 0.03733421767408408 0.24610959414271164 -1.4845271974123337
Ni 8.250812422021195 6.8808340880342955 9.080425970625985 1.399626799923512 -1.5354121571876589 2.165877762683212
Ni 8.676039619384381 9.198289966452386 5.309685674508927 -1.2932204100421147 1.6331451876647747 -3.021189682067326
Ni 1.7122672816405164 3.6625361017834623 3.707909072936143 -0.9431066077015952 -0.9462099292172672 -1.3007563134078437
Ni 6.349748331257983 0.6135406467288259 6.501075979251579 0.2352603101330335 0.5868938915521892 -0.7207948873094296
Ni 4.238769323439565 6.448296420922918 11.579102941286122 -0.24173717610662884 -0.34978958623188144 0.345323837151044
Ni 8.800049585353065 7.218742299075217 11.89508713673076 -1.0961924039174027 0.044409636463626743 -1.2732995027484715
Ni 2.3478714990771263 0.24419094632842642 8.211742536036992 0.35635901191928304 -0.2800741240136145 0.21975450118795056
Ni 1.0756649216845584 8.222309907857575 4.118160435684956 1.6969239726836325 0.8956023914730445 -0.5696037370131738
Ni 7.292068806005874 3.1909137613913 11.939183779347125 -0.2573967370207567 0.9970311256341926 -1.4132104521452178
Ni 4.064981620348556 8.631844086722117 9.934271277300034 -0.8007885915252532 -0.3046150465777721 -0.5542300827705811
Ni 0.9439285932512861 1.251966465194668 6.214268968377154 -1.9449495529021343 -1.7688071319771794 -0.11270996350192201
Ni 6.180221217994934 8.228917981018077 1.7699941148822074 -0.4710613232608855 -0.4736347404150166 0.4136781573557263
Ni 8.430274750175906 3.015480971555438 4.945087317341834 1.2297604418152563 -0.9322781496275235 -1.487267222051316
Ni 8.33659722632298 9.186534065668948 0.8919457005260312 -0.4239232321225022 1.753202335560387 -0.31275695895861616
Ni 2.168483107405328 1.4859754336197033 4.454217462034901 0.7793466196013933 -0.5401090699881665 0.010816116778897501
Ni 5.431494181698827 4.344784997878885 10.234523637592496 -0.23052099567583523 0.25763584961475633 -0.714605470669266
Ni 7.360654135969625 3.135581545990009 9.26766271995918 1.2130009629687304 2.113125924902477 -0.8776524918628433
Ni 0.5320265985214021 4.61991189286486 8.771652430677602 -0.03386631373014167 -0.15213628781834443 1.0692798957972747
Ni 5.311957372946481 8.36753964442278 12.796992081505403 -0.47082915264542136 -1.0712449899434453 -0.8337071966301447
P 2.6477948420206197 3.3286851552424848 8.400912724398406 -0.16968380978380454 -0.2633974346888819 3.137337467606203
Ni 0.8199759280568591 5.907072123926927 3.2106270761484326 -1.1987871333621933 1.1881142270293796 0.7493063644855611
P 6.821860500849455 6.916776460791206 7.644094264253322 -1.5942006880807769 -0.4799822798995992 -1.2165886803199888
Ni 0.43787310855970984 3.631621409864752 6.696306186593889 -0.5351247293996977 1.3990891822524871 -1.0193773545398765
P 7.662712394857281 1.2841750455643854 8.146989888506331 -0.3753694915835148 0.16679620382336435 0.08725784197740456
P 5.688867078724909 4.487269842515882 4.822224291064363 1.47837763287117 -0.47837842574758904 -0.39232000339492434
P 1.1989724910655546 8.099464441494797 10.346064215717616 0.9698005720530136 -1.338461027047469 0.9357959329727948
Ni 2.605919066509805 5.412464779408656 9.882612780893565 0.5066929564215661 -0.00805680886620548 0.2560055131001849
Ni 1.8186249123133171 1.066385893078763 10.663494793609276 0.7657807079915004 -2.23286425600609 -0.38051092657513824
Ni 4.74016034026526 3.4692661354444283 7.732545402970218 -0.6890757018292778 0.2435711439915741 0.9570522712484097
Ni 8.151395578682012 8.406005099659156 7.146880658712308 0.16251531705982336 -0.22659312137633877 2.3472886310959575
Ni 3.548553771310083 6.208280113261062 5.519430537653429 -1.2544206635660975 1.088919524405073 1.5677311810353387
Ni 3.54643733948665 7.055638417765382 7.885653995996022 -0.4535341130103996 0.7583587044958165 0.058238829037235186
Ni 1.4612991324469211 1.197789507338919 0.9250332008363972 0.16559472731609545 -1.3291600613615173 1.079425983092341
Ni 5.722646809356564 5.9734023911617795 0.47511583920988226 0.5334218877759781 2.2160219876377703 -0.22094954993731625
Ni 8.140526915693549 7.865769703122148 3.2830358464849105 0.028231226931551376 0.7842628259560881 -0.6780994053234323
Ni 0.2897450618642479 6.965703928360011 5.700120211424528 -1.1913211640024515 -2.339906222588957 0.5814040720822117
Ni 4.7108445247895805 2.266735451138604 5.283538037326142 0.33059270158845644 -1.0501709428819654 0.23591157056378725
Ni 3.638358871870355 4.25015554180843 4.721923906754348 -0.37863324993645114 -1.5438759716842958 -0.8266839712347764
Ni 5.4639707818191114 9.112403499486595 4.168141498135295 0.6512840849028009 0.9539862307285764 -0.6803879442472928
Ni 5.167605632115888 2.60974527950064 1.0311431442914334 1.5307350634269636 3.2437649405335227 0.2692559503521879
Ni 3.8269061453632123 2.4102461644760425 3.0483069215574936 1.5355818499963039 0.8536949526059815 0.5865622192443833
Ni 2.9467015583240355 5.700086940007216 2.394859982381493 0.41855836826616305 1.5961989494577284 2.8226205567077387
Ni 4.904373268818816 7.992616981622687 6.2383473082443635 0.33885931247262285 -0.34925556810528235 0.04231855826255292
Ni 0.46869075884459455 0.13809763858204605 12.427470478782226 1.5630039507629985 0.4585295093424619 0.16736236073947952
Ni 2.9467108003843996 0.47633301855986554 2.6739563422939505 -0.5524719624288937 -2.249208501692068 -1.9871349280209327
Ni 8.70667704949216 6.5460219672154265 0.9847322897598378 -0.12912568585578407 -0.6707619911217545 -0.36917776095050614
Ni 6.650484975513538 5.9617481530423495 11.661913650562663 0.9548436936328651 0.10322902059468028 -0.3359750489462924
Ni 2.9219235944872457 3.299313887404619 1.2590375655794228 -1.459452513831893 0.5187511731376807 -0.4342017312303748
Ni 6.916831913153391 7.222725627092247 4.933305538789376 -0.19612657735636543 1.2389418512042083 2.801912891846742
Ni 0.9674311527577973 2.85360628427406 13.190253764686453 -0.6337134230088892 0.1281916040772889 -0.3174834179000081
Ni 0.9810816759159243 7.173456203289962 8.04306384391539 1.3601901911944445 0.5571662825807695 0.43801287744634887
P 7.269166980423045 7.677675290587144 13.403582698840246 -0.9178216078825613 -0.8139662665577917 -1.2554606747948378
Ni 9.042903205546773 4.00476035501453 2.323844914747957 -0.8913469586308004 -0.6659499144450918 -0.2735023843333677
P 4.683053649274017 6.5103845824505395 9.532420023216366 0.7131628246854687 -0.9059706220812462 0.5377256573576545
Ni 7.808237877354146 5.2420319442299 4.4314792209205205 1.1021774178562438 -1.0714650763740516 1.1462998620967548
P 3.786823329563078 0.350365584206013 11.726774430199585 -0.103486388021125 1.5752925383223644 1.849032492587835
P 1.449912914078057 5.111164369470877 5.178124945222577 -0.0830026662454764 0.4112808607681433 1.2917142578102334
P 8.501041206385642 5.062005850392963 10.393448259205577 -1.2190050030709652 -0.3503696271050676 1.430823794351607
Ni 5.8308528521022325 1.5398289193627004 12.62544650225878 -0.7062241885841063 -0.06364277366162588 -0.8960402503414117
