# total energy = -340869.85461211443 ev
CRYSTAL
PRIMVEC
9.24739888829470 0.00000000000000 0.00000000000000
0.00000000000000 9.24739888829470 0.00000000000000
0.00000000000000 0.00000000000000 13.53450301441994
PRIMCOORD
 96 1
Ni 1.5730380039453051 0.21169884905129205 4.947117874282128 -1.074381478689898 0.5924199635767411 -0.591602095661136
Ni 8.597556254888461 3.6131528690317425 7.0227418256521155 0.4030942111922929 0.6367938617064258 1.4058480982428756
Ni 6.4210607537152 3.1186297285370914 8.475927993954153 2.92705156803032 -0.027204071218617662 2.5891782736200506
Ni 8.548813216319596 5.90689613837322 8.436123490972589 -0.07696031670613843 0.29401310269220976 0.8309854268236075
Ni 2.0102180250763544 3.2019395434615694 8.775771197972384 -0.23977876682867738 -0.17359394347148813 0.34377629015826605
Ni 3.8250662577329675 1.221045019675649 0.7332955987316899 0.6070449125787674 -0.7124717121557149 0.705283679047708
Ni 4.022405746076664 5.853871554204393 8.609378129391676 -0.16919864261726988 0.739086743640082 -1.579234810799564
Ni 0.15935487342708118 7.106024823120352 3.8720726348252206 0.7654006989442624 0.5225620622433388 -0.9093544509518146
Ni 6.415623283277238 5.552249150675511 7.532181020256345 -0.3779228541329878 -0.6859191584781671 0.23335975067621098
Ni 7.55444043367678 7.517866971802397 2.495437357734895 -0.5894387694612301 0.22371862804202117 0.32058622519504787
Ni 1.8596981163710897 5.323413022345938 0.6236011058249141 -0.8106881100271522 0.644633926576135 -1.1555108391720614
Ni 9.014059092517332 6.213983754536176 1.0778888145583925 -0.37029361972250424 0.6718210285138881 -1.2309642323153702
Ni 7.906054274599571 0.42032016381388765 3.7527386535093785 0.9254495567414642 -0.3247223588506085 0.28366209847518886
Ni 0.8210256702366874 3.6952975117195144 1.750404035828198 -0.6050618207104677 -1.4708944371202475 0.8538448479202844
Ni 0.5702325184242983 5.925955027102196 12.017866645566272 0.05304777175459897 -0.02029654546550698 1.6411906836770702
Ni 7.869203390764069 2.5426000158652458 2.6878035950555716 0.05057359918249355 -0.02616431710019365 -0.689366236486503
Ni 5.416432605909632 2.260609839784989 10.905181719164407 -0.5958922383960575 -0.6714713584839533 -1.952075108203322
Ni 3.719729139095524 0.16648461782787735 11.029631361443311 -0.364616623942385 0.3077749323629925 -0.29207963311492274
Ni 5.2528368754368895 8.958926101443991 4.310589829808871 -0.38341498759581066 -2.4452715728003502 -0.07569404839920511
Ni 3.9488796789810348 5.674046639006103 1.350457740838998 2.502914677235115 0.9521584334912183 -0.5168752962712065
Ni 6.228169264148136 5.0364754879590325 12.378791692244135 -1.1458139235992717 -0.5783064069934943 -0.7612517097728955
Ni 8.237277601380008 1.5055412408046942 12.705392244412435 0.06174349975638398 0.047067642911764095 1.622037507787387
Ni 5.322136881324783 2.8210854278366804 6.7182027925719865 -2.060375629783639 0.9046431615190742 -1.7020204133699333
Ni 3.178423408557258 8.655084322226145 2.8407028594473793 0.9370496028742378 -1.736490422122345 0.6042820051216496
P 7.476105719255063 7.660526591609249 7.606566170691576 0.04621737909632686 -0.40435019508658104 -0.3073175331105998
P 7.395403670765117 7.63814788674553 4.610000255567751 -1.0843295910415454 -0.19576867979631443 0.1762375517419223
P 3.2722290210107934 2.647169600410256 10.914453161105055 -0.9317364181914405 0.1841380375359216 -0.41914046602187816
P 7.5437042037814175 6.609689192479714 12.842578328926379 1.2775809037326449 -1.3936695538988129 0.4887029476020487
P 3.134720202282079 8.112483955869315 4.9816171446272 1.870492976454456 0.0701756896841372 0.8285904442288697
P 2.636683050279902 8.639770629972293 12.848113821790603 0.4211621244375972 1.6563887315737473 0.1760022958026646
P 8.961996237813723 2.494032677871755 9.23869227813593 0.2942308751299707 0.5414010493267127 -0.47108034942427895
P 0.6159886472117683 3.8509774689016196 12.92435400040586 -0.335196518909055 -1.2935212291119853 0.155810394235822
Ni 0.0021472459790724597 8.773034892695865 8.702089774578527 -1.183190564475517 -1.6354553238551897 -0.5432342458807096
Ni 0.7927785661554009 5.056838259905275 4.795950647667582 0.3500382119075778 -1.2350258039792537 -0.495465720247179
Ni 8.133586519711878 0.914748056101887 10.434668524664863 -0.8636692902098738 0.3506956429859186 -0.9261141869086568
Ni 4.460251579914402 6.342772276287003 11.012902817187747 1.1541155014864317 -0.14329503537763064 -2.1732894817662505
Ni 6.301057260733187 0.4197884383884067 1.970176788687966 -2.1274760229765617 1.5273378648199567 1.203251082670818
Ni 6.948550870589668 8.240107305383438 11.539733594534617 0.7882346661196424 -0.9493477035153005 0.10237284324197206
Ni 0.638414513808877 8.565791440340169 0.3332559050155792 -0.5445377951834816 -0.17707727403439827 1.1698748212032175
Ni 7.805877204438969 5.985711717527547 10.627589605907781 0.3955372247806414 0.41482461225534367 1.427024989430807
Ni 2.118763991064091 1.2198058682493111 2.5642065629371786 -1.2268152431440031 3.018345013529679 0.6339450794037211
Ni 0.9625247415061845 2.267499151819481 11.120719163417737 0.8340851487948538 0.24951990537584126 0.7772830522041453
Ni 0.029736860012503485 2.1017117878538865 5.231315404433033 -0.1151082885307695 -0.31979946762769434 -1.9406211007301095
Ni 2.362793595464363 5.626357803889494 2.9139921931361856 -1.0247651012143513 -0.2749324319116749 0.8164777201257358
Ni 4.228095635450087 0.7782046657978721 8.667156801234237 1.1269865064801237 0.12578196619453177 0.8705176805902749
Ni 4.3038133360385675 3.3866655799729886 12.890909858252916 -1.5226546004116743 0.5023161675101091 -0.3662636726275047
Ni 0.6378208308120792 9.162230161951776 11.64241948396362 1.2466567033499627 1.1376851238445502 0.45944482206787973
Ni 3.381653489875412 1.8687975566958412 5.210932288209642 0.10092634060343263 -0.19971506603857217 -0.7319051382899782
Ni 7.827432890818029 3.8641180224600262 4.742516403736168 -1.1707623660144932 -0.6018803376586925 0.9229910678986427
Ni 5.006680369334694 7.608472984304344 6.779147773730803 -1.1261382995472153 -2.3160415001562176 -0.427157937009716
Ni 5.462660352031007 0.4300465777707714 6.697291649882596 -0.8487561205434673 2.2696875954820266 -3.083755677725005
Ni 3.0001982933347615 6.025641985131486 5.192566029643596 1.2815604572056831 -1.1817178365847325 0.053035173349108664
Ni 4.785741519498349 6.987824572885622 13.103686029253227 1.255253443880038 2.7733335375471526 1.3204303947980034
Ni 1.839372334019663 0.6727639762949436 9.284547354089534 0.8568460966404534 0.847779872673127 1.634988154410784
Ni 2.1200586268826536 3.6408303333528615 6.313196321011949 -0.18701098820834244 0.34527678596319245 0.3380069917746566
Ni 6.29074641117821 5.660046077368223 5.180412173526909 -0.46994212205477776 -0.25834855941106477 0.2622008432776194
P 1.0025289882997568 5.5218252089393 7.256036124896896 1.194661284119278 -1.3192037214797536 -1.5919406884020069
P 6.279048451817631 2.7043555139958895 12.706028465443271 1.868825616054362 -0.036874761539162304 2.4483221867012155
P 5.936885452370343 0.2025762902297805 10.288116674743492 -0.9138909053695873 0.8587880508581726 -0.6032281099358385
P 3.2832611676646843 5.625747475575029 12.672381805258711 -0.07906116509922513 -1.2031814057751473 -0.41013800541295176
P 6.161301324119398 4.7104954362437725 3.055955483820625 0.8934447217000935 -0.8782042506012553 0.3289536233231367
P 2.084409904878673 3.5867238035356657 3.8460051426184703 0.17510832323348552 -0.8200451257620199 0.03170350175086798
P 3.623620924364688 7.889464441324567 8.927520085965412 -1.0350101759811272 0.745892967928638 0.6720591126666232
P 8.399218047484732 0.7253326637076619 1.4044209359762818 0.2687615272142726 0.033397087403206994 -0.003573319173555136
Ni 5.425790973398096 0.4887832801190683 12.65934852152527 0.7108601446942209 0.6048023964014939 0.30258618907320145
Ni 2.1059840860551415 8.756102905668813 7.26728373594059 1.6654001910437382 0.08111367675287966 1.1116128522375308
Ni 8.399264284478251 5.931975083658511 6.0583278405907 -0.890430360353802 1.413690734215746 0.17055592797611274
Ni 8.579422106029886 8.816534656199556 6.03117747799571 -0.1275521707210771 0.702950402928841 0.8329644049268493
Ni 1.6967589512063321 6.301482641073572 9.106378647999133 -0.5398704716147994 0.5617806414243293 -1.016902410636823
Ni 5.687714294290638 3.22913614305008 1.4935732574019571 -0.1623512806781333 -0.4040429482588074 -0.016004602958372437
Ni 8.335697665786848 4.985929206642882 2.8913758301257744 -0.24688272486331028 0.45009680519407647 -0.4576201101543151
Ni 0.6479088180582899 1.4645290275523843 7.287369085925712 -0.48307891654705193 0.36174161638743507 1.045470966303135
Ni 3.2898083259471274 3.5258111882723138 1.5843216798439452 -0.8874411958184909 -1.3575571244469715 1.2003570489524746
Ni 1.2254375340600567 7.307756825848456 5.946668275459322 -0.7545156766006424 -1.5322129335240708 -0.05192959898975572
Ni 2.3051823015383452 7.357295140705868 11.068070023636293 1.126457373449531 0.9448693560289728 0.7688909714857081
Ni 5.966893261164874 7.246548293826575 9.216035226571222 0.20948140139671664 2.207083033276928 0.08374700061066867
Ni 7.036299436892073 8.335882613760928 0.34582959303342947 0.3929877188859102 0.2269096241754931 -0.3082485295653014
Ni 5.826055378902715 1.7996177669910993 4.492764509017851 1.70031448642242 1.4464946681196442 0.167559307241634
Ni 7.6424941641364175 3.484308862888691 11.126741994193662 0.05492467706233766 -0.5216570339305661 -0.6039511041447921
Ni 4.571100148179439 3.818343398875148 4.3663386976359 -0.705575499256514 1.3984669752874561 -0.20270577323577996
Ni 7.881816842596346 3.9592645077256443 0.36304177624121403 0.4143882960488734 -0.43978359619352647 -0.04498042136543221
Ni 0.3990197056390577 4.398506698767689 10.293003000218695 -0.5876505672125557 -0.11467377209651218 -1.386095855316613
Ni 2.6045853293782635 4.862078795799999 10.713167807734356 0.821764679556288 -0.909121509005402 0.6149351139601216
Ni 4.3366600962352315 3.820664495949856 9.207089293064957 0.01153448300216078 -2.2140674350145613 0.7625650292676803
Ni 1.5580294758486875 1.5334221478973016 0.23624236995162026 -0.9446551831356377 0.6507976321846857 -0.9131126324426662
Ni 5.089500072127859 6.508541145455189 3.5069252258991024 -1.6308821026622105 1.421940632929364 -1.668336905074559
Ni 6.7619938491348535 0.33411036465583027 8.336738922880919 2.153013248015718 0.6414586141719468 0.9663198125932648
Ni 6.360850940753354 5.821949533878132 1.1748977259229993 0.34662558668160304 0.24193180861593816 0.4435610609580877
P 4.486865593384559 5.1070146452732645 6.502597842308119 0.13147027482856066 -0.7783382329415369 -0.0015786573410295393
P 1.5308606184562892 7.460311162268604 1.9913311379632725 -0.9909687214901967 -0.727202076387354 0.42955703336951184
P 0.2124414151672245 7.5095905499623035 10.585118153139979 -1.2555141537405925 -0.95582096994447 -2.5892088697476696
P 6.087497835062648 5.206535150125883 9.7258665108805 -0.9522209112980374 -2.2991853478308273 0.6484484152262187
P 2.833430705106541 1.5685437681751535 7.327877315948653 -0.35243268028168334 1.6493459657943528 -0.9554646150463156
P 4.320754570464325 1.7787186459200237 2.9448239451552447 -0.3150634956046058 0.002558761866111722 -0.913556147737988
P 4.826957175522147 7.979460125512048 1.6483673137882175 1.419601443273226 -0.7466740690690367 -0.7462480372752115
P 7.367125125528236 1.9448389162389628 6.393076275757108 -0.611944920983546 -0.48689417652808403 -0.4551950456525903
