# total energy = -340895.5057529173 ev
CRYSTAL
PRIMVEC
9.00834770151373 0.00000000000000 0.00000000000000
0.00000000000000 9.00834770151373 0.00000000000000
0.00000000000000 0.00000000000000 13.18462743891228
PRIMCOORD
 96 1
Ni 6.305555096790638 1.9162467064697353 11.351898133910453 0.2949775234880081 -0.023130672480192422 -0.49734802487155644
Ni 4.633839987625897 0.40501711258618456 5.895545557929764 -0.13875292453290297 -0.24642069762522723 0.1651625248746833
Ni 2.7882097184843557 1.7264498295635309 4.807853338592219 -0.3259084087389097 -1.6914860894975126 0.36293280848205883
Ni 3.453935619108277 4.020470603617802 4.586839834530332 -0.2437644909493028 1.9702409804790715 0.7844754561875263
Ni 4.919990151132734 4.404055055444803 2.6315986935329083 0.9482544704511219 -0.05563173043169129 0.049518675555417946
Ni 7.245963534346733 6.006586054559725 2.7010422439954143 -0.022262668052942303 0.5207599760375935 -0.7331492951097245
Ni 5.0079926994500115 4.467933248721271 11.590329278178242 0.4684727365981029 0.555082146358231 -0.17812679834483516
Ni 5.693374814674025 7.9003659419585945 12.32570141708708 -0.6883107986387953 -0.2646765585116216 0.11299098507745056
Ni 1.724062617432906 6.483028554094218 0.42246448033937345 0.8679548049591053 -0.38139281495945926 -1.2905469769750098
Ni 2.815450961816472 1.5335540810613453 0.43143949711575824 0.09385657824084481 0.09467264638423696 -1.0555594608873886
Ni 0.5216031480373258 0.48866772814759335 4.875121373094175 0.3978229354910245 -1.3145968188353616 -0.3876943316974548
Ni 8.69812719427525 2.151769956111992 1.1719824275830086 0.6291931665410325 0.6930408571246129 0.9749826304745854
Ni 7.17637404865209 0.8041715925134599 4.9781597544953256 -1.696251629206956 -0.3408004953593937 -1.170961626509493
Ni 1.0399236541863504 7.380647340252313 2.420473652700408 -0.7887434874352609 0.37280738728329343 0.982731678292385
Ni 7.6136482525490035 4.028181749217104 3.9741631924575027 -0.04313796884005473 -1.0107235355196207 -0.3989513926685129
Ni 7.39906941122261 3.5288760633145855 12.813124191587685 1.043045387580778 0.7486250221478203 -0.8699160424505341
Ni 7.854396343835647 8.809398304605377 7.024650953142444 0.3712860655427606 -0.5844068634642774 0.09684317167299451
Ni 6.994513526036758 0.6389711080655925 0.39626820533613444 -0.7033939182241629 -0.09149116333246178 -0.3683652923515398
Ni 1.6314117617216566 6.519908729425463 9.218361974302608 0.8633018795681261 -0.6371579299140641 -0.7936638075550138
Ni 9.165002828591916 4.761443232268565 1.4637312791622377 -0.34425322979468453 -0.1125361569282191 0.10011181512193727
Ni 6.441554121454977 1.9282638422518263 7.092155907187929 -0.739290889231088 -0.056618776935308944 0.04015703183485987
Ni 3.3702660860167764 4.1880979369260105 0.29564406110859676 0.07860530850872914 0.9844550887413949 0.10062140776850413
Ni 5.9977308488072545 5.6273886680444765 4.898933138471087 -0.7456116892427933 0.9991952231650469 -1.1554792146031778
Ni 5.23644439617702 3.0098961461166485 9.17880812138506 0.1351376963778189 -0.5494527159865956 0.19582704383807564
P 0.018245507356107363 5.344265309352318 12.40213274283157 0.8772485715562053 0.308667619380591 0.2944992983000089
P 3.9499622664615597 6.160628799592526 12.635922786383517 -0.2922243862229032 -0.35806056799142205 0.5675352845199193
P 2.477610899420849 8.506321455840256 1.2215283397280614 0.8259848882852227 -0.20318271287219844 1.6062589047968916
P 6.21659766362111 7.833163668394577 5.798282428215194 0.5667300150098046 -0.1602756290960272 -0.49767069831829774
P 4.708185880886464 1.1210258081939708 12.386140223225915 -0.7997637498051645 -0.912056937484642 1.3348185451988752
P 3.7524272189130645 6.298690735871632 8.31302663753661 0.37053401786808443 -0.8491988645078408 -0.7835724847572827
P 4.6975019805584575 1.0865959034269903 3.7529911414767523 1.3275052993669139 -0.19931165995256642 0.12848599538925612
P 0.32537701340422626 5.721048458693952 3.597293562978306 -0.133956274475208 -0.7380973831436193 0.4331180112478928
Ni 1.3682328847547973 1.0111239667085803 2.4841554639978276 -0.007329700892193828 0.5318154625208067 0.41200385497709696
Ni 2.126294348921772 6.630738430720115 4.714493525919912 -1.128137075144799 -0.6619531345808729 -0.8972435266208935
Ni 5.945410365582079 5.585797126885621 9.144633152856937 -0.6683394977231909 0.10468092254985843 0.4718372821949616
Ni 8.475611998657985 2.419029614570071 10.252485153428921 0.44500087872840777 -0.8050774487085941 -0.08124454590378911
Ni 2.290696693766721 5.333085949902862 6.847278389332687 -0.10759501087285986 -0.39708477177341933 0.34447665865940025
Ni 0.6125991702829302 -0.10366986657230905 8.916341804718325 -0.3496322347184107 -0.35967779187987087 0.5566721165531703
Ni 1.5796047543132565 1.0119527346935522 11.186734583688004 -0.7682116860304964 0.7339129127486264 0.4881748430127205
Ni 4.253138207050972 6.760062269766367 1.6083666067308429 -0.42307425385864555 1.1869903978375815 0.06438196582049557
Ni 5.505739941206877 7.878295490184889 7.90133614100187 -0.5362665563136247 0.16472672288884535 0.5450257905634935
Ni 5.265361192174405 2.7524645949586155 5.03916428486738 0.9594660228962251 -0.12321883345304585 -0.1649303542592192
Ni 0.6669744576099765 7.261746159451848 6.63504532173767 0.17801109870257728 0.46503080079608944 0.4474321138777197
Ni 4.822898180023756 4.765695172365377 7.081951250955581 -0.15643517230401444 -0.4707355644903506 0.023982993178158697
Ni 8.009177773376793 7.017926221612211 9.085869899383372 1.0232034131541863 0.6905407164105785 0.2225436338973135
Ni 4.4743381839094765 0.23946620341423677 10.294794659896498 0.14558897361812992 -0.42021878668772145 0.3129667609765771
Ni 8.103143847846802 7.358261596310411 4.609450787163802 0.2999086422410383 -0.03798419255325716 0.4152259614588204
Ni 7.129458574024556 6.2009411553832745 6.940796748923857 0.44539014374702646 -0.5231361895792538 0.3930707655180198
Ni 2.5333815798008534 5.226264963318127 2.524882203781061 -1.0158107202345408 -0.21450379431197253 0.11137324696836948
Ni 2.2049732574081164 5.179565689034499 11.449266661292679 -0.16876849705838678 -0.00620664303134415 -0.14342924696264978
Ni 1.3217588191627376 3.338538685548617 3.757262899938422 -1.3977375533205993 0.7751372095057361 -0.5405996364713399
Ni 3.5394428551229757 2.441361308425996 2.5935744580484954 0.24950679274971868 0.6469111526460859 -0.037146527143310216
Ni 1.1274667767728277 3.4719342977384255 8.06632853261873 -0.9676786406140042 0.44303064237591444 0.9651731005833313
Ni 3.645588215633005 2.567856526306148 7.073882473954067 0.4527301290518655 0.9977908866183526 -0.18171708679925477
Ni 4.023785675557689 6.920582016768675 6.023990182244132 1.099688332885803 0.5740422324005017 0.1275370012124255
Ni 0.6564869392610183 7.237405604067133 11.318224930347142 -0.4227027294518398 -0.03379766527573534 0.4029461156502028
P 0.08118232830181886 5.522126125605396 7.957713984014344 0.3471634614629441 -0.1722654544680517 -0.7147725923747495
P 8.42802990630341 1.5899823708207295 8.172411735529884 0.5218938325317206 0.9029326065858707 -0.8596177458483196
P 1.6939387028487136 3.1154379473332745 10.30795225249269 -0.11151697163508537 0.19712879336863467 -0.45309908235550994
P 4.131093112916211 6.079553670627894 3.826100188603226 -0.5091334475422586 0.6334995072258703 0.027618533048216952
P 6.864955469951275 3.9204869529090844 10.624291190686893 -0.34495385540613493 0.67389230922062 -1.8533442325893115
P 6.256576710548337 7.699227555345004 10.061268560931069 -1.0231908147486957 -0.9752122299868883 1.3998088340273314
P 2.3344051966263204 8.616907931748015 5.668862199848951 0.5540169383185104 -0.19809501393664594 0.6468551025971698
P 6.895736993914848 3.8243498666523568 1.6993797448370067 0.2612215100834856 0.2345404012478735 0.9578125464532021
Ni 5.190276614405493 2.8268194965668463 0.5885991304398666 0.4212120038389262 -0.8923144647503923 0.0367030118479884
Ni 1.4447137564114338 1.3203895503180016 7.121016851429806 -0.05875202122822785 -1.249170728021068 -1.3949846731658104
Ni 6.826246600044495 0.5630694731636702 9.215447773833711 -0.7210975061515129 0.9058160987812529 -0.29206780604038085
Ni 2.6812716233800056 1.48953028603355 9.089627281193499 0.05780276994108109 0.7166345852841528 0.8779972767967716
Ni 6.630288013336978 1.7482770559503427 2.559927378693407 -0.45673462222556827 1.0972162171962263 0.8062377875652825
Ni 4.048090197551754 6.619171712321162 10.518287261235168 0.29904809401295596 0.8627768603025915 -0.5227610656280223
Ni 8.07015527870586 7.091992856095234 0.3030489228873665 0.5246027468224513 0.2510347993584709 -0.009341332005583911
Ni 7.414996169890329 3.796838372890358 8.263187954092519 1.1395610007110246 0.2521105489211529 0.05946061725947824
Ni 3.1620201130972867 8.328406589501203 12.368683847125062 0.4493846096184002 -0.26743535220368136 -0.4789834063214396
Ni 0.11377092680653596 4.694934601474578 10.08854763932337 -0.24613093429895028 0.8895726403391969 0.40011918772436894
Ni 8.664120681848418 2.4187503557925263 5.94067647888531 -0.5032723607757913 1.4675476321352017 0.4248822536016619
Ni 3.524092630705672 2.7583830793730337 11.37381093960006 0.10973853957842392 -0.9052908224054022 -0.04263351839981045
Ni 1.1873993137730166 3.198963346862171 12.526674950938443 -1.0865769923148254 0.29669939127512124 -0.060005176909038595
Ni 3.0002842391605085 8.371232274289852 7.903564806213632 -0.2948525678743696 -0.157645904782664 -0.16375947387956957
Ni 5.822671628677289 8.093351773937407 3.522668410940193 -0.44794376340681563 -0.13071848426420069 0.4574344765060703
Ni 3.1669206542258155 8.521149196093122 3.425392669538895 0.09206400511679629 -0.44898480307682026 0.3585876441394857
Ni 3.2574635565839847 4.290657975066271 9.288846889754925 0.06671292794651736 0.6802419055877317 -0.4158065165526387
Ni 7.163546161580354 5.993289733409525 11.323353382671538 0.1581711811585147 -0.13301705049039025 0.5715145808826415
Ni 0.7710794273743958 -0.0014440381303367285 0.05034044840890647 -0.9970534942316959 -0.7113576531559297 0.5226353386834354
Ni 4.714879083199878 0.44064422675754283 1.6204828343372242 -0.021029309866473462 -0.9165082883877764 -0.853546342843259
Ni 5.994695035644913 5.485588267485334 0.6192149008064443 -0.062038919509615736 0.3876539653778227 -1.3824286908776706
Ni 7.799130130924756 8.807290351252297 11.292883547537096 0.5989042857495039 -0.5897107921756941 0.06289432553137554
Ni 8.977998539461161 4.891920139815647 5.746994301632167 0.5573670857376659 0.41073167313289266 0.25956443409603686
Ni 8.162716050940482 -0.15876672254714058 2.522153575274018 -0.38802394712273175 -0.12292701324423991 0.02654535458869622
P 8.567380036298287 2.0600289435146792 3.6689783903393014 -0.45949290169699575 -1.9787384764271214 -0.6062499274812978
P 1.8773666779573628 3.27183187110605 1.5013339239760344 -1.2395943971865426 -0.2787320081634232 0.2358388083443229
P 4.623435346075435 1.0166641005211636 8.229514750529209 1.1377254901641827 0.03978473609710567 -0.5600070944636742
P 8.599683971016862 1.5312299273643593 12.256561447940808 -0.44655048260371477 0.2787525769887135 0.39184332086882195
P 6.300429346970541 7.734116885842784 1.3926130768692284 0.6118672736680753 -0.30773379471241197 0.20986989508438697
P 1.7923909344547655 3.293776206012477 5.989816114550774 0.19705603114917028 0.4552518670324546 -0.2591000928651086
P 6.6913375854473465 4.075142265582953 6.170933448483931 1.0519928265820528 -1.1134139100020117 0.03802790130699902
P 2.306848661126008 8.284517919688348 10.22985978743919 0.6253722501330455 0.18759848528069625 -0.2583223341588196
