# total energy = -381176.08663181943 ev
CRYSTAL
PRIMVEC
9.12486772933908 0.00000000000000 0.00000000000000
0.00000000000000 9.12486772933908 0.00000000000000
0.00000000000000 0.00000000000000 13.35516627766393
PRIMCOORD
 96 1
Ni 6.347376610301172 7.395093922074787 5.829116060761455 -1.4392333585715409 0.3226680474247411 -1.647876580337678
Ni 7.895693290139692 8.427965074065652 7.282639052275989 1.6545331664222471 0.6342217301038755 -0.040373004500407886
Ni 0.47026465781181115 6.579786991165777 2.9991295856397926 -0.7096167592054231 -0.7024876043598095 1.37228954556114
Ni 2.1599018139990753 5.498873410621629 6.99411438487173 -0.008535548274836914 -2.13198753769367 -0.03821404917587612
Ni 2.7012802159110127 0.4541738660718564 5.399266354574593 -3.614442683068323 -0.4734683900404813 -0.32191265731595525
Ni 1.2348683487399712 2.1242965801500886 1.9546087150289904 -0.7471132134889843 -0.3577466362954291 0.6511665854883302
Ni 8.397807386246352 7.591068706127758 12.808926302993086 -0.37749836500105954 0.5818067068372691 -0.2513551588123671
Ni 5.976541986102602 2.752233477267431 6.546755882501004 -0.2650794503769951 1.4030340258328482 -1.3788255469074446
Ni 7.574507071213378 2.450163856217493 0.9062252879117102 2.269617918586356 -0.3151707106064314 -1.1929103628664424
Ni 4.550589782408343 8.25283148788841 1.7173676291926643 0.4108046924626732 0.3062075878758726 -0.13448592172643292
Ni 1.8071618024920846 6.743103873643779 5.193343639731729 -0.12162037861767441 2.5346850276681767 -1.1134735595953533
Ni 3.9126064059297168 6.201926218821713 8.240925360485498 0.6463671072171578 -0.6123655534607325 1.616444587080642
Ni 2.527451485817933 7.657661990758691 2.816591169306616 0.04145646737257377 -0.8342414718670601 -0.5686858531845949
Ni 3.650476330896441 1.1819258662202836 0.7067283049182721 0.7635297071737946 -0.226661512720429 1.5421379059472666
Ni 4.029149216467712 2.9978840411958187 11.300327434885595 -0.9464654968714991 3.3842379330813266 -0.9286498088463169
Ni 5.0766840308868995 3.239373665443239 8.615310470714473 -0.8207344385195606 0.5431424574978516 1.0262015765505617
Ni 5.887802647511778 5.304395104874974 6.983523150907476 -0.04198611462379866 -0.4333429827745053 0.22576008395208216
Ni 6.8401103423902105 8.258936024394039 9.834703956285685 0.08984694286081944 -0.06760432941253519 0.836934445318191
Ni 5.555255968272293 2.1808160108165735 13.049359267558364 0.17281541343425078 0.4361573122948489 -1.0212863986371314
Ni 3.5171163891478656 5.998259171279585 1.1931467160573157 -0.3835630831379007 0.5960215648850702 1.557188372522486
Ni 5.96298243266857 5.489593420148944 9.49892889884636 -1.5567520563160158 -0.6918067276071957 -2.5605919773419257
Ni 6.216252261144345 4.749548398206218 4.661553648821461 1.2484449055986369 -0.47169021509413606 -1.1537915424881096
Ni 2.169756671138211 6.340733706599977 11.770802877141772 -0.517921992368166 -0.40777516160773 -1.0757626753081408
Ni 8.71785299670749 2.2855421176553277 11.535244416913276 0.18921365228661607 0.02720972764557249 -0.3473308402787437
P 2.941756979841355 0.9137003795490988 2.9151260533963863 0.33159311782851275 -0.33848624540392025 -0.35161686924860736
Ni 1.3588935508095321 4.529502213104139 2.0080156533156983 0.629175940149852 0.1300327710510857 1.7145092898655634
P 7.402120070220283 6.485654855751593 3.425719889076564 -0.060637411176398794 -0.29757562323248754 0.8976343343014088
Ni 6.191678992370557 8.987365089727396 3.356607228467745 -0.523908034748272 -1.3448497041826322 0.0571291409128242
P 3.9395977646496814 3.6224721118593983 6.412389467842755 -0.32791875430071915 1.4413938565579694 -0.3091939241977062
P 4.677808688180401 4.322449839637363 12.958210963889085 0.937130078403186 -0.1492078013176398 1.000617043213238
P 2.767426382023597 5.570202501599982 3.5631184972786403 -0.3502899229070677 -0.530478488876938 -0.42693450814500017
Ni 1.0211821964397225 6.470580574275806 0.664939148214478 1.1019041095901991 0.23513355474718217 -0.4705010798820413
Ni 0.05303555617044602 2.164217876431308 4.582451083031231 1.3190168022799282 -0.40892547316208927 1.2107733591897922
Ni 1.610621276640387 3.770796836671105 11.382875550727436 -0.47783669431150605 -0.5784321339380812 -1.7515645428466478
Ni 0.026291481365731756 6.947829405841592 10.52071881147633 0.021512677260795206 0.5721864101386857 -0.14949756464391672
Ni 6.275308405037384 0.9820912631211529 8.11227567545472 0.05244613361485806 -0.22227315384474622 0.49433212086336803
Ni 6.782185682094628 -0.041183265487091635 0.9251621258939763 -1.5183654861180174 0.452893136992291 -1.0777527091549761
Ni 8.281510947136837 4.7394836691094895 10.509901280792585 1.022037674980859 -0.8244617667724768 -0.6504808722752152
Ni 5.488708307979966 6.432283504448999 0.08770275361767058 0.22541632745941825 0.3127854982037065 0.2853749674012375
Ni 0.9685773340257277 4.70430730404341 4.9935364112357625 -0.3769969998846088 -1.3325683157121178 -1.2823017062470818
Ni 1.488001304199925 5.235456729239633 9.440152888392369 0.03843259294458542 1.010798097511298 0.09167679698070663
Ni 7.956218537735881 1.1255706831727845 2.8299864751216632 0.6675164876012634 0.10009021785538247 -0.9885745102264071
Ni 8.728173222100418 8.363726005306845 1.7134411986121365 0.567624501799616 -0.6858600231054575 -0.2988771156527304
Ni 2.5126965747123946 4.54947654854633 13.257232879120068 0.2741554445363343 -0.7245029322886362 -0.277322015189774
Ni 1.4717134153171876 8.813198739528625 11.788805328669365 -1.4460699218774 0.8666232306318752 0.7812389515280996
Ni 6.806685951926644 0.8659654590380265 5.577892027628823 -0.16585132341159178 -0.8301945554911961 -0.6038138072359795
Ni 5.479510441316773 1.4135697581962898 10.397678182633909 0.927822427849015 -0.7809659003723712 -0.01805480061918181
Ni 7.216565885105177 4.505220940097436 13.015023302809428 -0.24704264747994223 -0.08158418863139498 -0.32435623376044137
Ni 4.195386056616568 7.989542554654513 4.24582102548641 1.1282232071007021 0.6476387748407298 0.5046178190600923
Ni 7.979815445663477 3.952628075755871 6.124318306364251 0.7860178609739819 -1.0762424431580369 -1.5510619479097738
Ni 3.3193713807569405 7.979550824499556 12.985601991815248 2.1646251212230334 -0.8612979617642199 -0.6986512613328548
Ni 1.664786491434745 1.950011606670938 13.075789446913463 1.1267905884192335 0.0011647097320625103 -1.7845749363343975
Ni 0.2866339948123806 3.7639531858800392 0.07138201521113609 -0.6006035278287979 0.5747809103387391 0.4595288971412537
Ni 1.8138320807964439 0.8385589188367369 7.908982747489171 -0.7027002345912479 -1.0465500582999268 0.5087634657973497
Ni 8.164156023371635 4.044460744504257 2.947939077722618 0.7934010408119304 0.7050283685037922 -0.002317078168950848
Ni 3.0340732665789765 7.796679350494547 6.984537836198098 -0.22602079381263654 0.7806452838081588 0.04834162452818126
P 4.702318082880139 8.975302014599677 6.224896248336847 1.8014652843318328 -1.3213829885192598 -0.11713714603534019
Ni 1.82761063105579 8.851614432635808 0.959034547362665 -1.7262772290347692 0.8475546440361985 0.50420952787808
P 0.33295547331340475 4.475309623706616 7.659829146842529 0.362195416095402 0.5762577519945817 -0.39454529318101733
Ni 5.411083058273833 6.08706238394446 2.7038470412010485 -0.32215279835121935 1.0240055973405073 0.7767909430590751
P 0.4965853387542514 0.25196497239161175 5.741252709471888 0.6717783482014107 0.8564473185401379 1.6764433362317772
P 7.371734260707949 2.105709224601553 9.74320799515622 0.9369835255229928 0.007742620059896342 -0.19675084120392566
P 3.707570628229375 4.854092007690543 9.998531831356086 -0.3480474067297941 -0.3169766534669186 0.05172648184001414
Ni 4.2757305169036846 5.945106816802305 5.140830938481721 -0.7332318275212018 -1.1649383031335485 1.0804593094528616
Ni 0.813825052391052 7.146569024814152 8.058374169337512 0.6222218774295218 1.2147637112961078 -0.1857802011250349
Ni 1.5534813549688458 2.781223182018387 6.397271387001904 0.5287599635239345 0.5463509371328203 0.8276460780377294
Ni 4.180412148685716 0.07366505711503575 8.879556602572345 -0.425408558418777 -0.5359533959485802 0.4138846169395775
Ni 6.3195457637508365 3.719834450446966 11.034078394562872 -0.9485537468590955 -1.3050618827617328 -0.32913231499284606
Ni 5.740965276138664 2.00651278760198 1.9938328714162927 -2.108963823104987 -2.200882818003487 2.8084375803391373
Ni 2.221595044663606 2.685913938668139 4.101331482578017 0.6939080902209146 -0.09187065815906757 -0.321576099912143
Ni 0.07374535595098425 0.045195469824200675 9.71358593707217 -0.17806277787611915 1.2081564903922355 -0.428201804893198
Ni 3.665066994382994 0.9508020917043986 11.718917966790997 -1.8801014460784975 -2.4876191845286253 -0.1233137071596973
Ni 7.876786564220907 6.29639597434159 8.470768003573296 -0.02413905914004875 -0.28182710214897916 -0.3600125495114703
Ni 4.200477732805122 3.7136569149995635 3.5885193915547613 1.9005658845804365 1.724703971010378 2.8584463081570965
Ni 4.432486619489985 6.962712065095229 10.6443343069852 -0.32050549255578353 0.810789668602023 -0.008257612023101909
Ni 5.850089569219143 7.565674199259041 8.017600610411112 -1.485097982314139 -0.2356027810741168 -0.37282461367447406
Ni 6.522126952034115 6.13225785376866 11.406033552517632 1.818900449089145 1.7164684704744633 1.7248618367444812
Ni 0.39535770619988986 2.7266929725151714 9.01953207341895 -2.022078791085969 -0.4030906116478671 0.9907522346040162
Ni 3.8980796165172134 1.5734739401464801 7.059234003365654 -0.10354295229067328 1.2023766504856648 1.1861889849822087
Ni 8.266582663544591 1.8719483633141771 7.142289461852805 1.2135208400279425 -1.295380650918227 0.019131064402496085
Ni 0.8808599806197027 0.03606786464246275 3.450133472665227 1.1870765297934847 0.8845466478795153 0.8030501338659202
Ni 8.224298026523524 8.25117076196311 4.6926584979102435 -0.36763098528867655 -0.9674809227809016 -0.9661935714280457
Ni 2.309120775847481 8.03124320014141 9.881340242723098 0.11492676864758272 -0.522690617401403 -1.419223491108517
Ni 8.330675734419856 6.110385545840413 5.848281020436756 0.26399727305640985 1.3106337204225558 0.0652715675143005
Ni 7.413179409898645 3.9292775392567534 8.329817084367269 -0.4122889903176835 -0.8860607705311966 1.3239882873525906
Ni 7.8631357621096605 6.078412009344551 1.2877916690374438 -0.7449696847834203 -0.12449255795914688 0.7009773383628701
Ni 6.108159078116386 4.13730627356972 1.683993425501565 -1.1675531150485763 1.2902466721257715 -0.38686515092794016
Ni 4.499828143274075 1.3620598799088655 4.52220596887409 1.6419902967602304 1.223275605421861 -1.471131235721402
P -0.07199246886169917 5.612934257139399 12.281049967848535 0.5189064677686224 -0.10351595570747979 0.45791912945197266
Ni 7.391845469165962 0.3010868727963401 11.78816476295532 -0.5565939550170672 0.44788462803410606 0.40072802495296145
P 8.979535953222417 0.9264934440945317 13.44063907037355 -0.7385851214133151 -1.024800839548293 0.18993587516462127
Ni 3.5144701775086538 3.3882002579796233 1.6803872777780593 -0.26094434516269893 -0.660909523807707 -2.917875557958007
P 1.8915303294443477 1.5132680629205408 10.242824614967526 0.0011749941447076538 -0.5436993584425861 0.232917778042786
P 5.273507427637961 8.61365613219658 11.962676945640734 0.9677465177374623 -0.4071447271125827 0.019010736774547905
P 7.259379764454087 2.5326526604191435 4.144041338434902 -4.052275840403699 1.7600849216128331 1.0827568472377869
Ni 2.519740972593332 3.207847247465727 8.816333131590932 2.654219727401416 -0.530688290894899 -0.2863998091213261
