# total energy = -340870.90090764756 ev
CRYSTAL
PRIMVEC
9.27744150021527 0.00000000000000 0.00000000000000
0.00000000000000 9.27744150021527 0.00000000000000
0.00000000000000 0.00000000000000 13.57847341372181
PRIMCOORD
 96 1
Ni 0.5154147668341105 8.004632347591183 1.942590525305609 -0.8877864949730517 -0.9302210099881785 0.4894030589928668
Ni 4.592129528707483 7.745346407471993 11.805614120732107 2.033101367448718 0.3775068496414918 1.0535881960936306
Ni 0.9292749460440365 0.2825723187401713 5.829972185083719 0.06530782006887463 -0.14709409740874668 -0.9111899614986566
Ni 1.126021651787119 3.9848653059923786 4.406662336560969 -1.776632027338237 0.18547064030441607 -1.374159508890343
Ni 4.513326939063416 7.04997432110611 6.248420059205228 -0.00033167230780588037 -0.402994452389635 -0.09814774941703097
Ni 2.3278214472300833 2.0752245425633733 4.958926174010487 -0.8813026870209208 -0.26413945506122893 -0.22971238373161085
Ni 6.775176498495174 2.8833453776865383 11.493186994660338 0.8259810316304808 0.1275215745934578 1.1134643036239726
Ni 8.560814976407038 3.110587034237256 9.715153235694935 -0.6470394506938341 0.9275894859026025 -0.5415812836583188
Ni 4.517622394562027 5.795218888544198 8.442850449936323 -0.07846724026896809 -1.8284253578604446 -1.4565003731821045
Ni 1.522335405544511 4.81396243675779 9.653411861303452 -0.6364992132841426 -0.4395419124963656 -0.08941448330909116
Ni 5.547334924251775 4.158084419630757 0.439744241501773 -1.6178466096344912 -0.23932522423102656 -0.5012687000822011
Ni 5.773528229892464 0.7338855300189814 11.768408796356127 0.4134115339579009 -1.8500658189483556 -0.45437614929572073
Ni 3.7757053832792273 7.776258843155302 9.164261531870135 0.18511711361973926 1.3176376625442145 0.21451073629050801
Ni 6.22478299328868 4.857612799870027 2.677349062586835 1.1071131645949641 -1.4747071259981184 -0.02013096642192017
Ni 6.479977581626256 4.738648165186028 10.122032140039408 0.4273996207068768 1.1740942586012038 -0.15615517916975044
Ni 8.746206093531761 1.832962707930039 13.330965622567328 -0.7415989685389744 -1.2889588065522832 -0.7993042936702428
Ni 0.3146156745644762 3.0021337409785853 1.6383924900054752 2.8967719432101724 -0.11422022949886135 1.0206742189744293
Ni 4.340896407967978 2.6152829777364923 11.033840446629373 0.4026910622166033 -0.6067451219501615 -1.4182148473383445
Ni 8.952202408631464 5.862925657936994 0.43848436492140286 -0.5950825980105687 1.5655431722450843 0.48277475504307177
Ni 6.041739068909417 9.110883771154674 5.574017774272414 0.743673591679816 -0.4665004433630805 0.9592271674125415
Ni 6.966839166196704 2.847283961869904 6.366932882479329 1.9086936558938932 -1.6717220194967082 0.7949329040754245
Ni 1.284118535484383 6.47687891610458 5.536024795097657 0.26386126169917784 0.11844403777222183 -1.5104182062464826
Ni 8.494063783507453 0.9202405733344304 7.257856740099696 -1.0905105230412768 -0.3216478336903428 0.5998273117844056
Ni 1.4100041416629037 1.015490211591755 11.708215826981311 -0.8387918102419039 -0.6300192619867536 1.1050822502078645
P 8.499936404091947 4.525072180232405 7.973497253307514 -0.45288902322723296 0.1587478795975911 0.586939400078144
P 1.401172017181958 2.6946143815564145 13.15705255629116 1.339690014358564 -0.19931937326205026 0.33967435217475045
P 5.810814268011078 3.0763161646651835 4.432366416484192 1.1856426255604355 -0.898080420699892 -3.0159698284292835
P 7.953671360433794 0.3364584832597897 11.746900903305521 -1.5262176351725842 1.4798655302706063 0.4436415364870359
P 0.2093463992909528 1.2277024126181744 9.463707661540921 -2.1118681412359757 -2.1646708868593043 1.373389463493538
P 1.9735530591739998 7.870860915983247 3.809684941182496 -0.1375704741890276 -1.5882077037221356 0.44345590283879105
P 5.063748276594954 8.46441307989285 0.5743627035352457 0.8131455704287093 -0.42885820753027426 -0.09937365140433208
P 8.936273041264045 4.906634801715947 2.7597707822309205 -3.4182392297274355 -1.4701112790973196 -0.12046955284268285
Ni 2.8038562573580275 7.316728601779041 1.3740058124497048 -0.7587700810016222 0.5950265479616527 -0.6400545347355686
Ni 2.3863806591247565 8.092582494733374 11.18399120152629 -1.0124371757766177 -0.9066535070808838 1.0610541654533727
Ni 1.1519613787290561 2.279634415135512 8.040628821316046 -0.09581395907753175 0.09895224759619732 -3.2257348225046902
Ni 2.8377467518211517 4.097048130807079 11.982011685890626 -0.7161360483811796 -1.2895887268267983 -0.4812284936018744
Ni 6.432978062066939 6.394578730946524 13.626813032609796 -0.05867823056749895 0.23287792594378603 -0.8816299884533526
Ni 3.158783343773509 4.810752441935933 1.848736214277207 1.578530585643688 -0.7604227861136968 0.02464993733819626
Ni 1.9445146667103865 0.01376865119975994 9.142467893615736 -0.11595135325735514 0.44706264635344295 -0.7518309306796278
Ni 7.78721550178135 4.549675955572181 5.1856056175952965 1.1432338215769215 1.0159241058839537 -1.3009571165647402
Ni 5.230862833606798 4.308555246265692 5.917078085032877 -0.8657701386029606 3.534264887866152 1.239059607728995
Ni 7.228917616262077 7.475502738719067 1.9805964928987205 -0.9069964922425993 1.4541974360805408 -1.3311917470795656
Ni 7.75613607214777 3.9324013732825596 0.7247565274042225 -0.305930422955086 0.04275487446902314 -0.18179730521788692
Ni 6.585146660529618 1.243474063477006 0.6136563800337721 -0.17353069433372048 -0.6450252484772827 1.2048289686808993
Ni 1.6984212486625245 0.4493872143856963 0.8029022741772281 -1.7521119307096857 1.0478116986211699 0.1352935052293928
Ni 3.4695590852259435 3.891098202915784 4.167410104009168 1.79895974430116 0.746678954165043 -0.0865261060177026
Ni 9.381163479666638 7.662990557663847 7.352050605493647 0.3149413682044447 0.5509043608314577 -0.25165443522034076
Ni 7.688169534387887 2.5381410501534423 2.957255972331864 -1.0069003051187884 0.462740462100016 0.518953518956474
Ni 6.159618242916661 6.228475415077983 4.451471452139247 -0.5498949457303368 1.8111989666798292 1.0745480861747494
Ni 1.785387986986458 5.347897760421009 13.482786316966946 -0.7770400829554037 0.844228664986759 0.6138578217355428
Ni 0.2748544150051937 6.061982446658812 11.309456539596631 0.5258494747453589 -1.4937967956397176 1.2773495044481291
Ni 6.84126899303536 5.765113590287194 7.411931852827958 -0.29550151431227817 0.49833712825770304 -0.6003641581244822
Ni 1.4207659740136358 0.45478761318859384 3.2100866685289513 -0.25029457875833666 2.2078741617196553 0.18175205380224826
Ni 3.479012798299561 0.32437832644609293 13.202566757437245 2.016473786194366 0.0774511402996279 -1.7656032803279014
Ni 1.9925903695047777 2.4288527871434216 10.094305577829582 1.4333504174282024 1.5095098354996004 0.7056742296179073
Ni 2.50264555827939 8.220536970406906 6.812918059000358 0.6266914831651014 0.9739565032029162 0.84519822798888
P 2.5106056032422592 2.5345970674310463 2.8005191615851324 0.07558786183864402 -0.3741559308913879 -1.3064816459273951
P 2.781748113830618 1.2335286459942603 6.780505460997124 0.735597756650217 -0.9205678031691307 2.8657585255477938
P 4.9535044370917225 8.18485592969922 3.8399516669247618 0.6760288959476486 -1.4830210451804524 -0.4125851814018636
P 7.427992959867257 5.025302558266132 12.270228400149923 0.6148764928080444 -0.976737151271847 -0.07466072203868432
P 3.6311442869955135 4.263670983409794 9.718914310552682 0.4066613597182609 -2.782585138052408 -0.6198829448837002
P 1.285055557094231 7.811039972019867 13.175505387795994 0.7871576310053798 -0.8935200550227194 0.030932942133430598
P 3.8875171104266615 0.3153690028290274 10.675490911977525 -0.6175900350844654 -0.46365371794290466 1.1024846646840176
P 5.080039464187959 2.244556408137134 13.008218270368873 0.342116643067656 0.9598172355880568 0.8614224031572261
Ni 4.771954180823207 2.062421673042675 6.043792166753571 -1.1739261084544557 -1.504446819154396 1.0212048946669188
Ni 8.65925791009119 8.628595965333286 13.511205904070392 -1.2626152835617481 -0.2985331020497503 0.37491492054459946
Ni 3.6955853969163632 5.913302166268439 10.85102010859464 -0.05420888194223567 1.5033615565100173 0.7751973733197102
Ni 7.355192874991227 0.13482163800630106 9.513798424668568 0.8056469480588189 0.7789678961057359 0.6272812942303003
Ni 2.145900093294302 6.2418905957496715 7.78020732233502 0.26820231227669294 -1.2873094438743187 -0.08864778034639571
Ni 1.4256273534548285 5.7729530285082005 2.8138805330950674 0.8262013751714029 2.3659023895424025 0.4564389453620203
Ni 3.0668253418248392 3.5185625321885015 7.727020676918198 1.1638324716638795 0.48433284355881107 -0.37864070613561884
Ni -0.02338286401447002 8.216074520958024 10.929014633068233 0.44521890827648486 2.123553033773072 -0.23430180287450617
Ni 5.909665409129226 8.319684989658866 7.929312509554413 -0.3558944135780387 -1.3318646047768739 -0.9620558951105884
Ni 8.272165933365374 6.732129169092246 9.22334120824315 -0.5475326161457473 -1.1610893617011036 -0.2657692773551681
Ni 3.622970860873966 9.357691552212025 5.048449775261888 -0.4458195179749612 -0.8615159913122968 -1.16151796459809
Ni 0.9053948111554291 4.21056690722394 6.644965749004662 0.10336091818685426 1.0973630271867358 0.8805542388906705
Ni 5.595039529378899 3.63652520317088 8.186923871450063 -0.24222954236201505 -1.2765591473363498 0.7859494696298917
Ni 4.88731916813472 2.5800379767878447 2.4437996734367533 0.2529934657467385 0.5878236024553103 0.001635221610577829
Ni 8.207437222752393 0.24093237724035152 4.402833536378946 0.5134701272443996 -0.1063613955760749 0.438081268790439
Ni 4.951797387822296 6.532840444328387 1.7488126009006593 -0.4271137140353419 0.5330560197961272 1.1158124921411752
Ni 6.06219582781749 0.701377374366425 3.3673940419391055 0.19721106866979582 0.04667400701777123 -0.6528848537310176
Ni 9.268915712760165 3.671120783201811 11.92498232412926 -0.09312767049462027 1.2889068702684254 -0.3655514770518285
Ni 7.231413248074444 6.981506801495418 11.379439993178108 -1.2270949791679513 0.8663653489847981 -0.10663470384211957
Ni 8.300081755385508 6.9773597850637135 3.7386429315051415 2.0399968090169707 -1.11133594442706 2.253427424869422
Ni 3.852179335061197 0.23434168266969627 2.239130960241696 0.05630510234963207 0.006541400662943573 0.045580002622644084
Ni 3.4160746339311414 2.844630613548948 0.5375544536632373 -1.6739879327127491 -0.6785850867105991 0.35935974641881985
Ni 3.636775694096285 6.263358595801045 4.021902708673925 -0.03056501727105058 1.1445278577979967 -0.3622789769481438
Ni 4.310336515068572 1.254124566527558 8.899128020258992 0.21838898829899162 0.5137961431252507 -2.0759832544139085
P 5.921809580290526 6.893380382961276 9.496662062138364 1.1129346563727478 0.2982122283752219 1.6747602921023996
P 9.383111742419787 2.376871281401049 5.767958981650961 -0.9620445822566787 -0.3018261709787253 -0.26059904600813827
P 8.17065216648459 0.4196743519118258 2.2507815715055317 0.12402076052905091 -0.38655996098269557 -0.6954396963740926
P 6.233475956144401 1.0653935703974342 7.594127819037516 0.14311968614203094 1.5466777027991492 -0.04633719250364278
P 3.9073893905087895 5.566427899232643 13.36003648607683 0.887861314075045 0.5133940225908254 -0.3643705693698499
P 3.135933004911567 5.1301190943855906 6.007157405041008 -0.3859742636825546 0.5276847281818847 0.24849557787638496
P 1.1949808758069398 7.105054492370159 9.475316524317188 0.20037558244070652 0.01776863683733069 -0.19693621774185438
P 7.723943349512391 7.523986648947451 5.976293212054443 -0.46664236825758343 -0.0676089573982255 -0.8955764233311158
