# total energy = -340871.43163738993 ev
CRYSTAL
PRIMVEC
9.23394316358119 0.00000000000000 0.00000000000000

0.00000000000000 9.23394316358119 0.00000000000000

0.00000000000000 0.00000000000000 13.51480920117863

PRIMCOORD
 96 1
Ni 7.219678622204489 3.6994039442874347 0.44867268871094423 0.8131363144573287 -1.5819061869841402 -1.2143783029322313
Ni 2.9039920671213655 2.4297090366258827 12.822391273157349 1.1664223438782428 -1.0268654353868059 0.4409897006864857
Ni 6.775405907483209 5.778537089010753 12.296597613272695 -0.22115343841800622 0.4845549868719461 1.685198199606272
Ni 2.406725751714502 2.463819223232006 3.4175572158737797 0.4417977984100778 -1.4613152780722445 0.24366730324980615
Ni 3.03125427389061 7.175060208105737 7.998401993617108 0.017086266058325413 0.19612657735636543 -0.2688348036543693
Ni 1.9813272171293657 3.3521153362050584 8.821129721898021 0.4806204277042303 -0.2238536109579887 -1.0275529483721335
Ni 6.541574760913945 0.31277859173070727 9.346544790106753 -0.8983712124674335 1.9058914105584082 -1.2799609739290472
Ni 2.2575513974584323 9.031055112618722 3.0117752704673246 -1.9999482777355173 1.84019329702965 -1.2335523047575208
Ni 4.235609798654239 0.31658112958788154 3.969056327159117 1.618399653924484 1.5707720247441914 1.496548647353242
Ni 7.40116254412023 4.13669579786247 3.9660562189760284 -1.4234526986985163 -0.7472898482761646 2.266737511714767
Ni 5.077643855618445 3.952118504936158 12.68714909257516 0.6462814894818869 0.2294809844470951 0.018214466125497663
Ni 3.2597943709402992 4.114986797128578 11.133891789832001 0.5681029840979314 0.3692546369350286 -0.7797726513952183
Ni 1.7477084512563499 7.676472564061097 0.8910182794623553 0.25194059900219196 1.2182940930468695 -1.7722524102133024
Ni 8.765911664267822 8.704607514598615 9.161540888999282 0.7286110409197387 -0.009445204573299863 0.12674124478400753
Ni 6.7670861245562675 1.463293763206755 4.063902775920567 -0.7131222012555203 -2.1459805095386524 1.4101693513260487
Ni 7.598741229234259 2.471418758580366 6.288292312751341 2.0436256640188097 0.9204749863450082 -2.5231135207804933
Ni 8.820124145471002 4.474261063634005 8.605636263358292 0.7337077387163558 0.562377908688696 1.1695230942907535
Ni 7.209068821335395 6.616092683467116 9.377520976351718 0.6264351441799212 0.3809613838489955 -0.20745228678182984
Ni 8.04479609501536 6.4269445885998095 6.924825884631461 0.6501836527497706 0.40191433195157883 -0.8218793507572812
Ni 4.437159079393776 6.58641478965226 11.189154170390113 0.33485559062986847 0.02685285852678601 -0.0040520585821865705
Ni 1.7061187705649643 0.6364375388696428 5.153710310465565 -0.6510087197542271 0.984935113701607 -0.20056481563337716
Ni 8.466851942120417 7.3617151382779555 11.730841293508783 0.05687691569270204 2.0860082427500783 -0.7949362465095342
Ni 2.7393600917557523 1.7895012787006688 10.422607600027169 -1.9493854771863006 -0.25218819623662375 0.9734759640220718
Ni 6.093220643247372 4.767900461055424 10.426959557511593 -1.3588341913871824 -0.4935106534033372 -1.5627941487450376
P 5.909797593235452 8.142952912455288 3.123272365814633 -0.5036120035033972 0.11792647470585496 0.7412711528859104
P 2.9792948748563233 3.4606695738178326 5.178713058779966 0.6441654715801487 0.4324330693657262 2.798465813838406
P 3.9194765153171414 7.6420761252122045 13.102297026686161 -0.7146646060419756 -0.16697875214781563 0.5512884836437538
P 6.413195247003568 8.128040094001339 10.73485339322859 0.11574335101160711 -1.705525084089082 1.1183290879154417
P 0.6380451684008085 1.3945932249421211 9.96263071790983 -0.6229024484363143 -0.1721127309402713 -0.6057673314179245
P 3.3395017696365787 1.4256839120841942 1.4614783699509988 -2.1240916798853613 1.6088071251400422 0.8049144407681685
P 4.271446732660293 5.383222741746338 9.206842614903353 -0.7874180837556182 0.009647550392093062 -0.40049122635180706
P 3.1656450848991424 8.476935408220548 5.917986254167317 1.090457301205838 -1.0054414611850748 0.29446844506207354
Ni 6.7238805037847325 0.2889005377120894 1.6315482145348965 0.0031925387953686954 -0.03262832755798251 -0.3177371857820269
Ni 1.426404159662775 6.5434954211234935 12.182978557751568 0.8598054363790935 0.1693066289500439 -0.2216067239053409
Ni 0.4251852304945568 2.0067297951893126 12.76850844373052 -0.7744509820719888 -0.5078208993784221 0.04009301136614385
Ni 6.035342286548081 2.105219034588585 7.616946871874386 -0.9954282999234471 -0.1178413711912164 1.6913904444599128
Ni 2.9910958544130706 -0.022114370845426286 11.810834944447832 -0.22192039849101777 -1.3077659119564573 0.557885163024665
Ni 3.503302690103829 6.123784995620483 1.7336663936570182 1.9285132617229817 2.1179084338927847 0.402626527527255
Ni 0.1120326640595864 5.866176445014736 3.9298628547580097 1.6262109224387866 0.05346223358419825 1.1361272924391272
Ni 7.799487156905379 2.3649052224402376 2.3791605841301493 1.2361583749218001 0.45384727337544417 -2.6530406194916503
Ni 3.9181837632530216 5.776182433465392 5.459861701078998 -0.08835647435822203 0.05842189158231874 0.6405415016743162
Ni 1.4926300011189517 7.915336209737112 10.124619938698649 1.0176390316925312 0.516655981171549 0.003078124704691473
Ni 2.6796164785068037 4.853886941205998 3.5100388517522227 -0.6286370369272465 0.5934183229342683 0.7307386287857027
Ni 4.21945963179606 8.795349475556485 1.617682525252884 -0.2840310517788334 -0.1497032528968196 -0.719865690626941
Ni 4.341929421984749 1.9808470520769783 8.995956894077878 0.06416367916210239 0.013383106175125338 -0.20744123103823628
Ni 7.512791684856945 8.87677438770938 7.219827288691863 -1.160216472177847 0.25217611205176566 -1.1088689709438064
Ni 7.974516552443838 5.15042579682837 2.1458816273711308 0.9756169216244746 0.8545344177881411 -1.9019599367144857
Ni 1.3775843013556353 5.358374200285299 1.3629411140464878 -1.1880682042827926 -1.5454921671314803 0.6255735675105742
Ni 4.926558075096141 1.625968142589558 11.430528525253512 0.8503676880049613 0.5304687186849252 0.2732894969916132
Ni 1.8656997789371956 5.506274270363879 9.788438841030054 -0.16455163076356177 0.6952782310955639 -0.47034090015509317
Ni 3.2426377042607712 5.408376003336777 13.267150616691337 1.0045765420816182 0.48796041300906934 -2.3563625683727674
Ni 5.750041139940233 7.314954449330092 0.9044435096482358 1.1628204854595974 -2.480273028576199 0.14609111006552905
Ni 0.8670894387555041 3.3867610915234603 10.9046129773171 -0.757340033423315 1.1799193499234129 -0.02270772601016089
Ni 3.766211524172465 1.535854089777117 6.453267790808276 -1.002512717574054 1.1447474300079703 -0.587037359108589
Ni 7.880912069058274 1.0304526703096166 11.255565614106924 0.42700367082003876 -1.4009648020086451 -0.09935205413777728
Ni 1.1212500349273777 7.453278920190874 5.812989854913868 -0.005961359789757475 1.127269327827865 -0.10568750943750185
P 0.6972384386281752 3.927500812057997 3.0681050948726667 -0.9901081732621143 -0.5682760193406858 -0.6919710210992017
P 5.7139918252379305 0.9032227823419744 5.839168084212285 0.8173146142047344 -0.7090284908021208 -0.062340252800118436
P 7.8385190352984715 7.7598366043101725 0.2926236636567535 -0.25332539516486047 -0.24672511623952345 0.5159059903794019
P 0.4943151471233446 6.564650385258476 8.351963219393458 1.075351041692019 0.753284889517335 0.03686550556778167
P 6.887773763685134 1.6419890342413241 13.164708326158854 1.5517317202832888 0.06250043252706654 -0.6683988902062166
P 5.938201202872819 4.965220595756628 1.3810110177198833 -1.6674763568464768 0.8042930051340859 -0.6266953398198433
P 0.2350657247904978 0.0844157863926688 6.6312714394885415 -0.4710536099514016 0.7824501982273815 0.6593977151488708
P 8.560576466769078 5.38861536464238 10.837904200625543 0.059589943748490914 -1.2798887259302152 0.41700490773611404
Ni 5.902133420283887 7.921827671887654 5.52015104037787 -0.9218510407569285 0.1298257972466022 -0.4515353374128159
Ni 7.607033310331253 3.3305263767342637 11.545431098895445 0.5665196987712114 1.009053089795733 0.7345459183469351
Ni 2.021947333772662 0.7931901904044472 7.935261212622518 -0.6540590765447767 -0.7416683883243291 0.9518627566276703
Ni 5.354569815639462 3.192525093889512 5.458955851239782 -0.4846940835529717 -0.484756561359791 -0.4857734326600795
Ni 8.757361032758004 7.851899019162108 2.46724963317358 -0.24476799251315265 -2.702565465694655 0.3580130025829383
Ni 9.13065242521581 0.2786822560395567 1.1407705910955817 0.9195478465450486 2.2019557393526914 -1.3773214515580923
Ni 5.189503844938038 2.0826235752964397 0.7359517459768953 0.0980526186000634 -0.38883950104549164 -0.31384299293394335
Ni 1.1058755193076715 2.626299689805191 6.686965968593801 0.2041479049989452 0.4596620802850084 -1.1168244783454573
Ni 8.157828795135977 8.36749471204952 4.723358688686187 1.0669358210451303 1.3694158235577705 1.3134737609745122
Ni 3.8817650908181136 3.8414681621908473 1.52432181797084 -0.5675854210315644 -0.042005397897508304 -0.469960633997539
Ni 6.743382592066306 4.501076435021169 7.508085143949218 -0.15460120441906922 -1.5076414148322939 0.38138690142218834
Ni 5.860626845082337 8.931910263244076 12.641171442020422 -0.011411070050419057 -0.1333232688768994 0.24474485258470108
Ni 1.4415755285295482 2.6506495983272127 1.3126715266388715 -0.5180852574189078 0.6550553790197751 -0.4671882134587244
Ni 5.165883417937913 2.727439070935908 3.099189318254419 -0.3572077330728235 -0.029779031034645485 -0.02927355215313668
Ni 4.893380516764847 8.95357309426139 7.6052022193718605 -0.5526686518207321 -0.7051232422104438 0.42083559433611395
Ni 1.7142908103988623 5.416732722036977 6.543992207273848 0.1056905947612954 -1.6203758038142482 0.8125236205739942
Ni 5.598576767742008 6.444839970744549 7.380815550025321 -1.4349059348407802 0.6090164344828415 0.6604387548188755
Ni 8.4073114756244 1.9726473104131348 8.285024517513353 0.7000046900369558 -0.6458526294745844 1.8247471376779092
Ni 4.117193709580897 4.0609866966216455 7.38700598562379 -0.40467672518806436 0.15307165514842025 0.5198971138166659
Ni 5.112160335730434 5.24643110547587 3.3147908139309354 0.42967427567366645 -0.5509928067802059 0.7141403581073895
Ni 8.859746996236264 2.4110841729592476 4.409166380233933 2.99127849633019 0.35528223391533653 0.4833344842012838
Ni 8.973555347595353 5.204749085351333 13.264460769003637 -0.7837432060071922 -0.1328681836173518 -1.0122733965052437
Ni 7.126148010365447 6.50972689042003 3.947837648815259 -1.2687265386658084 -0.13498625840161915 0.14485286678305376
Ni 3.789444125553355 7.314871343840256 3.6229552041870674 0.5587351697297861 -0.269102198383143 1.8654839532756389
P 1.640511603310902 4.143528915915673 12.922698675995372 -1.5612530295101628 -0.6047800278039906 -0.12840989073568207
P 1.7137921774598448 7.016208681255401 2.885236081459655 -0.6510380303302659 -1.2330249714991408 0.9973571415150437
P 6.386869274612106 2.606825303353563 9.956765317116055 -0.5727669652325039 -0.9265613017484042 -1.469529952672553
P 6.027631943879941 5.177859842417647 5.527745958754573 0.3710595513542513 1.6348308028973133 -0.36747157689267684
P 9.01698258300645 4.4009989573716926 6.413196170397899 -0.6510974228132915 -0.9979670071849006 -0.6665790633886584
P 3.4926190176882126 9.078766897728045 9.445108824446878 -0.30916512784229977 -0.28745319008650494 0.07096373280307133
P 9.219510661737393 0.6028361425401837 3.3654574609011028 0.18458772347883048 -0.34122678426353487 -0.09269392539131133
P 0.6261444622562573 9.058812346224029 12.60245167091138 0.8409687632885645 -0.7556487617638212 -0.5477663294231082
