# total energy = -340859.6204122753 ev
CRYSTAL
PRIMVEC
9.36678593317245 0.00000000000000 0.00000000000000

0.00000000000000 9.36678593317245 0.00000000000000

0.00000000000000 0.00000000000000 13.70923802243190

PRIMCOORD
 96 1
Ni 2.2937010505349655 2.2467547198807516 9.095448792462587 0.7771490977294422 0.06509081896206209 -0.2990897458841688
Ni 7.952532317249927 1.3147782618933295 9.069524339279893 -0.6366488514881294 -1.2296431995111017 0.2914659107903238
Ni 2.6468101433128086 0.8076117689686418 0.9237664701944417 0.6073940683880701 2.903021780774626 -0.07216443797939184
Ni 4.006080637969011 0.29329186169426885 10.06260783476172 -0.48214740587171806 0.15362778476220637 0.4884160124892492
Ni 0.6729810826639441 4.063939274132434 4.071835474599613 0.6055410743397314 0.5440354016257662 1.1422187500488457
Ni 5.17864299038051 2.088006433382824 9.607282754773745 0.3522125938510773 2.869992104013167 -0.8260172841850549
Ni 5.808109732723782 3.328093944949597 4.375481381366741 -1.4234154177026777 1.811088409243894 1.0204965557459844
Ni 5.089040316989008 7.534539498925049 3.8114285246493216 2.4094265380772826 1.2781007807918567 4.318572708127562
Ni 0.9642450352228106 9.103597896147576 13.314220099931232 -0.20292483122512148 -0.05557645171372365 -0.3621540213345053
Ni 4.197790643854843 6.079830823296025 7.527481625790981 -0.44468643281178255 -1.0405375335572595 -0.06996177390111821
Ni 3.4316718628215637 9.056070824770984 7.751792729809692 0.7022096681080746 -0.8254588405784236 -0.5583464189317997
Ni 5.379672948181935 5.684608661359894 2.46418029962494 -1.2199743089627697 -0.7414243906343231 0.3305669905568436
Ni 8.006531837645285 5.169669609541178 4.825994743466232 -0.018828445560412733 1.474380338786319 -0.6934784588826638
Ni 6.193337534163495 7.425950350626106 7.392336702943402 -0.28418094709313635 1.0526993657307742 0.14633510775553507
Ni 2.064842371988596 4.950692890061089 8.310197414662689 1.0257955993613945 -1.3740430379171367 -0.06716878453701336
Ni 1.6841293613260824 6.7174841364676645 6.417074454209921 -0.33322473989466483 0.5407389902626817 -1.5301102853587714
Ni 3.16448429659821 6.584616279258961 3.5778639728945167 -2.443292594697108 -1.003794155389639 0.3465068017155516
Ni 3.8687541906981746 8.344167000207495 13.54291766976107 -0.48653165098234274 0.31920708545933413 -2.98345977161672
Ni 2.624901231221786 8.439755049753835 11.367343965550823 -0.5894549674111461 0.26392271106473253 0.8251315391459918
Ni 9.538385361492207 8.680378411321291 10.658000083558722 -1.3485315239095936 -1.7391157755603337 2.092670999482235
Ni 5.263965042640932 3.840260428158247 7.006530970817064 0.6904034195017658 -0.26378747103844896 -0.1762025847389288
Ni 3.9586472344508663 7.299817212439825 9.52328703938895 -1.8916675536495422 -0.8936280413554931 -1.3725751951223588
Ni 6.463391336855363 2.551915235918986 2.298902426714591 0.060888865065572555 -1.526760395049932 0.3126150340641132
Ni 6.489674537935914 9.232035263651682 2.8241992703205034 0.3291888792623944 0.7252629503831122 -1.1307071498648205
P 4.611484107476951 4.265662374086374 8.996385665367821 -0.838722133346233 0.0346183614048178 1.394852261353004
P 7.245115183106105 2.687218457447341 7.422195206180921 -0.6522528765739735 0.2914227162572143 1.8591502977481273
P 8.594644220483698 3.5940263618697452 0.9493930595872715 1.3687676484508104 -1.1270294439029171 -0.1980590184923879
P 3.814904538876332 1.1846642397230016 12.484015643504895 0.08193025911690406 -1.0749278381116711 0.5122308555206597
P 0.7739391105351158 0.7903244290134509 9.559588954609117 0.28953886897094006 2.0854071188309695 -3.0770237583178104
P 3.5394086336086277 4.3253287999178465 3.706923294978718 0.5496301221047244 -0.5424210059507948 0.5179729002107596
P 0.8042987368153307 9.005433980493914 5.374089407139841 -1.2471745235266456 -0.7483008060391824 -0.6539688308238157
P 7.336525646165655 7.091031555958895 4.103544854720066 -1.0270176446939538 0.7627344649660089 -0.14826857733282206
Ni 8.008704931961283 0.6128669244690892 6.6890521947143124 0.37730476093301474 0.9357766496990851 0.8993878266574058
Ni 5.927910923678968 3.6183987386379544 13.352564911144153 0.44973247987612225 -0.9379793137773589 0.9584553222435236
Ni -0.12303554210740103 5.713064956756442 13.68105153397173 0.7590277055383831 -2.4750449474080405 1.4536970994053544
Ni 0.35229511908792877 7.172325890306046 4.025073669626542 0.5727484532897426 0.10049876614771078 -0.37909013496821165
Ni 1.4445925469166232 0.15607219578206422 3.17212572049041 0.5211824082869927 1.4278400291329345 2.263598966085785
Ni 8.022708276799282 0.2680090333419437 12.649732818671366 1.5771517030182902 0.7786837892064138 -0.17896317820320148
Ni 2.7610006295469507 4.6958132804378225 5.696174768521071 0.387174711748559 -0.8428366697352387 -0.04751758596498914
Ni 2.6826942998842958 4.867019392109354 1.819092568528271 0.10640330455760386 -0.41082860372207314 1.0505401532959264
Ni 7.967697143532683 1.3552427767429311 1.0542832641560966 0.9035532708890052 -0.23950725833484557 -0.5352306588499428
Ni 6.520622398367183 0.6443749186938785 10.795325594150972 0.18158673186897756 -0.6152816986662629 -1.2081094392043839
Ni 8.12803778362423 7.215712842339229 12.65010374339082 -0.582212684026436 2.962919485571523 -1.1301631044358924
Ni 4.848501256494154 5.632810335638065 11.836048562439531 -1.3209325312454026 0.7221089781351628 0.98687681080901
Ni 5.112972454822511 1.305832981411531 0.901752650101957 -0.30002537032456067 -0.8534190732367753 -1.1932320078719192
Ni 8.186776897657065 9.403503645326868 4.396772085592006 2.497431799743673 -1.4388001276888638 -0.6737511556570654
Ni 7.632712781364557 3.6713398122328496 9.60949050619737 1.4363308402127648 0.16553584905370203 -1.090869449042592
Ni 1.4970840147909676 2.6028330837714013 2.501634329504018 1.0766589618701652 -0.4674489233192788 -1.3898974884508901
Ni 0.19125478009377456 2.500716384491226 7.964299810306769 0.5092157228434198 1.0212023235637575 -0.6386733381173259
Ni 3.0765208107295505 4.062478055540643 10.660509445486548 1.5676756452070548 -1.6269868813728625 -0.3670424597750582
Ni 9.311802811906128 5.883765261992354 8.46590711583256 0.14905610623112392 0.4217069411974737 0.23487258777631162
Ni 8.888995465657016 6.371915306294897 10.628579945898741 0.6076097839433019 -1.5790234661197065 0.07701533831378994
Ni 8.469475861239433 8.102241655407608 8.391465522009474 -0.7853550305790022 0.4013340339680766 1.0291902268652406
Ni 8.762674991753839 2.078855083612439 3.303117410494397 -0.13374750089851162 0.47632257165982483 -0.3557985114301227
Ni 2.3095777525419274 8.059285575523287 1.4080480319430768 -1.1590409638125072 -0.9601813037956949 2.8892650933101662
Ni 1.0491736824777498 1.5327152681446445 11.499678852644957 0.572357388498911 0.7002841689505875 1.034695730064502
P 1.0903313394798677 7.108800348706509 12.229174437703593 -2.6439664251045243 1.3163353987930235 -0.08002507167439121
P 0.9840745208562843 6.2448548563099795 1.8631267654633317 -0.16908731385038622 0.8296844486239969 1.3203095529494229
P 7.402552119585757 8.18857532053927 0.8759050045631895 -0.5128242661302845 0.5427809603933749 -0.5534433252032275
P 7.324198955993879 2.3091468803930657 12.015242669079521 -0.6682970745210297 0.9335225635575859 -0.18899022342190033
P 5.327172113521745 0.4832277983410935 8.291402022186482 1.2730727314496462 -1.1458332068729815 -0.588900894679889
P 6.850061623315179 1.581918994187459 4.337123456653638 -0.5402371109255987 0.4705532732762154 -0.01633961770028799
P 0.17786964312153364 5.099006577127892 6.516604047239758 -0.26790740674409347 -0.9067298688447739 -1.7966879175478478
P 0.9823322986891486 2.11783964629856 0.03448382208768713 0.4881833276531528 -0.28164352538326337 0.04082911820122001
Ni 8.222867123517139 7.6899251093046885 5.9785168575627505 0.5256275885425399 -1.3152305957646186 0.9212735709869037
Ni 4.99316189708148 7.886393442399687 11.282085607434146 1.8305398331002862 -0.23475508836184084 0.6147646498205284
Ni 8.164802418065129 3.133676937954613 5.653909020753511 0.656278967014231 -0.9301109667728756 -0.45797929326594683
Ni 1.3483769227186815 4.147303668151289 12.33873866840898 -0.8611208127564072 -0.7363112377774738 -0.281126990758161
Ni 0.8890981224256116 1.8153018302968742 5.520353641463799 -1.5141470771612953 -0.26916261930743324 0.3499402528771328
Ni 2.1024312835838392 6.020866906402914 10.851930954368362 0.194392111163762 0.5888669561181601 -1.5305607426326284
Ni 4.163377072660992 2.48809932395826 2.647678444360623 -1.2970955767268049 0.15046121410876667 0.0047375146849853896
Ni 2.9438121888802087 2.064673769843389 4.838921844610662 1.6598504648701027 0.5489585499589965 -1.966089163094227
Ni 2.9326188797956547 8.679591601310326 5.202189216637207 -0.5882347218507998 1.2765861439195434 -0.88346447055893
Ni 8.205379334344869 6.143524967040769 2.3347378759996853 -0.40715552574586006 0.11360265051952048 -0.508158485223499
Ni 1.1865375968919647 -0.06516566580096378 7.45757823970971 -0.9265281345176237 -0.07796253271840767 0.6807892934507696
Ni 5.57022147262301 5.57757439951119 5.325819549645754 -0.2427213943967691 0.73291249650857 0.11161698754805938
Ni 4.763610076382594 1.6272074037471402 6.4984802533086246 -0.568620290053982 -0.10580346619007584 0.26306910481518564
Ni 6.054596702230094 9.315549526244055 5.52709866395065 -0.7445534231816081 -1.302014354184661 0.08213646159043919
Ni 6.0359755319706005 5.820857928258575 9.414105910224615 0.7875643795254953 0.7481768788668082 0.2811712137325351
Ni 9.303129168213829 8.651687946278622 1.8853625783803385 -1.561385441322969 -0.9316027208270538 -1.0009775118764503
Ni 2.200426597092296 6.332172033955346 0.0536950998554031 0.8446621529797518 -1.494195059519401 -1.4797068932055548
Ni 5.8821448080412 3.872622673252083 11.013864884732108 -1.3654612097853966 -1.0374056727964973 -0.6528827968484885
Ni 3.4545268202829127 4.069034805632013 13.532704126475885 0.6643689431112171 -0.43529419296360516 -1.0044176479062508
Ni 5.856442347683028 9.271581833488494 12.751400848909574 -0.8479050853970818 0.15920245063650645 2.591552173168866
Ni 6.6165570189897815 5.920689131792615 -0.031032161503872738 -1.6002072992861733 0.48824220591554623 2.047709604280196
Ni 7.397990494879333 5.254944827872376 7.271050876431813 -0.6582805708252921 -0.4108414592378795 -0.34549507262158563
Ni 4.868986417136766 7.866807493198178 1.7309286334425324 0.5356893436539161 0.8302354360314604 -2.0130799300214686
Ni 7.7000693383746235 4.815127398529078 12.002752996834044 1.0879545893886422 -1.0226907351838257 -0.3077397082496829
P 3.5214244047865826 9.055546284763674 3.0725277499239056 0.8076804335490799 0.4496172944544966 -0.8442656888722815
P 2.7410306421258044 2.59553635759829 6.854577350770963 -0.4818028780481057 0.4976776402968332 0.9024870344080199
P 4.365184473687536 7.472447075559769 5.979393588717826 1.8394859865499804 -0.7889018673899961 0.2714444733630744
P 4.3340867446827485 6.129484155059391 0.36171716896922834 0.7246610551330552 -0.6675586536931084 -0.28671759747206105
P 6.850576796536644 4.457334912828827 1.7987891235310494 0.10670335229652593 1.0216651221327888 -0.9344435327099584
P 1.856515688014061 7.20073535177337 8.408149640956259 0.8501455446918262 0.7418689343709094 2.1280190399642254
P 7.335551500437795 7.787733087096249 10.548929482467356 -1.285749041365734 0.6841597525848991 -0.39626510408560145
P 0.5422741429496395 3.989782430599032 9.839613700832789 0.6261399815370056 0.31315830816209295 0.4362048777033326
