# total energy = -381176.128029178 ev
CRYSTAL
PRIMVEC
9.19297093128659 0.00000000000000 0.00000000000000
0.00000000000000 9.19297093128659 0.00000000000000
0.00000000000000 0.00000000000000 13.45484219768133
PRIMCOORD
 96 1
Ni 1.6936853449613174 3.759235548170599 6.559934749013763 -1.2188209120846172 0.36196504525215084 1.5535901136482664
Ni 6.213179570966992 2.7596930356877696 7.1708517790475526 -1.8665172796361595 -0.3689759293523452 1.1229390758836273
Ni 8.477206011836 7.016194755580919 4.330211878354448 0.8865230548795958 0.06987512772458288 -0.2779002562907472
Ni 8.467020200287738 3.130914385985934 7.431122246532425 2.285490366842238 0.40565554416156596 -0.0905092590351667
Ni 7.742071722955255 0.9372141710593492 6.502496148711691 0.3221216880029678 0.8806218589038125 -0.5934566323713715
Ni 3.966003845412032 4.066648488760744 10.637263631147043 -0.7313394955944953 0.16601201735917215 0.3381499451104241
Ni 1.0693631250361233 0.33479420385413206 3.5527237348120146 1.1476108675986947 -0.9771541842046073 0.9459188803394096
Ni 7.148077113407062 7.122915952569884 10.173071010152997 1.5495331699700732 -0.4318494289481143 0.2771348388796324
Ni 1.433083011233763 3.1090718875755816 11.494444718489774 -0.1754273971358011 0.5011041494798789 0.68947602259149
Ni 1.2329704247874032 7.4425463512355154 2.426513117490564 -0.8384519104039818 -0.555943465917262 -0.5166343839049942
Ni 5.021016743167617 3.4264040435633567 4.167852984025781 -0.3327796819374462 0.13454351443724571 -0.8725388247853618
Ni 5.95845154552404 1.1504543196816277 4.91120578872254 -0.3127644151577839 1.2515160883247929 -1.0985693887900112
Ni 1.0130010216043597 5.434240776646296 10.630199752452382 -0.11765470910170704 0.16485039295090317 0.18958311981089285
Ni 5.184568885094628 7.9581800784395 9.18060156933554 -1.0240338794752817 0.3129533912401385 -0.30521694182782916
Ni 8.56541256581215 3.518103926409849 10.623338119113372 -0.4913480985343796 1.0591402362601114 -0.35305077348165653
Ni 6.9977076914802385 6.114437872555547 13.264159608422883 -0.7187032948877236 1.0811370522461767 0.24913681100480964
Ni 0.4120013683740582 2.334656034844907 2.8470584328438235 -1.7365755256369835 1.5089660471809883 -1.05422711522921
Ni 2.176169219779892 7.571385835756176 4.593657597923047 0.11897111392028545 0.5302817994850997 -0.1689191637036381
Ni 6.370701124107307 4.694620318058374 11.428811504095535 0.5841803492757681 -0.7257440037845889 -0.3895601812616001
Ni 8.045899404967942 6.124301930128908 2.060447185167368 -1.9030115179074518 -1.4606385637201942 2.1220890476330356
Ni 5.475462057316337 1.0602988559146556 9.04889203935877 -0.98200611298027 1.902028585168892 1.0312849046107402
Ni 1.7591484893973943 7.728843038101511 12.315297943472155 -0.4650176881699669 -1.799292187939914 -1.1601655643352535
Ni 2.034330874673273 0.9615939293860557 12.933332171430733 -0.8693905089643673 -0.4668722248802024 -0.8078755802790216
Ni 7.211012190897496 8.937553213181456 8.337858042495107 -0.049233283104515205 -0.7402072303977704 0.9319575330633111
P 5.930872633389757 6.668875129132466 7.4919650038889385 -0.21152028620361635 0.03113580217285605 -0.29171762178981375
Ni 0.838056031074676 6.171939904355527 6.202574559954289 0.593959540149719 0.11658487307629599 0.5203324015818717
P 3.002139252260254 8.936992441968059 6.114808349275217 0.10030747607251111 1.0097061499986997 0.4180821999606929
Ni 3.146064401718367 0.5406165444093595 8.239301122794961 2.071666886426742 0.11463571976972516 0.5440801388207727
P 3.1953111458194856 6.333543136491716 10.732873284437105 0.11947762124305875 -0.8602471519022024 -0.18213771927644115
P 0.41156654085940764 5.27710532827586 8.208125920518366 1.1117702037510013 -0.8631769239544876 -0.2669170178063661
P 3.0240369084948746 6.783456316079702 0.5354519334636794 -0.1710045854777571 -0.48438555117361737 0.6769750619110018
Ni 0.21290920167666705 0.7095879425707574 8.26284707867814 0.5858145424450814 -1.2692122200529752 1.2542008342458077
Ni 1.0229110440312787 5.026054491117479 1.9016128758094615 0.39709325641385157 -0.7928158577324217 1.7641138402665684
Ni 6.4372214601751985 9.160381630255754 13.29844295409701 0.8600147241764221 -0.17484041428407954 -0.689546213707793
Ni 7.32699990236358 0.20624429791088192 10.88535708962756 -0.47737569551468756 0.1105317249036806 0.036379824180614764
Ni 3.3246838226414086 1.0640955528184752 4.344380084814901 0.5872862418946014 -0.6855941710385806 0.6574493331732484
Ni 3.731344075032127 3.015873550503127 8.591522441226747 0.07415318627464648 -0.9909952038527579 -0.3271757054871075
Ni 5.523927398906984 5.875760773974748 5.4746944442619325 0.02880921092220845 0.6473541537207754 -0.7263415281592717
Ni 4.64842564023345 8.220666971162895 4.265360066470682 0.9854418781346965 0.4513553601915259 0.8136911585195342
Ni 4.048510757547096 2.556473225140947 6.116275547400761 -0.9064334206502777 -0.6932131210364191 0.629298067550013
Ni 3.660116937959985 8.621342599620474 13.071069532302984 1.621975029980568 -0.4104275116289125 -0.7684364004467927
Ni 3.20731716556861 4.740971276385393 5.384277900126756 1.1387878699904257 1.3023182585783248 -1.4944503700633165
Ni 1.7309812271375795 1.482403299100573 6.898983459713144 0.309825387134118 0.3661723984652791 -1.9066624843964775
Ni 7.629981831070817 4.950791639903021 9.032154397584476 0.32582176256237433 -0.24709561220506476 -0.09838351957692089
Ni 3.4321312643165762 4.158164512193006 1.785833844778527 0.05574948695647818 0.025434123802388454 0.17460490123450573
Ni 8.949384566487064 8.862970641799643 12.795702368315805 -0.48670802865920704 -0.13477619927334208 0.2773374418087417
Ni 8.119847661370668 6.9212313681318705 7.768570461030945 1.6136510834959048 0.7362623868174094 0.9395160621368595
Ni 8.709549153596624 4.499867233536777 12.870739991747833 0.4122997889509609 -0.5694067905110194 -0.9504738466999437
Ni 7.755732477432438 5.1040476546332325 6.430337763706482 -0.6890924139998261 -0.14646417713423163 -1.4793525951899296
Ni 5.269125829698341 6.840471120431978 11.547820025737396 -0.99252321046151 1.2877375325506726 0.26983547700474175
Ni 0.4692441583999766 7.93571245802077 10.119131254503694 -1.3117989443752505 0.6665278984357488 0.43198029809902383
Ni 6.514010344527755 3.7220040167893162 0.36395338765370977 -0.6184163876405027 -0.7468224217214429 0.123167154279504
Ni 7.777547396930656 1.4787996545816933 0.9538690760972429 1.3855638940725428 0.2458296010084476 -0.4139702346748484
Ni 3.21001989895777 3.1380940961115593 12.962851719682197 0.17931027712997505 -1.2194068664950741 -0.5651176762173622
Ni 5.298148038234318 0.06257379374147537 6.747589940849067 -1.787379238552412 -0.3117624562558308 1.2276187128819052
Ni 5.367279177984255 2.3877546336741133 11.805022798895862 0.8405273048757719 1.0044251041054186 -1.626943943950069
P 8.43213287643787 3.902535575620335 1.4747317650418863 -0.748148596732034 -0.9359571411410075 0.6967316757126388
Ni 5.2552904087776415 7.620182124292435 0.9808247048172913 -0.15343958001080027 -2.224506628070014 0.7479549926639893
P 6.089258325776947 3.452604010090926 9.471092089440088 -0.9024284132559426 -1.0726241296791592 0.48748990113055396
Ni 5.403931552210718 5.605560978824463 9.331726653454842 -1.4090802320269282 -0.2445193668374563 0.09849433412317231
P 0.8088334157771894 0.518605814634988 1.35480854281424 -0.612762531788835 -0.2438351962862381 -0.15630198916025986
P 6.577515386202298 7.479768689646088 3.4932672774387843 -0.2694446693242262 0.020951405440686497 -0.8046118219260854
P 5.162478176475067 0.26706131494940344 11.654933762575737 -0.26253585801953494 -0.6377731949005596 -1.7545922739293784
Ni 4.507975433704256 1.4414486145811622 0.17487236606106352 0.14000068089707504 -0.18570461069209307 1.4877053380299992
Ni 0.13304986510649405 6.695994392731178 0.4702829640903679 1.1169293793544375 1.0132149344829067 -2.222649006035985
Ni 4.154864235707604 6.1415387502128365 3.390740832985444 -0.9860843968147017 0.06635683015867927 0.5794747162699826
Ni 7.0593925249539184 2.5584313279024817 2.7794073613784263 -1.037781053858045 1.156113248642751 0.8986663751103491
Ni 1.2649068050389034 3.0249929774488633 8.960372924378433 -0.1372359736677443 -0.13033898943759487 0.42092635427770736
Ni 4.614797753371047 4.62711633412436 7.2195993448390405 0.5554313021675338 0.47137319807434946 0.5231827265464731
Ni 5.628028599243192 5.379570179825434 1.9886390523462636 1.221959714823915 -0.5249146216359153 -0.9250950016155229
Ni 2.7861595983659697 8.379126207315776 10.051237488611514 0.7631725809446921 -0.6069718932489869 1.2339328280253912
Ni 1.2810128897253248 2.693200278532012 0.6864023511394655 -1.9378972740410432 1.8920750735006058 -0.3620120964400024
Ni 8.000210340532147 0.6101264345526072 3.728834394027907 -0.42997380919195627 -0.9401156433940713 0.9268425804342489
Ni 2.744405125394665 1.6461852652953701 2.1676289499889756 0.8656580385051286 0.3396476127018731 -0.6003523310499402
Ni 7.061847048133869 4.7240929821592115 3.918184769662399 -0.8629666077158944 0.2700661049583091 0.36392474008168285
Ni 3.4096360649857127 6.897393995077138 6.566231933951091 0.9840804790107955 -0.7084885591382509 0.7551227140570221
Ni 5.6108653229249565 0.4252466005750833 2.2094873035293197 0.4450774976026141 0.10654317256957781 1.0704554041626144
Ni 7.911268348899083 8.440093989073965 1.6717913659149808 0.07677751127137099 -0.3486256478307673 0.5789633238512029
Ni 0.28292378591197204 8.592412320791611 5.925001082996368 0.6124334305841904 0.5873464057085755 0.11478098709833781
Ni 2.043909950154581 3.018420003390193 4.258874425633769 1.6859093667406833 0.9156847640452166 -0.40761369632920125
Ni 2.836748516190957 1.5689367324072425 10.543106467229387 0.9267703324354168 -0.2506563329731296 -0.1328890095529582
Ni 4.227295651942944 5.034282199904207 12.802658689253143 1.4125885022905027 2.188557977889547 1.0027551726021635
Ni 8.557497418029609 1.9394410309899155 12.231070107219912 0.11228701703189051 -0.1318050324601601 0.04657064867068754
Ni 7.054465092652593 7.972530305720038 5.981202309440682 -0.647603293617104 -0.4334435129081116 -1.2351952396775825
Ni 3.301719781804262 8.546723256355817 2.243285260349884 0.16261636141406188 -0.5050667336720528 -0.35908592393214284
Ni 2.6201897051418532 5.235488749865226 8.718656629680437 0.04545350434710881 0.6500736095344675 -0.11388032966093935
Ni 1.7183041205265208 7.912297961618763 8.046896842290133 -0.7112897760324718 -0.9679228954143265 -1.0686782576575335
Ni 0.019414634845464296 4.688975834041558 4.460939599059236 2.009570888426946 -0.6072287464547993 -0.16111123762344512
P 8.63618924731943 6.634658892144532 11.79377427993336 0.2658641510618195 0.2623317124285288 -0.1709387652368282
Ni 7.805494027893396 1.919179723541929 9.212099444884105 -1.4025270042894427 0.16463879116072935 0.75691400162949
P 4.939603794547213 2.4952756191149725 2.011929443643666 0.02646822149385764 1.1670892880382804 0.6605169163549786
Ni 0.2431568332084778 2.2623625131702387 5.305782800410158 -1.629993015189038 -0.727164024060567 -0.5912233721654786
P 7.3245178002714955 2.959695306485592 5.423808593482967 0.427094173651316 0.6621881334098144 -1.6732425699062925
P 2.0800107461383575 5.619957170958559 3.740687810463222 -0.990109973034327 -1.199606286829379 -0.27876517539420376
P 0.6854628295327576 0.9936406252860929 10.641959400586442 -0.23428560492459008 0.15237257219886663 -0.1714486149937112
Ni 1.8250161245447742 4.979133568606352 13.225208072221491 0.7010344168530507 1.221304340628103 -0.9953915331482405
