# total energy = -381170.6869600461 ev
CRYSTAL
PRIMVEC
9.21622460063267 0.00000000000000 0.00000000000000
0.00000000000000 9.21622460063267 0.00000000000000
0.00000000000000 0.00000000000000 13.48887629328094
PRIMCOORD
 96 1
Ni 6.770367431341056 4.332795902874267 4.366308859461788 0.04200128413245025 -0.3388947936962486 -1.034621939403773
Ni 2.423931516435457 6.797158995513408 11.291093208089169 -0.1840804448251088 -0.2113109984062877 -0.003782092750251551
Ni 7.613725688748562 4.458910716818012 6.798447423676908 -0.07086577377262634 0.5752899887646739 0.9966757991773029
Ni 2.0269703014263203 5.063577979901558 8.667182526070565 2.131096907558601 2.1024571323347208 -0.24610599459828583
Ni 6.605166609948068 3.9893256539663797 1.4133236709629604 1.5285503970708192 -1.0840616820921394 1.1458152091508524
Ni 4.425732309174233 2.525982768613117 0.32898050099190057 2.049132966990284 -0.5589943369284437 0.11119738351213752
Ni 4.57295227686916 3.3864555546302064 4.332249380770579 0.0022098631671252267 -1.1235366002583103 0.5622868916367865
Ni 4.295184491320303 0.3714193708580334 4.308832797953547 -0.07907170662218639 0.5722257480170532 -1.8688053043393882
Ni 5.341060062495704 0.08956050332221135 0.8970870020968691 -1.243990212261393 0.3194598249000885 -0.7741807591297376
Ni 3.3976624834343276 4.092805420917592 11.762016466715767 0.7180083257032279 0.21780303388853456 -0.11372760613315896
Ni 0.21450393515164498 4.184654312744788 8.1359095871848 -2.253514842376906 0.338137860925566 0.126758214064872
Ni 7.05360043792679 6.962544141393305 7.031467675161086 0.6468080514093184 -2.1152524843271765 0.8974355880270416
Ni 1.9952480572291287 1.7059599912484036 12.05340306697996 0.574936719190313 1.8398803937749217 -1.1746511595459384
Ni 3.361009559212296 5.426715651562729 13.532174833510014 0.09079825103049524 0.7787254410776266 0.5182613779854558
Ni 6.219209566807452 6.015586306118097 2.617233527480292 -0.22937531210716625 0.7218536675912471 0.30042029177013424
Ni 2.077714832672613 0.8724077965445041 9.358514554786968 -1.6351704456249192 -1.0905547460156508 1.7471404456370234
Ni 7.05720398164588 0.2722841320632879 12.453901468892898 0.6396997224993112 -0.21657173258459475 1.5569978537782345
Ni -0.1695435063045849 7.549046226291882 5.545614161843954 3.228130576430376 1.231801126394369 1.0008422718501666
Ni 0.17838094382947953 5.881739079948481 10.292794551852515 2.2278233511480727 0.8040410370242799 -0.8269333682414209
Ni 7.296106949129786 9.236500039054532 8.990551268058494 1.4697608377364366 -0.5837856849405108 -0.3645196933532045
Ni 3.9388852581234883 7.362307088603473 2.3528781132214336 -0.7015766625097659 0.043742178082956926 -1.1804927059283798
Ni 6.170990281031825 8.259801447816413 10.74478031269399 -0.9700635959064132 -1.95209516280798 -0.6074151514339926
Ni 9.251338160250778 1.192948079280801 10.916897910458273 -1.18451596815516 -1.4293222701054158 -0.9527826973387785
Ni 7.736789932433949 9.10970322450922 6.747864176356662 0.7531306233276578 1.6114677026913409 -1.0394363300732807
P 5.600257155988389 2.874107210815479 12.054738497887623 0.23710327687904326 -0.2851865055395153 -0.26920992760560086
Ni 4.303525174352976 5.858716951533436 9.996350087667512 -0.2744557493855725 1.1547837311980498 -0.31276621492999684
P 7.813570297456263 2.759807596482657 2.7434617009834876 0.6454073144070498 -0.2637946701273005 0.7811852154720288
Ni 1.342776238465504 8.988141225392148 7.445023623726719 -1.2663073877013546 -0.21254178548959524 -0.9651671870460604
P 0.3844833688677718 1.5420033601420573 0.24310556578545245 -0.5016268547525683 0.1744310946608028 0.4894668223512667
P 3.537085525332967 2.1124323497820905 2.4148590651897526 0.556119843594126 -0.44077758467567957 -0.9122839658937836
P 6.418298445118822 6.208629341258824 11.696137051849304 0.3647801461034427 0.3925532024516529 -1.805594218898542
Ni 8.369465301303451 5.800000386228291 1.2363270040301741 -0.5811755010111733 -0.2003637553661646 0.141568282494511
Ni 0.1418957548905361 4.2377121163018 3.014480445444139 -0.40112731727390916 -0.06456168593146945 0.5693972774293226
Ni 6.41378249518953 1.059027123316421 4.872168059714852 0.5235635069246596 0.025460606164949696 0.5102151106422117
Ni 3.7236772034318477 6.402584782609754 7.303430160994716 -0.09409851904832182 1.1770348292867665 1.2858356875422694
Ni 8.405113657071823 3.1379400651539484 10.239743199652544 0.08925250380993016 1.603608097437606 -0.0025690462787568663
Ni 4.47266132354149 0.6143442986463141 12.15257332742722 0.6982622534245523 0.27771899351787654 0.3080094169713018
Ni 9.31363983682632 3.7631963734253278 0.6023420096811768 0.3176302278905175 0.11771281603315212 -0.17372172729860405
Ni 2.3582474855251183 3.198813226955939 0.4310271450573878 -1.3803296422567972 1.1897540766256476 0.5995092663233547
Ni 2.829731090591923 7.766327931461258 -0.07104787347941667 -0.45539096371348026 0.9937591397511402 1.3632279495795037
Ni 4.330021819346273 4.326584167665404 2.0412582140291406 0.01717034113169946 -0.355237239610014 -0.7798253590100247
Ni 6.090412831579166 2.988314662904846 6.267080479302819 -0.18350348927571625 -0.08731106381284319 0.25110576180572236
Ni 5.010888825318366 5.374008064530847 5.894759761703796 3.2443573227018834 0.6046247331730491 -2.695077384847726
Ni 0.7536115863535152 8.918872083211411 12.570634166452932 0.04328914970593834 -0.23937561785298772 -0.511137622456481
Ni 7.368214688408935 5.893296225277732 9.201477464919218 -0.15719827572228412 0.7526606256697747 -0.11938583286020085
Ni 1.458882232770043 3.1293689765126387 6.172240001053074 -1.9178231289989875 0.40664644731992544 -0.9962158288217486
Ni 8.865454846904926 8.085799132173477 0.9261476007030821 -0.3706108938526069 0.798443231221528 0.6910132851716229
Ni 0.8471387526340275 6.5482103434929115 13.154433132750974 0.3484988924449159 -2.2180233343385156 0.059877650192238806
Ni 2.740508822703191 7.662995624099574 5.562326863072073 -0.28054823543655555 0.33457765437813347 0.05050469361777108
Ni 1.4318510467647079 8.583926841823107 3.673088426376994 0.41457110148364085 0.6819820282072899 0.4909961145115995
Ni 8.65119606332087 2.812035939848574 5.153411283464396 -1.7128396154726244 0.28562924950388874 -1.6273733181780037
Ni 1.014291570343391 1.4810472523209572 2.648082073609531 -1.1343339479841303 -0.03346625007824559 -1.0330365971945243
Ni 8.604773941292615 7.198894214733511 3.1886486531252936 0.3356413197559574 -1.6114833864206246 -1.3375963650543288
Ni 2.8242566533306994 2.2405470844088087 7.743788733201917 0.9264332608109722 0.471260326645569 0.670513108335742
Ni 8.333310053196076 0.051224696534692665 3.9150926533531605 0.5931941227386043 2.1604265097606534 0.5365843446643598
Ni 5.820045674179741 1.973055389005178 2.7216773114980426 -0.8947500707750785 -0.6206329356758472 -0.4353466434680954
P 5.516223622406172 7.534816375902437 8.41535933367671 -0.4407228201783442 0.20968040478140015 1.0482349022015174
Ni 3.334208778815598 4.123191312584686 6.45480483137376 0.5828292345645123 0.5333254714074299 0.19152121737387018
P 4.39865504204717 1.8005829666035948 5.997923412159957 -0.3336320026354125 -0.4564006359249172 0.6264503136885727
Ni 7.56653862009963 0.883283862894622 1.3299841190739576 1.0420457426716698 0.8727002900638907 0.2616629684962784
P 1.6526625658584093 7.7860506515606165 1.7629153360811247 0.5600973401846354 -0.9842144334854985 -0.3864087801168119
P 9.349583111773748 8.251654305494997 9.777074913172203 -0.1787808869890663 -0.12683020495338804 -0.32308585168845005
P 1.2944647904464222 4.239361820459644 11.784664416422386 -1.3551878528838468 0.8456116613772146 0.5442364618929789
Ni 8.184799814092779 7.355680623299063 11.941877536175133 0.34208553271940445 0.7063301180343512 -0.4318203754823918
Ni 5.762582515385583 4.951637719001182 13.171145833979091 -1.3846100147997058 -0.6011866540257775 -0.6358937184896597
Ni 0.3312264948648976 6.721632037002081 7.870138560866473 -0.8361944818283729 -0.12118534796278482 0.22220399116970765
Ni 2.5129878922859703 0.8270860917031007 0.609150956227628 0.6402496814655102 -0.46128547482104426 1.8861234839028613
Ni 2.419341836711401 7.400840122591985 8.93718932909808 -0.45703878372954837 1.23337104198465 1.0660284787395125
Ni 6.09337123959407 4.3453668328815205 10.385139276549499 -0.010177197643317957 -1.1886541586932495 1.5511509080791546
Ni 6.2917504686308385 8.692687505324287 2.8315715705937183 -0.1809051324209207 -1.003670485327581 0.792648478916622
Ni 4.7156562946347975 7.224966913406914 12.528602653702869 1.2444794931929857 0.04840384522468438 -0.8926870175984626
Ni 3.9744598840970973 2.4625474964430794 10.263698931593787 1.306217336522415 -1.6901951386002312 -0.0015372625801328365
Ni 5.362902514194526 8.440273552949884 6.3382739691268934 1.2189402112713008 0.19537761500548287 0.2908802134901829
Ni 5.5334856106052825 1.7032965024125557 8.323499382380298 -0.653947490667577 -0.014437258471252556 -0.9204397622316987
Ni 5.537052289426989 4.743369481241698 8.106774337161388 1.2879828157922593 0.4612075703952573 -1.0705811311072013
Ni 7.829247095067949 2.6289187783279444 12.669103072227498 -0.8844206638246123 -0.6343543990269978 -0.35865063616693715
Ni 4.853678470432921 7.449695327847452 4.4473637093355425 -0.435939539857088 -2.3013558731195847 -1.0362396775128542
Ni 1.4812039281348306 6.27182499159588 3.987473192872935 -0.16138840254423176 -0.6359963055057949 0.19471272772797435
Ni 8.240567187607365 4.881133602758149 11.91708497106332 -0.5018677671187808 -0.25906821118590867 1.6708434735464968
Ni 8.676900113020455 5.402006954092459 5.09449196122365 1.2823873239823527 -0.2715393470697259 -0.16390139877407256
Ni 3.646159540461894 0.0995260067069945 7.309837280159703 -0.6292692711946065 -0.22839083670670987 0.8242015711325549
Ni 6.280396080237189 1.3322973913846767 10.553224776162626 0.05923641706381411 2.3082240609943274 0.4476768828986742
Ni 2.2674400270489614 3.052653125060743 3.7301598956364685 -0.5579574110234972 1.6038893761234507 0.9210136324572977
Ni 2.4295994944079364 0.9856291126289033 5.351617247483468 -1.826082568659881 0.6212682552670009 0.3086660767186942
Ni 2.0401402860160323 5.217590304939115 1.9158115763504429 -0.6763749664331578 0.5778952875980048 0.13976516784750123
Ni 6.632723120741096 7.3545193790315295 0.5615510007280183 -0.26501080192258875 -0.06339517642719406 -0.029433217659452535
Ni 0.21378691289756552 1.982649478548838 7.896603870696994 0.9885858230803167 -1.6168125119430217 0.6701402983773556
Ni 1.7775977030859318 3.1903988141285025 9.936607756592714 -1.2039997879113844 -0.616117821414313 0.42600479724187923
P 0.29054515898145056 1.0795240062608007 5.952127993387196 0.040425197894581995 -1.4976094845175885 -0.8723174528031751
Ni 7.0571210356267695 7.335211389027719 4.79557847053649 -1.9808943464278594 -0.07475456730407125 -0.4898131499470919
P 7.538502865640636 2.4083192323941898 8.508230304783822 -2.200390194637785 0.19183232085638574 -0.46520537870074075
Ni 3.6106217793856676 5.431867520971862 3.8709699792991055 0.2011530840366794 0.7571142905657542 0.7982794519501543
P 2.682686231159559 9.01957776663463 11.434169561318363 0.268596462391318 -1.5625174980448833 -1.126343730689802
P 3.819433774381535 3.9925881973846846 8.852883916897671 -0.8533959333083238 -0.5324770073642056 0.26642645132319276
P 1.5773567967313742 5.869730339626302 6.236946190560356 -0.06487767450999149 -0.37280070241507407 -0.05007609072078473
Ni 4.144655899085342 0.06456241640749223 9.634672265942667 1.7087369061581605 -1.273800096533974 0.506482897293289
