# total energy = -381173.2022862193 ev
CRYSTAL
PRIMVEC
9.17021538874210 0.00000000000000 0.00000000000000

0.00000000000000 9.17021538874210 0.00000000000000

0.00000000000000 0.00000000000000 13.42153716099745

PRIMCOORD
 96 1
Ni 1.8783535940552625 9.10448345714085 5.967564545260466 -0.17052867428260307 0.08802840159484195 -0.12405675597330892
Ni 4.243627294037071 5.839061397564522 10.936110217798456 0.24183179270296418 0.5322553782717028 -0.4916985398952629
Ni 4.02722854719812 3.131555252797999 8.509415331001977 -1.0698082574969188 0.8091230795328775 0.27763877509924445
Ni 0.5390353579886044 5.9439870040282585 0.7469287298935304 -0.6376286989028954 0.9365906609599483 -0.29031997011133875
Ni 1.8895320868256957 7.9158676266033305 1.5052789632698949 0.002044798344170672 -0.08199170848245879 -0.48404719399759216
Ni 5.525128238005039 1.6596714635413008 8.994859032222994 0.7870964387501412 0.22785244770473662 -1.0129254282669458
Ni 1.8288986215278253 1.9542462980487858 7.662503740832784 -0.05645628321551567 0.9529323355427652 -0.31798992522278136
Ni 3.2074204461448352 3.731058095182796 11.495426424524625 -1.2524002907019591 1.4879639910080245 -0.027470694616443008
Ni -0.12353747596896421 0.6750984313941023 7.037865337591745 -0.3015724030967064 0.35769135757746134 -1.276897247402059
Ni 1.7755646478175386 0.39138021509081383 3.0647942494614053 -0.5935887870738615 -0.13118488237765794 1.0382618501492054
Ni 6.744152503347116 8.080087846892845 5.322565512406473 0.025410726763620755 0.021335785363298738 0.42252429489244653
Ni 7.273833324440626 7.630472177873699 3.066929075644307 -0.32351574013701706 0.9088502576218864 -1.7482105387727505
Ni 3.534356971371647 4.529774700442811 4.490779275785723 -0.1991921036555666 0.6422024343165068 -0.24468417455009472
Ni 6.861522092328882 7.410451195887643 9.92928015546002 0.23262004429670907 -0.258758907475606 -0.6941171209079272
Ni 5.2213006559952015 6.139193382702755 2.9976737736747703 0.665062626744132 -0.8030570758444556 0.6356569198885053
Ni 6.87380101096679 2.9067474182884263 7.213405271971351 0.8581293342282512 0.20124487241953726 0.9181694781402832
Ni 4.8631853978566 5.972735629816042 8.279048511818543 -0.16926729107167623 0.9045349180759842 0.5493079628786153
Ni 6.560234660029801 0.8328307241732947 10.827744863477301 2.0207263908231328 0.677131384983208 -0.0980032534193667
Ni 0.564155329478389 1.222939947387175 9.527694407469932 -1.2190479404937586 1.8408895517657264 -0.18656927268523352
Ni 4.088375544567479 6.74020931065533 13.261310992794607 1.6086996530279005 -0.764058068873439 -0.9923442616814845
Ni 7.618697621091718 2.7933760432918184 9.619859658978742 0.9170091392835948 -0.14705938751606934 -0.16868339354374817
Ni 6.6667742244325 7.128283663035938 0.09582783560438841 -1.0128878901607912 -1.9547071465095307 2.080418150256811
Ni 0.9339956252349366 1.297255374303984 0.9016990430461028 2.1957907481925605 0.12801728328295373 0.02500063580939565
Ni 0.885195406098647 2.184363687368925 5.235030302735064 0.9052095755455055 -0.05991853073250325 0.19271189524786167
P 4.2515595304984535 4.518660399181314 6.876364086216451 -0.9423489035999643 -0.46354701716171137 -1.373439857115499
Ni 4.386425890773072 1.8506778834882671 11.375612056073951 0.8822673649270355 -0.34352895003415035 -0.9518409022507993
P 8.291928996597337 7.511057630821541 8.141061527188075 -0.29517498421079486 0.018239405826162135 0.13995440104017187
Ni 8.03504374805087 2.046287751647504 1.03553467109152 -0.8585584513458698 0.2680557593964996 -1.0129226000534683
P 5.727368172015812 3.740549268289768 10.518069435003392 -1.265036234298415 -1.7503334986530241 0.38142392530771085
P 4.400410469505567 4.460631275103134 1.9093745992593818 0.1431374267538438 -0.8813260840596886 0.6516234705200906
P 1.8322732608547487 6.167621050945859 4.745815808874833 0.03333460959638775 -0.2393735609704587 1.1265684451060984
Ni 6.008334406628857 1.2576400430748853 5.921796916410626 -0.1823287522413247 -1.1179344235801845 -0.5479995284798368
Ni 4.889118767466759 6.294811940794839 5.627771377815322 1.9154196617638173 -0.33559838233316397 -1.3766056564379907
Ni 5.53658183724234 7.927944800498868 7.377993217904913 0.5671313642132813 1.8219369219226236 1.0357871633564677
Ni 6.716531814073494 5.399312880490402 11.27135312428159 -0.9582313791581756 0.9965097059130836 1.3320610370583963
Ni 0.43964397661670945 9.002088830172305 12.491881304975882 0.7164924032793337 0.38717394041761066 -0.5869769381842987
Ni 3.104769053140546 6.6766505465930885 6.858647229750105 -2.6551162710737564 0.6275471462971772 0.3665356953419687
Ni 7.481016004639475 5.903087842620439 4.463211773762363 0.2283648685647809 -1.6648921410590682 0.4782619547743827
Ni 4.076362562180877 8.505420785103043 5.6824240285234655 1.1013731767873935 1.205780276850575 -0.3011713110035458
Ni 0.5158255424004449 4.343133303103495 4.131646123719707 0.06362194772601946 0.4777320504128418 0.8549077419671599
Ni 8.66757770689104 4.3534039445332615 6.2772528120361635 -1.3215804492420464 -0.06023554775228981 -0.14785771504764858
Ni 3.7524980591674333 2.621948033570344 0.5568741783219296 -0.5288854333582053 0.24989888598181478 -1.1189510377701568
Ni 0.7968046153152768 6.021181878631627 7.891125467994713 -0.6771411551752209 -1.0017760965183458 0.42953800720611834
Ni 6.937854966669396 6.007463236150439 6.973535358400715 1.038656771594779 0.9420758524442356 -1.1670401799679
Ni 2.381037300533388 2.962318924595912 3.069035474158965 0.01358879442802821 -0.5285658452352574 -0.43545591535245004
Ni -0.019971812473114338 7.411909260162047 6.132152491194028 0.05063556276868054 -0.7444158691624793 -0.38099403685914385
Ni 8.944729131830172 -0.18157485324114994 4.496751837181443 -0.46208508790420416 1.5713803477521517 0.10694477888337066
Ni 0.5742031346699916 7.238546334956929 3.3029869306056985 -0.9066676481482707 -0.02231254745427125 0.3697881408409954
Ni 2.0625465438394466 1.5433747897803218 11.890985506847175 -1.2565050568989522 1.5820974770593397 1.6535461199186294
Ni 0.066102581859221 1.9090921566200632 2.9503224485973223 -0.2111086525874945 0.07082617878394254 1.4842220074670889
Ni 7.480841770543791 4.929265971198471 13.626752336145925 -0.05644317058939311 -1.5427238603577238 -0.9654194122661826
Ni 5.32434636826867 9.134717657849725 3.6770583638226872 -2.7755331163016326 -1.522757701648442 0.10966500602801113
Ni 4.248551699794022 7.799350867668856 1.750852750920276 1.8990329928756777 0.5617770418799035 -1.3536058531087076
Ni 8.376065724381359 3.6630150957105942 11.842829036843357 0.2612557057555307 0.031086436992159364 -0.4711693095936595
Ni 2.802454556698487 5.219558315038366 8.980713057696603 0.13160962861990239 -2.1004305888229955 -1.5011059277066212
Ni 8.655454681917691 6.6757335250368595 12.054822412126184 0.5178152915869727 0.26595593944467744 -0.07496514065298057
P 0.3143852511867032 3.579327708489123 8.089737664729043 -0.564919444163627 0.24798778500203095 0.31281532300037734
Ni 0.4121269107789418 3.9266221122642215 1.9459885189349424 -1.359043736294827 -0.3147367083928063 -1.544090144577631
P 7.951365531044961 1.9868097335104824 5.132221182023104 -0.36093994642174615 0.5118161365807444 0.8344659291730403
Ni 4.857261438603359 8.956228582145284 10.013593868404396 -1.8019360533206645 -2.693520838993884 -0.2120453054691509
P 5.570465783745007 7.603034892911324 11.690293505223316 -0.18667905879022043 -0.8043122884077955 -0.11378545595428792
P 1.491324646248756 5.526641323572817 12.1181051527 -0.37557183740230804 -1.7800086571199538 0.877479970840721
P 7.555844963627773 5.600461558849262 2.0869824172482843 0.1844054322646953 0.6869113471881073 2.534192404302474
Ni 1.828229195791778 4.350643709649011 6.355272089018582 1.3270525281002115 -0.04938343552913431 0.15691262616106527
Ni 5.7654429070304465 3.973683658529901 5.372064501968609 0.4452361346676655 0.17343582062706905 0.07419406681491093
Ni 9.175809393784352 8.42508969677737 10.182853122145389 -2.339263961019268 -2.0968852946738985 1.0215576500206471
Ni 8.591850066777639 5.354424675312985 10.00979648214005 1.1881265683245539 0.007336642870729301 -1.1668059524699068
Ni 2.7843250405318365 4.847476818598396 0.6075918895322945 0.7190822754936971 0.8002028942251123 -0.5351100741116784
Ni 6.540812143468867 4.833382197279153 8.816366288432329 1.540421180366476 -1.895923757822735 1.4333573594067381
Ni 7.385444018049275 0.36197041676098923 8.495323460747402 -0.5284588873437479 -0.49354921995075646 0.5998486519406444
Ni 1.3502775606851525 3.5893140732364586 10.006145819324702 -1.7260957091515823 1.2052431734001823 0.41376840307668744
Ni 3.283203107551611 7.561906476114447 3.607212499970939 -1.5956438482852067 -0.39059350762212086 2.564727596776854
Ni 8.544018222404727 8.571107039175736 1.2536840120813129 0.28249738874312635 0.05948247163634917 0.6026138733906073
Ni 1.2363376323236825 3.540565207307318 13.12751204561144 -0.8800382184862006 -0.6588832374062976 -0.8199050006397298
Ni 7.388681104142764 8.866488852652703 12.562813839371763 -0.34876500162210905 1.051345679916357 -0.4439030176785387
Ni 1.3298188097656807 8.297174359898968 8.339995598488644 0.8334302888196743 -0.1575877978512189 -1.2885487155980582
Ni 3.847941662739762 0.9344816466597381 2.0097141809204175 -0.2003249317084292 -0.6243119271893313 0.29799779837157064
Ni 4.81079595634923 2.4986178044730876 3.56014361753281 0.04875145837209023 0.22275215036369378 0.4984811100347351
Ni 5.028469363151339 4.2643978322856615 12.830171474090369 0.8190138562840281 0.7752284836679616 0.41096384374835676
Ni 6.132453274264471 0.259663823861842 1.215277315263324 2.0918950405481587 0.43324733773690544 2.640271749861756
Ni 6.060467082100483 2.9643822230974277 1.4909853482729514 -1.9512484985369687 0.6149744518384893 -0.17254853292610928
Ni 7.095720227574241 1.03318067675668 3.423243303446475 1.360378910166483 0.6011930817836808 -1.083910501226256
Ni 6.317517394527073 2.2073442475680274 12.710437803536642 0.3559167821755419 0.1151558539392533 0.15995989762782128
Ni 1.911733178702003 5.548154649281952 2.6041275536681434 1.9774490681917363 -0.3232660860200562 0.5599363891267388
Ni 4.855225650748531 0.008962051669027339 13.000865866566858 -1.8001303675704934 0.04003696131722782 -2.0850253100115186
Ni 2.062115543708019 7.5274356358157934 12.698465170098515 0.08023950167804245 -0.609123649484667 -1.1429021492691156
Ni 1.6931519205592263 6.524525840630237 10.331375767435372 -1.3875724398621392 1.4022428973901204 0.548899671696603
Ni 2.2662537123401867 9.017027111323277 10.441607260623451 1.4149233210712664 -1.7291681774293188 -0.35986188286621895
P 2.597775345348144 1.946222359431781 9.85834762106414 2.0960995655478096 -0.5575223803686076 -1.0242447099345071
Ni 3.5391438238951625 0.33687612187477894 8.04237350134981 0.44755064173345505 -0.44616841667394774 -0.09786749917245081
P 2.7539349461584033 0.3929868368573273 0.12119998802213613 0.37261095500177116 -0.6977557461017789 0.5190108545569706
Ni 3.804199734507632 2.27951384404326 6.071903257928217 -0.17753570172805552 0.7183613381672724 0.5717187264736476
P 8.419853503691302 1.5837145680388414 12.216309908178134 0.24015491922117346 0.6767904567040215 0.06906240201530042
P 3.411971274477306 7.308331675385967 9.20785929717456 -0.08374648639003641 1.6944156044394816 -0.35227250055473525
P 3.157727048012778 1.0551891941061793 4.502805096474112 0.7774692000730223 -0.17976561949983877 -0.8616550879933225
Ni 7.155757628860562 3.403626378315621 3.4252836764090846 1.4004783492905302 1.190078292734286 0.8672675490840934
