# total energy = -381168.581547248 ev
CRYSTAL
PRIMVEC
9.30447573187812 0.00000000000000 0.00000000000000
0.00000000000000 9.30447573187812 0.00000000000000
0.00000000000000 0.00000000000000 13.61804074442451
PRIMCOORD
 96 1
Ni 0.010579188936514876 0.2441727050716725 2.9886152918799977 0.9947191896715644 -0.21706795549472294 1.299069412623724
Ni 0.7122846022323039 3.5893876130513136 3.8072091123295793 -0.6083011535833718 0.5961362360860636 -0.04180768006440541
Ni 7.481663825443321 5.8191028791528865 6.707075523089824 -0.04819892830272989 -0.9064107949424582 -0.051562959678956355
Ni 4.359974990828997 2.2483242176169904 9.415649355852182 0.886869382475421 1.0327771728855504 -0.281604958835844
Ni 8.544095389837297 5.210311030326001 12.563323730362635 -0.01801983361618832 -1.315753043926992 0.7555127504065892
Ni 0.5246738052917431 2.5719338844701016 11.654415085523278 0.12436066036697292 -0.16355481406793124 0.32233740355819973
Ni 7.373275987341772 3.0043780042611323 12.02754875504437 2.0625921778189835 1.0967310500296918 -0.36247849455345965
Ni 2.098689638481518 2.3481519380214477 9.610428320916482 -1.9186749354763215 0.15878747458627493 0.1528024606474336
Ni 1.5025239632578435 0.955476615559114 5.26232398025917 -0.020000354381326847 -0.33275165691298825 -2.1666575782720296
Ni 4.78209114252897 3.6065822842515596 13.169939262309791 -1.0682478549883345 -1.6396469933390343 1.1042888077722919
Ni 0.7443729477779143 6.56442860524839 1.2608206660522672 1.2341752830535004 -0.18854285147183658 -2.09300935665826
Ni 4.781235130759262 1.8308696082716287 4.19195941983417 -0.4433168061577655 -0.46932737128891433 -0.18804919966486966
Ni 5.305086420394024 9.049430772714219 5.851140980529405 -0.912530791797267 -1.0635013414422845 -2.0276336594659274
Ni 7.42298980131521 5.997832553982715 10.446249378231462 0.5000870210692742 -0.2357835296263552 -1.8404010421650823
Ni 6.180256105688353 5.850458962456365 2.7910859237817194 -1.5128211592610203 1.7007204636115871 -2.543115160713401
Ni 3.334165843017362 8.182067542580606 11.166466976494785 -0.7682132286923932 -0.13665336169139689 3.0486683471035687
Ni 5.259382835472158 6.64118122577373 6.05908857013359 0.6761042292702742 0.5067672613029272 -0.9112681230347596
Ni 8.245189106120902 3.3263873012839174 5.641042196130038 0.8582674024680123 0.42451278607738496 1.4710664439217376
Ni 6.84341400636753 3.227871511961297 8.020930770513456 -0.02011219736884278 0.8242151979793096 -1.328653296928428
Ni 1.757215378173606 7.7508330046380784 2.9494769450527714 -0.020413787769661615 1.8082763937163957 0.5868272999803119
Ni 3.5379896889657303 6.548443515896646 1.566088419844207 0.46753968326087225 0.42768527026809566 0.18344306835142601
Ni 5.848607371780582 4.07845877230376 6.047553811536759 -0.5984006066402081 -0.5189152095193709 0.19780113684531095
Ni 2.068068608762898 5.540647833151936 3.3146720358573862 0.03303070520272376 -0.9238356752871252 0.5521276917155975
Ni 6.492523616592817 1.557336629946506 6.452091947635269 -0.13066629087002657 0.23181117524216852 0.19436922834562653
P 3.0679275736862834 9.123233874424365 4.454093484908523 1.303308390405736 -1.0097051215574353 0.017399426423370033
Ni 8.353000066725475 0.8893645935102902 5.1966306596194425 0.2345378301447122 -0.1297671760945249 -0.1007713030828071
P 8.232200057963142 4.5566343904439295 8.795333913799373 1.063598014921149 1.240297336790838 0.5628049689237856
Ni 8.696521311700083 6.476501309338042 2.9381878246159436 -0.3800815523472035 0.37344887752203426 0.5474678243460829
P 4.2015755955297625 3.5506809938992454 7.596102364130108 1.0494011545954764 0.7000576547620783 -0.7173719776708097
P 2.945229451869378 0.37386220997292047 9.26846557563129 -0.28683818221032537 -0.046790735101293605 0.18841943852009485
P 5.2974288368454285 5.276354199254219 0.7058403223225149 0.39643993910056885 0.6832932908195458 1.025192418559757
Ni 8.885969742602791 4.4728103683427305 1.5673277760151338 0.4517088868762027 -0.3641396843059664 -0.19313561304884155
Ni 0.4960318375667882 0.1874330814535886 9.708397007064548 0.19106330390084514 1.0664167153168667 -0.6179124514208907
Ni 1.928054857560897 2.050752979377802 13.482895304420326 0.5479614761530499 0.16193116242157918 0.973988384882116
Ni 3.4843493862225396 0.021381685291214765 -0.02142262498454868 1.1608602764094331 1.0554951833083563 0.021441457703227588
Ni 1.187520936480613 2.067984868481079 2.235538007030747 1.145560155717253 -0.07205722297756623 -1.1321503100692503
Ni 8.666281765487529 2.375972320536997 9.579065724479973 1.043197596887926 1.565543943576033 -0.8525821791577769
Ni 3.670243507385803 5.896599857738844 12.81936987694872 -0.19724475012120868 0.5649641813586335 -0.18178393548144822
Ni 9.033706208683691 7.900997938891741 4.864609746681363 -0.4141682096182674 0.2503082056050915 -0.0007826438022954264
Ni 1.0201055041721592 3.7523089835687946 7.9967316899628065 -1.1804803646332056 0.699281438717686 -0.618630817644154
Ni 0.7017807795494266 0.1515196659239843 12.157764893273503 0.7924129658670481 -0.23205902958691646 -1.3241638936985065
Ni 2.983219626388103 1.2461484382299362 11.537640192973731 -0.06397007509405757 0.47356480640902954 -0.3401446069429497
Ni 8.988421325170922 6.74448882011157 8.298030154396507 -2.091097484347528 -1.8439453078729147 0.7883506228722165
Ni 2.956329691448324 4.61328003885686 8.942408831653902 0.6147847044251864 0.5046653844685761 0.7527135903948973
Ni 4.9074038220337926 5.974515537733897 10.339783844821453 -1.438292077704194 1.5773836165234383 0.9584419525070847
Ni 0.9097348822866419 9.3758410867704 0.6920324802980752 1.5142450361917403 -1.7840028658810112 2.5337103224597333
Ni 7.807180909826762 8.588691742143995 1.7871636942949432 -0.665794362703834 0.27780101170872157 -0.2847887558804643
Ni 7.649674744200269 4.511703077009954 3.6766663870013496 0.8476595450451788 -1.0701391584737763 0.5175687227938055
Ni 3.575682120260209 1.847785145199143 6.442722340547256 0.5862912249711838 -0.2263159564555522 0.35612684130381894
Ni 7.636741522897053 8.207133800271874 6.9465085282105195 -1.3098230515958023 0.6280081450939958 -1.0131863952378164
Ni 6.2468296297347585 5.25458172598118 12.251974571215456 -0.23496540460043402 -0.6926945295287876 1.005101818457469
Ni 5.289557250354407 5.62887287228653 8.050863269026005 -0.396186428328866 -1.3320468959910092 0.2880823390300716
Ni 2.2041372622436315 7.18221788213298 5.272524477032345 -1.0560374289650718 1.1298514867327445 0.6988479507246932
Ni 3.1774319488787577 5.2662774520086195 5.919163211451287 0.4001441274250334 -0.26480845610379555 1.0578302591994362
Ni 7.573015168432506 6.865698225807242 0.43424081405984427 -0.08996367094434185 -1.541092752512204 -0.059697158750316545
Ni 1.085860234351887 1.3050922921550212 7.356342771910318 1.3295146164874587 2.2018258986430466 2.1201051844337875
P 5.681257070802431 8.456223920781497 0.9901516053653673 0.4592697299425961 0.7863880998292069 0.6207375795745116
Ni 5.80126619912536 1.261063512869543 13.092697226359597 0.12776274406998642 -0.9839776348843442 -0.5708448085091266
P 6.721274153096087 8.317661667797697 10.761616210010818 0.4767673725067272 -0.10126829732388365 1.0602779494089802
Ni 0.9843204904080112 6.598482986521605 12.44058373840482 2.238450491844616 -0.10380546192344058 -0.2599434147020104
P 1.1693679042773235 3.134156832129654 5.88347031199714 -0.6262865344171988 -0.031479815775836105 0.9454931056559007
P 5.509040529002999 2.566202327403353 11.444383293349366 -2.3780981602776468 -0.23568042838958764 -2.234860717610829
P 6.72962957232651 2.6534690055349035 4.296710138362032 -1.4899630237159243 -0.9404442303780836 1.2588002806910321
Ni 8.683467132212018 7.526018261380319 11.366011694042186 -1.6858507455886063 2.391734777224474 0.3826521412878571
Ni 3.006527338161163 4.084041457758386 1.4848836076688037 -1.2402736826417542 0.16557390138048905 -0.107793242926595
Ni 3.011486623740022 8.858251709320577 7.018915028109433 -2.02357568734647 -1.1096786113292954 -1.5652068719515881
Ni 0.24811966368809257 5.630175498892609 5.208492005315369 0.21301846801569765 -0.7906995827203672 0.34338625380869897
Ni 0.6858356994434411 8.370166824498448 7.159139990911134 0.31929141764302427 -0.02374516613573975 -0.9971720220874308
Ni 3.4450379761462195 7.569200333371846 9.095326029836693 0.9139726664501162 -1.0312499376077464 -2.379230731220193
Ni 6.103308091172101 1.255192388666429 1.7013559579622013 0.4158803072133676 -0.605036623899487 0.060064312281748175
Ni 5.1145493658276635 0.445917000688193 10.741829311864475 0.28394080605787225 -0.775023052525375 0.5866419234423832
Ni 4.1547182556139415 7.019231380285195 4.022550968818416 -0.02540738432951108 0.6090650283325898 -0.7738858535971381
Ni 8.106664071040134 2.268812673235465 2.832034921591396 0.2805474641056072 -0.2653378462447043 -1.5498476158866985
Ni 1.8493948195052268 6.386182763157963 7.723103805984955 0.5309454012110275 -0.2230596543017836 -0.7586212141285839
Ni 1.1087864626188815 7.342962005323157 9.91137321527139 1.3432970149835317 -0.6208278252954728 0.4393261969411337
Ni 3.263405304879987 3.924813964116715 11.474752171774952 0.3957609107556733 -1.124424145069586 -2.3813855727796662
Ni 6.459167071001431 0.06685265831913755 3.622766489384518 0.4239651411040311 -0.27597501424357634 1.1421462449396973
Ni 6.313077497129645 7.660486545030727 8.819846555183059 -0.5411891904262228 -0.10732144549649902 -0.47483056049533057
Ni 1.7658499316767597 4.360254125101728 13.009219330756585 -1.7913526213778632 0.35300603628665017 1.1197059136583103
Ni 5.683955368772167 7.449768082545895 12.741733331226397 -0.6888489305304524 1.2454220596119132 -1.5273476350119695
Ni 7.016812216588192 3.333793663987054 0.5958958454267007 0.40619958959049396 0.4431921076544432 1.075182891545271
Ni 2.910039924553723 3.332760867177948 4.766164671374501 0.30727948078381273 -0.2958182742217486 -1.384828558568415
Ni 8.349315494325422 1.0465581287513253 0.07955419817598579 -1.205351931063905 1.5197909057106342 -0.030512823876876483
Ni 4.7422586818102195 4.72166787695841 4.18276752823313 -0.6035158163795864 -0.4205980244040111 -0.8922147059477343
Ni 4.009317212948226 8.996627872789222 2.4216963753055296 0.3861195310111673 0.576646245682252 0.24373183793915446
Ni 0.8186617431226126 4.819327654511321 10.676748225729604 -0.6891384367464132 -0.525115939013444 -0.9970295829722958
Ni 5.087389601090911 3.241893356928164 2.123965246877334 0.7685590420675861 1.3587341754742084 0.7689663048083337
Ni 7.9052128664099826 0.9279009407559925 11.262991608005258 -0.10947217329091469 -1.7754079251231487 -0.020845733100757647
P 3.4519418971584397 1.9154659018607167 1.8164151051820279 -0.645533812682585 -0.642794559374551 -0.40427768997743274
Ni 6.105503947450921 4.173876171199064 9.928450650077089 0.047592662177298684 -1.88936384521703 0.8536612711545685
P 7.153867144499241 6.463493652228765 4.587876959143164 0.3079541382533342 1.0271012055466955 1.6670523819351806
Ni 6.656068386986065 1.349632817607173 9.154387120156326 0.19590366271228196 -1.9953205491555184 -0.43729373989213716
P 2.3312084876666606 7.643747793142609 0.008181425533753325 -0.31582325658876576 -0.3768818144629832 0.9606631285281196
P 2.6251927037072265 5.9938037159796265 10.75422101267859 0.9537185788894866 0.21305189235679434 -0.030278082158251084
P 8.49072491689108 0.7041645862385516 7.704283642869838 -2.302232876407899 0.3637717594435864 0.7487600050637879
Ni 4.8007652253746915 0.18277526088927962 7.956489832310716 1.948144148580032 0.9756084369840424 2.492436660521927
