# total energy = -381169.4527564378 ev
CRYSTAL
PRIMVEC
9.20702769863473 0.00000000000000 0.00000000000000

0.00000000000000 9.20702769863473 0.00000000000000

0.00000000000000 0.00000000000000 13.47541569756979

PRIMCOORD
 96 1
Ni 8.588352336435648 8.070079535964918 5.2369914643035855 0.8110030701644098 -0.35576868663345174 3.9589558513926146
Ni 2.5351643048163304 6.790321089324593 4.751768210733243 0.2066663005454247 -0.15142152113950696 -0.276954090327394
Ni 3.4280434443599606 6.221105804175947 9.527994890750216 -0.25240211201964274 -0.8206858446698123 -0.07574547046243084
Ni 6.204846193125666 8.878576265952594 12.551177702769316 0.9717931770030103 -0.6984941669297002 0.1831867293662458
Ni 3.0231183628246754 1.7847639200875827 11.430413577366291 0.21539031068198392 -0.054082640777016536 0.10257698883297818
Ni 0.2926582676605997 6.543195256821441 3.6898379135139074 0.8322290694227215 -1.2668192943407666 0.17513274871351775
Ni 7.933677419481397 7.286285261497005 12.090062130724485 0.2426357766614983 -0.6867997613109076 0.5365930864151081
Ni 3.151096048894263 2.2390294634679693 6.864363085986679 -1.0536306192957918 1.23163169069604 -0.3608612706650108
Ni 6.822168198397593 4.849332321954365 4.221106433688754 0.9256089651374639 -3.091223189746644 0.22181549748203733
Ni 2.0688191409954184 0.07221532235156904 8.13435379686073 0.07603703356092066 -1.1815615135125264 -0.37919734997003723
Ni 3.1609383615855142 7.176169209310511 7.335908379094794 -0.7266410616775615 0.2766869527089364 0.24400206088140558
Ni 5.186364780678344 0.7242920160677742 10.77302903213792 0.040289443647666096 -0.035354211129577824 0.07798233021274957
Ni 7.968903507747745 6.184553903910028 9.841675564928995 0.34018265926973673 -0.42823754322713986 -0.6389739000768802
Ni 7.918715999347362 3.6072029978296083 9.73582604941334 -0.30856580369540404 1.4975215527894725 1.3627234991392596
Ni 4.0966854224485685 6.007106857606492 1.8737157775281659 -1.4791165679197236 1.9379684935986106 -0.5794883431167375
Ni 8.770660693404274 5.017019918816623 11.831913644569354 0.4179896402468866 -0.46399567466335573 -0.01065619416226552
Ni 5.37574413497801 8.1741005357645 1.7598220818456753 0.8037715854129771 1.5506886237307553 -2.1972688753999834
Ni 3.73432443031614 1.5686289430743765 9.15266395859144 -0.7369432149345179 1.2301795316305457 0.9736196886887878
Ni 2.3359702589087386 5.592118494713361 0.5202698047950823 -0.6711659114283925 -0.4991362271202307 -1.1446916370693705
Ni 7.936006797508419 8.26969710515015 1.0272603134305844 0.08398688453561665 -1.4742939497200998 -1.4766256831770699
Ni 1.2843067183610721 2.2028918794519172 8.672656486255518 1.281432416268251 1.7543230794283915 -0.9893137023852767
Ni 6.773389365246753 7.432483655532903 7.792725189871575 -0.5230302601290089 -1.0658544150554936 -1.3527879851931026
Ni 5.759714021297872 6.525959700827034 0.14535410958894956 0.7843978088720555 -0.36067460857550143 -0.08831842203143499
Ni 7.712156331219938 2.8284357605267307 12.461228724220721 -0.6084014266066619 1.703582872761047 1.648468705395722
P 4.013177680531219 3.2629890574412914 3.1290047064514304 -0.714553277275092 0.2712588397148296 1.7517951708002155
Ni 7.618778655528013 5.365358607648046 1.0781116485335296 2.5693802650575166 -0.38353788632692015 -1.190376283590679
P 8.186014429705079 0.9042369290066116 4.042435773393948 0.22539601574444407 1.003769729909607 1.4585405435405847
Ni 6.855304291359063 4.966804789332916 6.768741657626038 1.4080204233038458 -1.397035385047252 1.3224448541248708
P 7.755236014178183 1.1445808648508518 0.6979203264124418 0.6195435592664104 1.6743052068428517 -1.0145567932227817
P 6.069070154530832 4.3270912925127 0.012272047321018215 -0.7387039063793664 -1.1140338029741974 -0.18171014482071932
P 5.03625339983816 7.377720254328449 11.06335700106872 1.9523077930394184 -0.9838495939469121 0.4444259800615442
Ni 4.830614434488216 1.8238385459637934 1.7036021288472498 0.026099525300529246 0.5131299702961614 0.734642077605167
Ni 1.810156902690455 7.44645071666726 2.0178895461563875 -0.05024321242626831 -1.1597197350470867 0.6891870305961614
Ni 3.8891037742381425 7.67277787342716 13.081892880574896 -0.6971505084176123 -0.989218057347677 -0.7770645084354358
Ni 7.991948698268046 8.032524069671547 3.2763447719314027 -1.3157741269729146 1.4977187564019432 -2.3782922785663234
Ni 2.5779125347746827 8.994566401859403 5.583485064768939 -0.4676540973515494 0.9159087071305645 0.523574305557937
Ni 8.473651184417308 2.902432642752722 5.213099227228004 -0.8383251550181305 0.8246093480939347 -1.9734142360007305
Ni 2.7842512342355112 3.302349101178521 1.4015508514508088 -1.3364576234641952 0.219077529725584 0.3669846099539293
Ni 4.739207062740096 5.557527691363473 6.695961023769097 -1.1886757559598045 0.009093991881468208 -0.5334501699107523
Ni 1.7544635916807474 2.585913441910975 4.805521600990802 0.2592085934185149 -0.04851980197725837 0.7919648225860361
Ni 0.9207672266734703 0.0363300108965457 3.859628395519928 0.5571791380965758 -0.28953398387493356 0.6295495214391867
Ni 5.0890741181821335 3.2272289615640055 10.76855533734215 -0.2715383186284614 0.23223257905030326 -0.5761250830714594
Ni 8.93146143349099 8.305540064277409 7.6960790193195985 0.4408472615713504 -0.9136229964201814 0.8112362692211385
Ni 3.3006550080679595 4.371809826414857 5.036639174301925 1.234060611852507 -0.2955963880189296 -0.33726882805705144
Ni 2.412324140245076 4.699432702753001 7.527380490807668 0.3539930827902678 0.3092386613927126 -0.31026144623027213
Ni 1.6753844301230718 1.671609548735408 13.432362075633407 0.5055156482840132 0.4113744489232142 -0.4759798436084254
Ni 0.29247044429399405 3.6764674677793567 0.3692275934468672 0.8735286995024569 0.46847582192189646 0.22451155625696173
Ni 6.000238414886498 2.651697655361853 8.369944144264846 -0.7593166975337116 0.4097677665577265 0.08782425600383585
Ni 4.623622036055377 0.6299153778622845 7.372346112216304 -0.35555399951948446 -1.477533796813636 -2.899283910998749
Ni 3.260070429636683 8.407158029827771 10.680587711170691 -2.1314442635956903 0.38668825903044374 0.5808307160772449
Ni 6.85393244422062 1.552470609329619 6.1201967797642425 0.22952135076672728 -2.6077778909991087 -0.3649089583718232
Ni 1.2777881426965203 6.5553024983452906 8.737702296078856 -1.2710063358389208 0.31074404229364544 0.33274831447887854
Ni 4.781780359170727 6.048897556676265 4.054160002562366 -1.3160710893880432 -0.055084599678969656 0.9039978146255915
Ni 8.665010049688554 0.6364597332046056 12.449235649841281 1.0997770359448673 -1.1842128350924443 -0.9242488515651438
Ni 4.071209576595723 3.3180194624512143 13.077406295940243 1.522991672036119 0.09305465116483974 -0.5115867941787576
Ni 1.726400571023186 6.389419478926891 11.503181321384348 -0.661877287037615 -0.20192184388190382 -0.4422063467024062
P 0.855904636702849 3.1923435333253245 6.492199371382432 1.2935806215950107 -1.174360881999029 3.02463753140661
Ni 8.328677325075457 2.4868550300820047 7.853957448790596 -0.9369557576088509 -1.386795966707431 -1.545805584606841
P 3.064688093227854 8.907780958054229 1.1045625186277253 -0.47590605294769656 1.2400075734645613 1.0189626355999615
Ni 3.9498333294406605 8.271980448038297 3.301004875123401 -2.730907507172458 0.4204473577587598 1.3400363419543888
P 8.655839850024863 4.620436404445299 3.108495131380307 1.6198649256161004 0.7872311645557927 0.5692406972468003
P 0.31992764252397415 6.302937867038285 13.586453654580632 -0.3823708626020125 0.20403529068048087 -0.5101801436392182
P 5.845578762325568 3.2911073202655015 5.948600799611586 -1.6683785569457719 1.7265338251302653 -0.2126186614741177
Ni 2.0121314709860334 4.049471784019443 12.053638208144635 -0.1372791682008539 -1.0268788051232445 2.3792662124438184
Ni 4.811454609688877 8.131306270667274 8.940264272746466 0.1644559857259619 -0.4047746842185093 0.061630628327603534
Ni 1.1091522219734582 5.106816060704155 5.583282510157894 -1.5469217004891551 0.8289897365498173 -0.6436911030468915
Ni 3.8699439494388037 5.49394395755077 11.74909366762678 0.4248300602074877 0.08598231769909064 0.584970192166915
Ni 0.6401342579895244 2.2977703006711327 10.986358627788148 -0.7997244119267969 0.7255869093814342 1.3010674168903593
Ni 1.4333040488405062 8.217870745805854 12.933285928073115 -0.49347620062097586 0.317173342858757 0.6346063671368039
Ni 1.7875076143644704 4.752115315680353 3.1115813270904176 0.19138649156821877 0.21131074129597158 -0.22955066134276594
Ni 7.784302600863196 3.133289657177818 2.0126608750830837 -2.1247905057245986 -1.4999185922667395 -1.1434395098298242
Ni 0.8265885395651387 0.308818442810912 1.6241786244507972 -0.5495712438423308 0.7317115342219334 -0.8144583757028618
Ni 2.77905847057053 1.4924499952657602 3.27472801785415 -0.2608163042252669 -1.8181586858271142 -3.5092668231599173
Ni 7.117594098607294 8.450348197119315 9.790523160017814 -0.7515524802072605 0.6467052072828668 1.2470541958986976
Ni 6.802584850320613 0.8263427119235518 2.426679737951529 -0.23872024365717595 -0.572701144991575 -0.2331275800607469
Ni 5.908904699360576 9.059954713115966 4.315326552422072 1.3753938955180767 -1.895518809074832 0.8864811458980669
Ni 5.645132560640604 5.537815444897647 8.949428027490717 0.2527160437156358 -0.7130653798756559 0.7217328257426666
Ni 9.176515684744812 4.531938453474013 7.854253915084945 0.03087689208451457 2.6552070310153497 0.7130268133282366
Ni 6.201365936626796 5.304896056250997 11.584828322988413 1.34165408006347 0.2862442573800683 -1.5285735369992708
Ni 4.297776116077767 1.2641893626731548 4.752468865546905 -1.3263850697195414 0.3844711967744669 2.808964913597517
Ni 0.6280270164656749 2.5021755242992563 2.874494837672898 -0.27560040451297696 -0.2497842147808214 -0.7719775808308318
Ni 0.2304362532557883 0.801746137223199 6.327570349146959 0.9647951484186221 1.4724635813795803 -0.6550075565009752
Ni 4.352373790782274 0.7845308366898958 13.274052757262549 -1.048581744017975 0.7782235617405435 -1.1854675334351519
Ni 1.6611595722110206 4.231393445821528 9.965339758486094 0.05379262034042348 1.0949006816891724 -1.9590610526028518
Ni 6.579167114337547 6.497390293641859 2.5980869740348034 -0.4248853389254554 1.0330602513436078 0.6831991884438428
Ni 0.1586978549429534 8.192229173453063 10.472135998835547 1.180527158710741 -1.6270051362053075 0.569499864445458
Ni 6.024802764989639 2.3015635961143466 3.9558703775525905 1.108364263393246 2.2488806860390045 -0.4196775694722708
Ni 8.826841976886046 0.8429521900292738 9.392337622813676 -0.04483669669871633 -0.4216848297102867 -1.7639189506469428
P 3.732703993427777 3.828733293118842 8.879584435493932 1.2478527805405928 -0.5476822543497343 0.9892512245784576
Ni 6.595666108109972 6.699401690048536 5.237166397831306 -0.07681453515689352 3.286540898048469 1.30463970762265
P 4.4676089504115515 7.929552671038291 5.875267744088157 1.0225107579625359 -0.2269420200753253 -1.4226366305551241
Ni 5.518674034153857 4.470647269577233 2.322434086674242 1.102707579328101 -2.3359258977849704 -1.2707476828608955
P 1.6351589257750125 0.5315438103053133 10.246126484533878 0.22198827561447573 0.6216410652253874 0.0008299521004630868
P 6.566443001952788 0.5210919923753711 7.922398810457279 2.178908627725241 -1.164918762749523 2.4302807558184725
P 8.432385285930698 6.367828998795007 6.655157318076781 1.348401940310265 0.6111357948186894 0.1213352432770878
Ni 7.356442813140909 1.6029435355910207 10.72687604330845 -2.266674519687316 -0.32979694516003843 -0.24920443101795145
