# total energy = -340873.63500341476 ev
CRYSTAL
PRIMVEC
9.21855368606443 0.00000000000000 0.00000000000000

0.00000000000000 9.21855368606443 0.00000000000000

0.00000000000000 0.00000000000000 13.49228514523963

PRIMCOORD
 96 1
Ni 2.572916798100731 5.963288852959143 12.0767424159203 0.9079215751600299 -1.5800894454903756 0.6432732987831825
Ni 2.2995866784180103 1.2944969779496347 2.7086977986342475 1.0515012316576147 -0.035160864171849125 -0.06656071863936923
Ni 0.2540301554814476 8.415765245877589 9.339279042059815 1.064222278768709 -2.052548677540052 -2.33029878140618
Ni 0.737043655814395 5.073136081064264 3.2493604469081006 0.6049497206126355 0.8300783416283058 0.311620788471644
Ni 1.9834824691795454 3.6541517528213587 10.836247726034792 0.6629322106646905 0.9648185454573899 1.5623989701891479
Ni 8.74359545552875 7.455809584733552 13.131757959969711 -1.0581020248035842 -0.2590594694351603 2.0976018611249487
Ni 3.639899868671966 5.3446593642054046 7.89266302070605 1.0991797686805003 -0.177810552655997 1.0357686514137063
Ni 3.959894307607096 2.9484438050280604 1.2414442009252147 -0.05003315329799125 0.6683443828191974 0.34783966159436225
Ni 5.51060255086337 6.3396363111732095 9.730325484281776 0.5045841376086794 0.44390430323011937 -1.0698375680729575
Ni 2.562518269432869 7.968877414111678 2.1876927944484694 0.8920622395302702 0.15295904082995593 -1.0321115142770934
Ni 8.346128290596535 2.5380061349223677 4.790003873143478 -0.6774383747006656 0.4644021660731551 -0.041319941794709485
Ni 1.7821308174389052 1.4360939640652026 9.979716863499334 -0.4811940408195132 -0.9882554363240916 1.145136695026589
Ni 7.3317094136991905 1.4272810266481137 6.8178810536339185 0.6140167159109103 -1.0674564694352906 0.5131117154637164
Ni 3.585326030273258 9.038911825985274 10.75783102013027 -0.8199759630869814 -1.2685244499573316 0.15116492504401063
Ni 3.8020081369559677 2.6174977241980546 4.577783546492014 2.194166582325576 0.5049785448336207 -1.2592813340925086
Ni 0.9785494841254903 7.650680593164345 11.57894419902927 2.407000702244609 0.354137578787932 -1.206398112940232
Ni 2.9194606719325296 0.9942118070037683 7.9814690367246515 1.0229977249012834 0.5982347704863052 -2.2132146000959625
Ni 7.906062188630463 8.969468460333674 4.767229436021179 3.3536986268418887 -1.43488536601549 1.0706320389497948
Ni 6.366065904870693 7.755366489930515 12.50790155122069 -0.28791187489047837 0.8406807997345006 -0.5894531676389333
Ni 5.641395391944599 3.6732986890298243 12.564637140481645 -1.604117947194489 -0.310819118505955 -1.2404742286883346
Ni 4.36459803725941 8.100997726937742 8.736565386413403 0.16898986904057348 0.4492213445676586 -1.3315815263188164
Ni 0.6992291481942089 6.8585026108812 5.793142005775873 -0.9284955426566397 2.5724666172923247 -0.4960848418884166
Ni 5.895772165048308 6.224155487926484 4.369165830659167 0.6575730032353062 0.7930446859137762 -0.2526427672755391
Ni 6.99741699784575 5.436688186626741 12.860576685173939 0.09458085800137905 2.4344215174597235 -0.5055238758141294
P 2.5381259761215547 1.2785304427964992 5.670807187791064 -0.24665132557879454 -0.6053189310265962 0.7662779593428931
P 7.210208874831795 2.7551491692942562 9.581411732028192 0.06503708290599121 -2.866115651776896 -1.2794372402150933
P 4.765651219613432 1.2616236151574398 2.3744265854545095 0.16985298837181717 0.4440783669141384 1.3542712546068483
P 9.083640248943135 2.875672541460593 6.8961769964838755 0.30305181585571034 0.5902388967650223 0.21811465159168245
P 5.102211399697629 6.019687965006998 11.712639040841566 -0.79756314260942 -0.754280677771701 2.2336363582854237
P 3.1688502074393305 3.6282291795819726 12.809804578355573 0.03430288704692802 0.3962710176228723 -1.1846527508433404
P 7.634631091027156 8.881182370748467 1.0208976764964341 0.0012755242783139323 -0.5225129541729582 -0.1434863254528303
P 5.352725598766026 0.24809893797710147 6.641928361277758 -0.3664313085536205 -1.1197169694019038 -0.385944953106516
Ni 8.320841797568214 1.3291126474069237 13.011852230906873 -0.7272789523718765 -0.48500313015295826 0.8399570341945986
Ni 6.3449922909214616 1.339612580166405 11.000665242041578 0.2992224148072911 -0.3967129902562974 1.5956356207550906
Ni 0.45523615407230744 2.903862878930737 2.2636011318684837 -0.5915607009002392 0.9149414581212889 -0.3286947132347952
Ni 4.692041067651662 7.177326293485817 6.480924475737028 1.1322950631772306 0.06983553273589908 -0.46708356956006014
Ni 6.346338199773862 3.9488136059592502 1.3510767736516471 0.8769690926425735 -0.5290612968144371 -0.8934969150942677
Ni 5.0597599595243095 8.891258250033903 1.0716098627152069 2.203241805153967 -1.2132570448435944 2.0615794202837527
Ni 3.649441071837957 7.947905204254067 13.210283444808878 -1.4036724307477955 -3.96595799374206 -1.6045174966257527
Ni 7.504105588005651 4.634775411548151 3.2499541217717622 0.3479455910446072 0.13179243405466978 0.9529619032291201
Ni 5.214852908379019 2.4228203053967157 6.623700514881514 -0.6678813271398498 -0.5125717837998464 -0.6641833094629722
Ni 2.916446204845304 6.546555969399123 9.893987078878308 -0.41079389382939574 0.20516477629923377 -0.42092892538086857
Ni 8.143771816493485 4.398946368656976 8.279001547510745 0.024646594904086584 -0.0007222228780052078 1.0164740648501527
Ni 3.1817746198438894 0.8156733103113178 0.24082365533111147 -1.7755945872126582 2.1914080457438323 -0.014593838653774865
Ni 1.3540488353914688 8.314241313059181 4.131458968362279 -0.3369433263968326 1.4837669222075414 0.017757838204053286
Ni 6.623641516137299 6.763136671990214 1.2617158006952753 0.2290058445828895 -0.3060558927893568 0.6466185611063315
Ni 4.885188206524928 4.653950003417968 2.988932615100859 -1.1422987113571617 -0.018285428572749157 0.42919476493408665
Ni 8.720281733010113 5.027762359341554 1.1117953823685263 0.37089397231066445 -0.007564956831451487 -0.09764869829342539
Ni 5.778300134184333 3.8280689885021078 8.375956765074017 -1.4844312952644176 -1.2615912131726081 0.6740116084073038
Ni 3.9949616861997796 9.431594561503818 4.510403293177176 0.23873644160709206 -1.5147183762837333 -0.27200008875622833
Ni 1.2726490054825843 5.932397479230414 7.852078337673903 -0.5985972960320466 0.07737323587384094 1.6109246857036772
Ni 0.16686412018094288 4.900749125311587 12.089910198144745 0.4138432221786808 1.72267562772644 -0.25043958897663327
Ni 3.9157097793224658 2.045504899035375 10.885009266272965 0.7705539610104278 0.2392223801045751 1.096031452859506
Ni 6.442570682720503 8.278436450163813 3.1011343987667708 0.7463213137153082 1.2622496726922132 -0.13144687778979297
Ni 0.6075450996843785 0.36174987829779015 1.122426218591734 0.473191739340327 0.5561080165195842 0.17866698711902132
Ni 6.3334598801382205 1.1366937742825585 4.445599625644844 -2.9428687375682347 2.0794961526631734 -0.32766292953617115
P 1.8410005019007551 6.969235878929391 0.33792821346567825 -1.9948976026854868 0.5028784677714824 0.3982651652347657
P 2.2380804875740608 8.487282786130491 8.899902487916753 0.5358927179139739 -1.6746499917767805 0.27460230226576576
P 2.7863355367440588 3.790392759188675 2.9180981696833186 -0.7725347388858824 0.7087847502224309 -0.26834757960530553
P 6.178947700171878 3.395626630515044 4.649050342082003 -0.7735732074527257 -0.09620579519931173 -0.9717456115945264
P 4.734013143028235 7.164438755296392 2.558487917718694 -0.7132803240999392 -1.5477274842199022 -0.28947433428159175
P 2.5826976836650943 5.702173317039647 6.0306469817449 0.07406422610526599 -0.3743515918419617 0.4003040500416654
P 4.90616041638254 0.1887609509830463 12.430792958098058 0.260236520462397 1.4056336682392243 -1.8343031567974601
P 6.382170718330581 8.462143789962708 9.887119256309552 1.0984878848197985 -1.1321189426106826 0.9237300029471963
Ni 5.870421142143503 1.6602615364201678 0.055950168478594804 0.733982332533981 0.31471228291277414 1.008476648466973
Ni 7.355327348492686 1.5752756890894763 2.118194117474168 0.13885833976251571 -0.3227924888177473 0.41729672794492
Ni 3.373437571558002 6.541808414200587 4.215758955291474 -0.4634907100024791 0.42596160270876954 -0.14852003122199584
Ni 7.436717959847787 6.7743095591758955 6.0759405020496935 0.10491566426848384 0.2537030902192534 0.7195489307174704
Ni 9.2244536579871 7.53923749647482 2.1536118011106273 -0.27856411512699125 -0.9601975017456109 -0.11586213597765853
Ni 9.00234182312587 1.301429330394876 8.853192075895427 -1.9625613524466266 1.9789310520539016 -0.3323567354674147
Ni 8.617162990387147 2.828879162455214 11.262333891188087 1.332706383951879 -1.2612821665726213 -1.3981414736272373
Ni 7.413404237329149 4.320634754265586 6.161791971580662 -2.131892406876703 0.17103003939905384 -0.7199963026675342
Ni 5.73760021922989 0.8647528906550214 8.795270058762528 -0.3588815212308206 1.919931433591242 -1.560111973927184
Ni 4.6662659912728115 4.6549087330114585 5.716681476984223 0.5297758063829586 0.8187852852129899 -0.11662112563087013
Ni 8.436221216723322 -0.1536576200306068 11.016774664778358 -2.1238499961882003 2.304202341429445 2.5709334684772496
Ni 0.40977485608865366 4.725310828256549 5.70596859563234 0.6990418119030543 -2.231034658996519 0.022424904662419445
Ni 1.0012916563095466 2.933417562360848 13.50469824070537 0.22811470022718777 -0.9367027610577804 -1.2867201470297518
Ni 2.113869693894298 4.853762156676753 0.8775491651619887 -0.18234880684598273 0.19144099895523806 0.9716941895313008
Ni 7.890685640919475 6.778024636350673 8.648689522471564 -0.44761851885691295 -0.137581272822305 -2.3077237243191417
Ni 0.5569555202309272 0.7925245999054062 6.589672989155616 0.34429899543095543 -0.6212816250034396 -0.844508658121023
Ni 7.90292788034405 6.839752072485428 10.783492708297581 0.4082958099978904 -0.6529025943428303 2.1473200542856827
Ni 1.5301785239802732 2.936432029448074 4.504116239496784 -1.0013053275295143 -0.05185863654250423 0.4524568207858207
Ni 4.4902469253294095 4.213026575950024 10.48558315866174 -0.6718922480714559 1.0939871687359677 -0.4824641657811884
Ni 7.053364400758211 4.5140215755372255 10.585845071467178 -0.3713385160472508 1.718793519063214 0.6347914865644164
Ni 2.56308981976745 8.240170233408232 6.5077744354870415 -0.28783499890595593 0.490449240869194 0.2505763716648136
Ni 4.469330026794499 5.533787213629038 0.3824510626741651 0.43160980213348243 -0.04281529539331336 0.028342041477802803
Ni 2.790898720866924 3.397580963917161 6.654435173195921 -0.5024146407611864 -0.4821756880064922 1.1139574412103073
Ni 0.9982218778996194 3.4744544839183145 8.800869408330664 0.9036538010226114 -0.3537228598480166 -1.4709175770486989
P 6.147595398753971 5.69517643471792 7.681171881658867 -0.16038927185575602 1.6379459514875276 -1.845341673999809
P 3.4146905997394583 2.8199187281775884 8.869612163894713 0.19518735337154772 2.2587835469750135 0.44971371082304484
P 8.381711908201098 8.380753178607607 7.280828527946179 0.5605411125902733 0.9516760945381609 -0.6096131875265759
P 0.258054054207974 1.2887722560500405 3.587409423428344 0.09479451667408191 -2.94624279624679 -0.750031929797676
P 7.871040902806697 3.59401912649116 13.164246909069131 0.2789428386226487 -1.9691336063475056 0.9195514460894745
P 8.394405856761068 6.7924055802530345 3.9937429933895925 -0.3269818443087465 -0.4544553392730883 0.39264833326862053
P 0.19663728333572478 5.252870224182442 9.89691489155997 0.3689065095669905 0.4221376009769891 0.39994358137845315
P 1.2347884050934803 1.105147883235197 12.11905373407611 -0.39758510844860556 -0.5027923358155794 0.38656227497554074
