# total energy = -340865.85911210347 ev
CRYSTAL
PRIMVEC
9.27048421836386 0.00000000000000 0.00000000000000

0.00000000000000 9.27048421836386 0.00000000000000

0.00000000000000 0.00000000000000 13.56829072848103

PRIMCOORD
 96 1
Ni 3.3909298479159276 7.41589591212898 4.106619560762751 0.494584088973174 -0.1341280241663819 -0.21092661848367542
Ni 8.935439495327476 7.337347100690887 6.31656853858356 1.0084280546172244 -0.7440052639876219 -0.33089943419559786
Ni 7.599284627798563 3.1973806817168806 7.617672632931038 -0.03533184253207463 -1.9982148399841781 -0.021360725063963214
Ni 3.122632768743276 2.6685830004658113 0.8255338243737549 -0.24730772821587088 0.1905215724647622 -0.0940427261097219
Ni 1.0960307894137802 6.671346255355811 9.498440627516919 -0.07050556221973019 0.7562933373263556 -3.280455096865705
Ni 4.601404763047077 6.74700267576727 11.065958965724516 0.541689269991093 0.12720018669829705 -2.2234115952336224
Ni 2.2781380233221546 1.8112949870422623 6.463133037471083 2.2576190943532666 -0.18332042673063267 0.12279768675522724
Ni 5.93678090991497 7.608425325081457 12.664520446854526 -0.0027176560414791905 0.8653687893994838 2.0850623338970413
Ni 7.775025194118869 5.232149957502998 7.960774175030058 1.2340480134470166 3.4626609503759207 -0.4835417151160833
Ni 0.29142230165964816 0.07946937050522504 7.112918879137285 0.31068285003840684 1.2031567231847988 0.5390634023324716
Ni 1.1674505986099413 5.078556577601389 7.732718413063884 -0.035210229352545815 -0.7451627746308328 -0.4229693528496651
Ni 6.771170827710986 5.608791183881716 12.340305661930394 0.5732603599291547 -2.6759632897260945 0.5422358865231823
Ni 8.01959910458267 8.530495481114402 12.48399445666259 1.2458298365732932 0.4613914042712892 0.5422657113198532
Ni 4.49717671076353 2.8853176472982427 6.287980219840165 0.05752611924092673 0.4463825895672828 -0.8205367206864578
Ni 0.45353247526693197 3.7678491888164367 0.9145629180413737 1.5860716312157392 -0.3533729327077656 1.5021276841029163
Ni 9.124993082896777 8.949882909492533 1.5946947622286964 -0.9080187628595264 -2.189555823026442 -1.1637831064831827
Ni 0.7943868520298735 4.618490265169159 3.181695949736223 0.3093481903873833 -0.4708533210151375 0.6459269343559456
Ni 4.903270265000011 8.77894445391517 2.754064279883771 0.7011362325382376 0.46900418362154067 0.7698607915981451
Ni 2.6157041593891104 5.249003697523588 0.8738293381313254 0.049239196641786165 -0.8566566063374665 0.7432359899217651
Ni 8.010764333273746 1.3619082722468419 5.653322881111037 0.1039738691805048 1.5343757455033444 -0.47728210735961674
Ni 5.042021599921992 1.6696419906095854 2.0631536438802 -1.1783625469592545 0.7192154586374516 -1.6400455143290336
Ni 7.083020640996249 8.33877260027512 3.470890554076318 0.5137971715665152 -0.03569745340160949 -0.27297685084720086
Ni 8.948214222361782 4.381573774538694 5.656267186848408 1.4144967750568092 0.610461137349168 -0.11909118443791748
Ni 2.6542322911413487 8.656147622059983 1.9804544367285648 -0.30709101892209045 0.6864246373596758 0.5464856629384717
P 8.347829863201477 3.1574897888078617 3.7693389556048356 0.6664417664798458 -0.36367482885440594 0.4348509347785995
P 1.886376637442017 1.2390187355510585 8.469869296508984 0.03267280764267277 -0.1830959694246524 0.7900861175060844
P 6.5932795090888225 8.416023543944853 1.0463604628701517 -0.31348046738820207 0.7065471191411639 0.8925186103413983
P 5.6517413365304465 5.138425363659127 6.83559605668408 -1.0484457326607428 -0.9312417379432091 0.9271333722017904
P 5.372384569874537 7.944526724666975 4.9859666910064275 -0.022705412017315737 0.07262646521747493 -0.11232712624120654
P 3.972142846040711 8.130965429592209 8.467752844998147 0.5262811629661388 -0.03189196361259024 0.7826062641892715
P 6.204614464884635 1.801106725060619 6.952853774313577 -0.8703742130338753 -1.2612379435982473 -0.2538851243230724
P 6.389412294131296 3.0366675700573977 0.9499798753431669 -0.6825245309743213 -0.051419749232872736 -0.22687517139313185
Ni 1.860790101437162 6.331536662146401 5.598113440341719 -1.3399754068094667 -1.3777706232803693 -0.3749581150777091
Ni 9.164003279820122 -0.08051693520397456 4.193008420570159 1.3158330052353082 -0.5603068850922802 0.06367774066461936
Ni 4.194096775398771 2.760156842007826 10.805841234637764 0.44068965294756357 0.4375176829774852 -0.20444383897280918
Ni 1.8081986453663126 1.6958403785623828 10.688027287964683 0.7173475521907774 -1.2380962153744612 -0.49773754700049117
Ni 0.0983783768418567 8.769748133727918 9.719930105623586 -0.6567114265659593 1.094945418884179 -1.0852850129762792
Ni 1.778597989763594 3.5674213234450707 12.269994602627776 0.12493118815846227 0.546834047416826 -0.2714385598258035
Ni 9.377650855460665 5.775604274052501 12.72183243340859 0.5495699582907503 1.5133410363202324 1.0828936299259673
Ni 4.644790628446613 6.947903335825682 1.4046711611175653 -1.421662439567313 1.2894254617760568 -1.349907578321514
Ni 7.497939696057593 6.949553481988313 10.786682852279926 0.288620985142361 1.1681231286194333 -1.9001884466363599
Ni 5.428239236334411 4.989402332398964 0.7071617945602782 0.7631463556924469 -1.767240301710692 0.22703895066450577
Ni 3.2916244226680975 0.9309049273418661 4.33639870571563 0.006921923930813884 -0.6791545860608239 0.3846321478323634
Ni 6.250392115171582 1.0549903564813545 13.277060264713949 1.1637432543841828 -0.7414467592318262 1.355624426200633
Ni 3.0703565091304577 8.720345724173615 10.604908127885144 -2.099183860900088 -0.7519273470481761 -1.5405618197093984
Ni 6.398488098025773 8.825046571144208 9.632997995450278 0.5352306588499428 -2.3659095886312547 -1.7121361616476964
Ni 7.807147421385833 6.570121839907617 0.8842317482947485 -2.3491812201329805 0.8805169578948319 -0.3525242115542251
Ni 5.566712456734601 3.1937930043857645 8.731262646202353 -0.4926357069975516 0.7733140402540682 0.46924303910522414
Ni 6.629684699991383 8.93392840642574 6.55492288129169 0.1290513809744229 -1.0348659370937792 0.5404075750651919
Ni 0.20500099515803144 1.6700869738444524 2.2281710412886153 -0.40922397823911466 2.5471782750391814 0.842631238592652
Ni 8.699171938581191 1.4714761233487927 11.356849141599136 -0.7283009658784877 0.2351276412099112 -0.6897629577042894
Ni 3.248182934364202 3.497512603150645 8.247742936147413 -1.7350665451916247 -1.443420657180011 0.2596850188343012
Ni 4.895594304198554 0.06180260903259724 11.55360311413763 0.7646748765218314 1.0247982684451318 -0.8013007552749812
Ni 1.0717699326294663 2.2515688160069685 4.622133565404633 -0.8715978010283313 0.9675739967153402 -1.1205278953389735
Ni 5.832525046179245 6.094342056994145 8.900581548214483 -0.3565179060946505 0.4139411812091258 0.18849605739430117
Ni 9.102521429535992 5.287624534116424 10.563768500773277 0.2627847408055474 -1.2650238930032407 0.5932074924750429
P 3.73509656863341 7.212825958800591 12.969739082891865 -1.3552991816507305 -1.0847142280744737 -0.0726290363206362
P 8.447978902498742 1.366367375079572 8.89660636464967 -0.21457758497270144 0.23830938137200244 -0.13528707747148958
P 1.8575732434684353 4.394190903343987 9.999463938525036 2.2580551534494204 0.914284027042948 -0.5806553668416451
P 0.5283582603066381 7.486166181301735 11.326564324272809 -0.7686495448988633 0.5137915151395603 2.360130520055632
P 8.65728789159933 1.3279412186519906 -0.06643414286883845 0.3150385559039413 -0.05059468222841609 0.7914354324451273
P 3.125895979132301 1.770597562020047 12.383764764154003 0.03162019800844232 -1.0786700787629229 1.0090101523729398
P 2.305875311628868 1.4575333153229586 2.5345698099467575 -0.15479686536964307 0.5367789771736691 -0.7080743544189676
P 1.862875960350601 8.420816384203732 5.4629868646870925 -0.40711567364686013 1.9951657687452093 0.009782276197744444
Ni 4.001641526318772 -0.0344546810563932 0.03292505118653772 -0.9172418241196914 1.0862792585687486 1.308796667213817
Ni 6.6283775617389615 3.0782178796131086 12.23538232334237 -1.9139070817740327 0.25434020958262 -1.0326697007734085
Ni 1.5636154644184512 7.293562604476781 0.4083295949916876 0.7226424820411296 1.4401828669690036 -1.0374306124971615
Ni 1.9381893728518491 7.738100856108963 7.7368966202296034 0.4596659369397503 0.5668580559472367 -0.966074272241362
Ni 5.719731066624507 3.8755536726223823 3.1659973120294755 -0.40859534351618015 0.6615877808216543 -1.7229558779710197
Ni 2.3363659337013205 6.172306827936476 11.155332921399157 0.5055123058499035 -0.0325805050391826 2.1373814550157317
Ni 3.7899036703945352 4.879352416125907 12.409802772732569 1.6921458345686986 -0.6173123559430466 0.12390634643837371
Ni 0.972585023674413 7.101747018796904 2.8817281158703154 1.063343989928814 1.0793398511364378 1.5581944451894971
Ni 0.32647307484108207 3.1095891976712355 9.707908141894928 -1.3872523375185595 -0.5254635521608498 -1.0650913116372236
Ni 4.211154466068675 0.42249582168336125 6.618652823960304 0.5383126402093761 -1.7449814903124914 -0.9362808430290134
Ni 6.741570172108267 3.812449487627799 5.336707111970665 -1.1576422836927678 -1.5599088567774424 0.005110067533055715
Ni 8.69444399171073 3.68631528151111 12.673095644609775 -1.2516873237953348 -1.9531619135095972 -2.514640964533108
Ni 5.781259269328936 6.406432902864961 3.3062940366442146 -0.8936691790060738 -0.5976809548653643 0.990225672676585
Ni 7.754602317735283 5.234532471906348 3.1102594536687542 0.31669357500886103 -0.25133484709739295 -0.2632454824920499
Ni 0.31784874352031506 2.4828859342653558 7.217462127878862 0.7388782271737017 0.35642303238799905 0.25418311517946546
Ni 1.1517463986127585 9.28809797944367 12.55788670395748 0.4396799807361267 0.14364162008377196 -0.07403980062523378
Ni 3.4667902189766995 5.671700688711045 8.577887122676147 -1.0548845463075511 -0.0239901922670103 3.8997420600366195
Ni 3.8411694472448428 6.576416498584174 6.794430472216848 2.151688615667023 1.77104322039655 -2.9078166310601086
Ni 2.9171988419796553 3.4985787088175138 3.3958988273719424 0.7689290238124951 -0.9673035166627728 -0.4486721569324079
Ni 4.328991588951905 1.1427169471385812 8.776255086489442 -0.5537158621383237 -0.32223430232143213 1.0798013641538888
Ni 7.490050514122763 3.9981836357644935 9.97060399459869 -1.6651127417103064 -0.9132879816782657 0.5928868759108306
Ni 4.114537481198167 4.954851238308349 4.879156808912247 0.012362635330410966 0.6816308155154583 0.8648743662615687
Ni 7.008634276900974 6.169136322388048 5.5740027653991735 -0.3956786354545121 1.0516045900046986 -0.592399908972083
Ni 7.050907684213344 1.391787042371352 3.202103066296907 0.7080507002698838 0.8968781728616747 0.5848807177769024
P 5.149012256455339 2.117647403280106 4.16349768866282 -0.4792137771646909 -0.46391442780345915 1.2850417308860642
P 6.016256769759037 1.3693153890105663 10.35141137651385 0.08935971881175578 3.6132718026886743 0.6333077029300384
P 2.077793592307326 4.186884338800301 5.785735986081381 -0.20193418517707803 -1.7526575188005107 -0.01411047125945312
P 5.5562460802311655 4.744281463375638 10.732232664155102 -0.6467322038660603 -0.6037670131584442 -0.047847201390265985
P 3.832251241579383 5.382044414264776 2.7071315272829812 0.3191898590681535 -0.18472373483606253 0.23531070375499474
P 8.56694702443726 6.924096732760295 4.199087076968124 0.4026242135344098 0.19379021591370496 0.37644138449145487
P 0.34854702443570557 5.862997127283578 1.3995418022873165 0.5738830811148181 -2.2030428017692834 -0.3790898778578955
P 7.859052861636263 7.497578147179263 8.130933909946405 -0.7875080723662631 0.16651286825499065 1.5799554910156726
