# total energy = -340859.4616916746 ev
CRYSTAL
PRIMVEC
9.45023174264988 0.00000000000000 0.00000000000000

0.00000000000000 9.45023174264988 0.00000000000000

0.00000000000000 0.00000000000000 13.83136939942791

PRIMCOORD
 96 1
Ni 5.043229602211454 1.6650646913260505 3.645118838830639 -0.7501882528698822 -2.087282481476812 1.344953319640032
Ni 0.7328645309737963 5.718165157281784 1.9568755639716704 -1.148083436359739 0.23791420281611284 0.6736264571537431
Ni 7.704386526058269 6.1936346697748315 1.3940915797967854 0.2799563674888275 0.2334345697782044 -0.538432196506376
Ni 8.934390896062943 7.980087588556474 7.522895769385486 -0.31618475369324256 0.07277404653893273 -0.36658506052266543
Ni 5.935047977064254 4.352011297751792 12.323446254073284 0.6965005335384391 -0.7626555320989575 -0.5086755340692336
Ni 3.5479194246872567 8.234053117917439 7.042144522340089 0.5244816478635549 0.19594274348033353 -3.5968434819293216
Ni 0.22884870328611184 1.9310414653032897 2.443214733079699 0.3257978513029744 -0.5927662911725663 -0.10326861558336409
Ni 5.615592341337603 7.3149802745568975 6.48703696145537 1.4645486974078776 -0.4400844152633969 -3.135609172061187
Ni 5.601010633672055 6.987208434847302 12.637999109542719 -0.5639028299736546 -0.5458930236597954 0.7980107716698
Ni 2.8403522192156694 5.714158258999093 6.5812841231848065 0.175275187828653 1.1258086841219386 -1.577953115873663
Ni 1.3816238889846282 1.6571926482376496 5.0670111105331355 -0.27670829286517507 -0.7393654512227653 -0.050131883659384625
Ni 4.561107126532051 6.367717389740535 4.219452896310018 0.3000567377831284 0.5540855867729166 0.7268416077241417
Ni 4.796729755971543 5.004682106704148 0.5464804442755944 -0.4292842393240994 -0.4952669739728115 -0.8912538846963618
Ni 5.8014878510518075 5.886105226578267 10.347427355546785 -0.10153337805981223 -0.8740840577852946 0.2775564997980833
Ni 7.011136421761865 8.020714135059517 10.9310831216725 -0.874706521860642 0.9492448593888491 -1.3829925338009408
Ni 0.7447103965335926 9.075634060527815 9.867257297757014 0.9261162437911856 -1.313179369662545 0.294453532663738
Ni 3.632678553690698 4.853582350473126 12.00456330239364 -0.6133567137294081 1.352992902115057 -0.3554113032940331
Ni 8.848488289011847 0.5455354210957143 11.52706293508703 0.7915346770271529 1.7960484841916358 0.4529013645224071
Ni 0.19422305397530695 6.458382913618227 13.519278585893495 0.11263308751739957 -0.2989051406771885 -1.9296098372212704
Ni 0.5637743684673991 9.007034827900322 3.6750921390268942 -0.5676376144257386 -0.23485638982639553 -2.573451092692781
Ni 8.678327415242645 5.656870953834764 5.6004464548336665 -0.7531164822602706 0.8572399896447624 -2.0520953920527174
Ni 4.250685912405054 1.6143641977254861 9.233739273591286 1.1759513664146004 0.32874973484244674 -0.9005206547102684
Ni 1.742584942771611 2.806926749343312 11.343825775577828 0.42117986504941013 -0.7309098642562445 1.4189977482509561
Ni 4.70599808047126 2.9084411393260265 1.8531961258838507 -0.32862837877323403 0.8115926241192926 -1.4913377925762639
P 1.0546175180507356 4.513468508034298 5.560445513675703 -0.29319163523217895 0.49803245253309064 -0.7634736571248787
P 8.750045224363742 3.9064234182065514 2.307446087895872 -0.3782596686471163 0.35537350807756213 0.7793702737504772
P 2.3915796115542327 1.0793204239728 10.113843141106294 0.25393731771724654 0.09963667525773162 1.2022979747289293
P 7.248724699415507 3.8058540514037165 7.162297604499577 -1.6053880721561642 -0.005681109545177313 -0.7100026817899321
P 6.538416926722268 9.077769812914344 4.993511932717965 -0.8359504841383668 0.7046421888089671 0.7722794283419667
P 1.6323385386068046 4.4925645952953515 9.383920467291464 -1.3387291931071914 -0.2989136253176207 1.1335284213636994
P 8.985185891981496 7.996795598376753 11.564449942129444 2.0769340483629524 -3.0898029123603497 1.1138535686425912
P 2.9508443294072446 8.022528579564888 4.556536994434151 1.0463870503595012 -0.4693937057504755 0.3026455815562272
Ni 4.841769560724626 8.477963600644479 2.661542493304206 -2.0219918877991176 0.7481444829669761 -0.6170526745237567
Ni 6.847259952138866 3.082079698397186 3.170648215838724 1.220548179188369 0.17523739261218207 0.1338511163559114
Ni 2.282911396099826 0.33897792457661297 12.214786543827495 -0.06543508967535827 0.527575199187214 -1.2327665756314319
Ni 2.964481013892913 3.4775057475543942 5.2497511878497205 0.190739087792207 -0.16064098285524592 -1.725928844556415
Ni 2.1644810911972585 0.9924066421192321 7.882400542452273 -0.7233294808058253 0.09073808721652114 -1.6398737646378596
Ni 6.26683616528834 0.8792146007027398 1.609709013541397 -0.43568242954095937 0.8016519679668129 0.016094077348385187
Ni 9.406751282294186 3.8901501190490166 0.29695935892960645 1.6620986374743312 0.4914661121694826 -1.5323857116565092
Ni 4.569961993727527 9.037162166874898 11.200462924120485 0.25901164691636036 1.44397061614621 -0.6398123368177755
Ni 8.981405799261974 2.61999171413124 7.543518065216829 0.01153448300216078 -0.6948295735939195 -2.285620207551883
Ni 1.879263645277662 3.689417745410696 7.311442107771426 -1.0619836192461776 -0.668803581843803 2.1758243323729625
Ni 8.859393856507662 5.040970996811541 7.691029568433844 0.5854594730985079 0.3820124508213292 1.9237628915221903
Ni 0.9030660407397323 7.777795926671351 5.416447606641481 0.6154673323145078 -1.6133289242697955 2.245961969730313
Ni 7.2133430315607985 3.6583170325608436 0.6382998414559196 -2.953941707552945 0.6098985799774786 0.5384257687484728
Ni 7.689502410975158 3.016410037627322 9.825790625647057 0.09844059806710143 0.46746357860729815 1.7957000997132815
Ni 5.0824102632492805 7.245010758318579 8.532212656285491 0.8246597417158958 0.658248432035776 1.9966752634112
Ni 2.247293472450147 5.99645558329286 4.097543016059133 -1.347606183881847 -0.47800073069319615 0.1517627065290096
Ni 8.517286015159288 0.7134339093722827 8.906295356925108 -1.2542052051211818 -0.884456145048238 -0.14146338148553056
Ni 7.716369419979149 6.090466489227327 12.380500138512183 0.10061575134154928 -0.6445678492248899 -0.5123820363865434
Ni 2.729349796506959 4.64312568831384 2.1456600095467677 1.789958569243814 2.536722626923496 -1.2142088672339022
Ni 6.834218632256522 7.833051431998937 3.2018925722119187 2.552473461999849 -0.4060394098635459 0.32936320005672953
Ni 2.870687463289819 3.1804944123498946 13.593856980180089 0.4206733577266367 1.0195768721451925 0.8578567972931548
Ni 3.885916415203154 0.876944655024668 0.37380108373201276 -1.1865126868702147 0.3863324183529217 1.049681661950373
Ni 0.48703754123795956 6.5971690178154105 9.186269814242731 0.6780708660783418 -0.7618160669167976 1.6104600873624326
Ni 4.907987334938821 4.476981163059129 7.352369171645671 0.2796709750379248 -0.7023158546686357 0.29200275713040036
P 6.265995094658247 0.5578613584308897 9.59043638279065 -0.22144680128870894 -1.6784050879438384 1.6032049484619164
P 0.4185696668324702 0.2882093893070971 6.493468789217633 -0.7775797575089576 0.6513265081049622 -0.19718612896913137
P 5.23691210292787 3.6343039935600916 9.850687261320996 0.8737395299616824 0.4325402843675518 0.7298960782797494
P 8.140552524500105 9.42798595314609 1.815062550529331 0.47295725473201766 0.6573387757373131 0.5411483098859583
P 1.7198665855272943 7.511460043885758 7.759619350829539 -0.8213432757481532 -0.9280458567137307 -0.777416749568532
P 1.9763269760831417 9.197995661858682 0.4098300924649396 -0.6230700843624302 -0.23824124713822836 0.8631239592293651
P 8.664085915921852 2.784709254384332 11.858877583960153 0.7919933618311263 0.6520248197235674 0.2084316199759636
P 5.368024618904427 2.3407846156356804 13.48001098272312 1.169561917948489 0.6230731696862236 1.2880856599187105
Ni 5.803784257378916 0.3172594018566097 7.041481116067813 -1.2874649956155764 -1.861107421474498 -1.1133622308284696
Ni 6.73378156869887 1.9325062512321038 8.154643765135297 -1.2531425681846224 2.163644245367003 -1.9696732809010593
Ni 1.0946203492550581 1.786481269477039 0.05083657693846723 0.4289204282267774 -1.4319059716721918 -0.12692507866003946
Ni 3.452623287228153 0.772242701856218 5.562894068734773 1.4503536368544183 -0.18046418822876018 0.3687946665794746
Ni 0.16224252454498628 8.100001579851453 1.0735227067642361 2.17302851479538 1.0233126850385408 2.5461578041944666
Ni 6.032867326413639 5.2734088981348375 2.697946676239545 -0.6914629711145317 -0.37167070257568896 -0.06847027695725627
Ni 1.898759473478587 7.109447183164786 11.732348430406015 -0.28538319493135367 0.9842468293853308 -0.351396268597369
Ni 2.462276795641059 7.861128070673173 2.092575222463366 -0.22865514611169008 -1.3984219809821337 -0.4903816208560522
Ni 5.175646250176246 3.7803195250833577 4.849582067352694 0.010087466142989079 -0.36547460106730606 0.11433772891333212
Ni 0.7803736812959059 2.2511208163286613 9.31335275138028 -0.33206851480303456 1.1685643299219102 0.7859718382273947
Ni 7.79166886695199 8.188455749488226 13.699888580962629 -1.7212496939131905 0.5644170506059117 -1.3165292599713843
Ni 9.094203766012457 2.948075411490196 4.707672661546007 -1.3242088880038292 2.7354750719384824 -0.2315818328401818
Ni 2.718727735965107 0.2745547493810103 3.3638997859851143 1.0420431715685086 2.9057247815280864 -0.8017609827408514
Ni 6.759457848496211 1.967869018623215 5.39762274489827 -0.9981564974878874 0.8157300433264338 1.2945890082548672
Ni 4.294270381461121 2.456814561661352 11.69061904185205 -0.3415666841014569 -0.3446085562515742 -1.4066757363504934
Ni 2.9767852156949517 8.658774885650928 9.059311620164927 1.0702635998667824 -0.6671753022117607 3.3235383012084245
Ni 8.406122938509997 0.7977847883620158 4.536827590994573 0.1269389626171104 -1.5111394006832233 0.01754057998692463
Ni 1.092541298259322 4.97149289262676 11.62240254361241 -1.0772996807779576 -0.2555386007660954 -0.33452674653554
Ni 5.690258622779926 0.025830318575661315 13.206495758839978 1.275195434219604 -0.5634541724720102 0.09567074863144814
Ni 6.791068873863198 1.3600584600197654 11.665432284061888 -1.3995452959532995 0.9397256070445041 -0.6197926991627389
Ni 3.585890456054837 7.996653844899772 13.310189372275495 0.2706921685780822 -0.1293208325857257 0.7601515347301812
Ni 3.1432793995262185 5.940680315216339 8.826446568364323 -0.09009608275714806 -0.08282217480355414 1.1912774552487098
Ni 8.205135408613108 1.7105392067418783 13.829488114828202 -0.5738779389084956 -1.2228254052583198 -0.011880553487669861
Ni 8.331730713789838 5.193516638507778 10.179873800730872 -0.5866748335628478 0.679024745351179 0.38989750999636075
P 3.8134520377699523 7.206340409797887 10.625271730616957 0.4274890950968896 -1.9804161212398603 0.39169291133388673
P 5.305190027674204 6.907164971511461 1.2078577517841846 0.6759489346393327 0.8767713748094708 -0.2021167335015293
P 7.394409472825815 6.860868285929138 8.648368290394089 -0.44649777498890847 -0.690819681103578 0.937030062490212
P 3.5564907849287684 2.354959963333881 6.998451375618335 1.578414371780798 0.38337307861428166 0.3606836074365659
P 9.148136238888211 6.794735563801133 3.6126572926017597 0.16416030886241406 0.4532759742530064 0.03357912150702604
P 1.8455263177559442 5.218228994661642 0.004530441124344944 1.5426539263517367 -0.8769410676181155 -0.433134466308125
P 2.6007793928842786 2.7638809434997755 2.542565019980488 -0.5325225158901603 -3.8316453643686974 0.9833364017559194
P 6.63451633388427 5.20768253597418 4.807092880162108 0.43369599523854985 1.382140984433923 -0.31492697002674147
