# total energy = -340858.9589737389 ev
CRYSTAL
PRIMVEC
9.38274118933749 0.00000000000000 0.00000000000000
0.00000000000000 9.38274118933749 0.00000000000000
0.00000000000000 0.00000000000000 13.73259015260874
PRIMCOORD
 96 1
Ni 8.429051116569042 3.073373132884688 3.1716376418034318 -0.9876550837359312 1.8519041577086752 0.3815100572636139
Ni 7.735385069498725 7.74523694761889 3.900810795892932 -0.5775307051697344 -0.6236118157985131 -0.8292345055707718
Ni 7.985097340251186 1.202886170249004 1.3149376788913392 -1.4372512951445053 -0.9383513524047967 0.257061465168525
Ni 0.8931008998162008 3.9269398532158246 11.164732830539979 0.6604629231885916 -0.5985618148084206 -0.5082487309444602
Ni 3.0728476993849454 1.9137320162126767 0.7157154885773547 0.7606469863093609 -1.0816337893769372 -0.03940498416018375
Ni 1.6877299321360808 0.18225036248199444 6.700542853482437 0.030858637252069433 0.14234269876669034 2.4553402698902618
Ni 1.9800304645908569 0.9154684162454031 10.851478760734771 1.1026728694354235 2.8496852741350147 3.0348119008364507
Ni 7.020251310867514 4.480662317274458 10.959774358128056 -1.0616964270230618 -2.29937843767824 -0.3407508730683809
Ni 0.4781125834457371 2.321243226226988 1.2212003425373381 0.8908574205888916 1.3258991312220585 0.7152089085812199
Ni 6.708941345011352 6.3956140898258225 1.531595491139485 0.5767447189333292 1.0248018679895576 -1.3371541353105874
Ni 3.9473660805183006 4.376101050825769 3.4601043862583034 0.32011879864032616 -0.47374941161600986 0.7411752507379945
Ni 6.561547865592609 5.9700786342221415 6.2938244850882725 -0.5419499798516473 -2.1593605303899848 1.036270016530157
Ni 0.47119937982770105 5.571030656650105 6.957438550795658 -2.935625939962893 0.14144152710865965 -1.0938537284818968
Ni 4.170300008266045 3.4653934373976725 10.068281660130708 -0.8778964895528494 0.6286804885706722 0.7402522247030929
Ni 1.62060580254402 3.358936857253484 13.362963630010368 0.4328022797796869 1.3698081739001828 -1.220432479546111
Ni 6.577658032004347 4.814744195699802 3.832133822654312 -0.04349303818662832 -1.2231640195446611 -0.21732223759737412
Ni 5.195101753066725 6.379391330521283 4.5353393025672695 -2.061527483999895 1.1795943624838263 0.16877132527186417
Ni 6.786977602464129 0.23063903471182054 9.472026292542054 -0.4599729266572078 -0.8671770462528161 0.5022729729769995
Ni 3.508066143769589 7.04841829955012 8.695146591498284 2.5504780288363755 -0.9676842970409593 -0.41871880510342724
Ni 9.230712513318508 4.907136046984822 9.380965852214418 1.18677931026804 1.4284943748874817 0.8813014014693403
Ni 6.038375606447555 3.0553395045542513 13.167356935619749 -0.2489702035199583 2.255622118527896 -0.39933551548080903
Ni 4.922167198173874 8.150702720080634 10.89856792332684 0.36375247616987677 -0.66104347828241 -0.19737407661022136
Ni 8.138270588167092 2.384604876651252 9.751470593187069 -0.6914418880686092 2.3337677137913873 -0.9752140297591011
Ni 8.682610311158902 3.688627612859555 12.95717884435235 -0.7027120616657898 -1.534912591843421 -1.0062832403600799
P 5.467210626745695 5.550698256758297 13.676615528036809 -0.1910784734094967 -0.1819212323902609 0.5847786449813993
P 3.3527630136315136 2.6890560587875663 12.372129284419804 0.5000769937669451 -1.018844107744226 -1.0397973129571254
P 8.588829814195993 5.407592690007093 11.685142810714959 3.871407217647668 1.843695653755954 0.03583089365568023
P 3.247854585763352 7.154752904060439 11.933044212441523 0.1412738911825438 -0.7598879966561494 1.0666334593133628
P 2.416168417600049 8.402666848689133 3.4772429010909645 -0.15532625551055185 1.7426407579944567 2.5993297602317553
P 8.437101508404378 8.085248718398468 1.235515590582992 0.026865714042592442 -0.14505238438836954 -0.2876586212290917
P 3.895761004650767 2.1567356271023583 6.366168233535808 1.848614688324126 -2.4170591149218765 0.5162340631427819
P 1.3489848314005246 0.33006137387821044 9.083147329738242 -1.2387883563454796 -0.4046209322494645 -3.9223094038141744
Ni 0.5777338367227437 7.587081464196501 2.748797847708249 -1.0970305835479817 -0.7495992131356316 -2.0590419985738793
Ni 4.616796507413011 7.853222914556971 13.692518335870968 0.6331961170528385 -2.6088695814013905 -1.4947912983425031
Ni 8.690322924315831 0.5504197392031116 7.419388424479684 -0.3605375687770048 -0.05926598475016891 0.6360850085648594
Ni 7.182516434877173 6.819920406349749 12.529491926222047 -1.31406562892224 -0.5592301070883337 1.5650322940469368
Ni 9.353307408097633 7.310168627091317 10.551518158473037 -1.5385681863181375 -1.1436701377833915 -2.181605200720798
Ni 3.0123102540217954 9.239119449314382 12.937363433493326 -0.13266455224697798 1.0450739879750324 -0.16744900691601486
Ni 2.4408450266057966 6.36554240470665 3.295464490484631 0.42492596235540364 -2.0010926757526053 0.9793321656925327
Ni 0.9547689654779031 9.188752895267669 0.6686751162388311 -0.41651999767989556 0.19665571038695806 -0.7478529198684863
Ni 6.499283995873164 8.87917873650887 0.44836366461926414 1.5189792084426164 -0.6832202714897653 -0.007381380065735675
Ni 7.686435309353103 1.6258695202825084 12.082921303420653 -1.7746471356977243 -0.2780015577553019 0.006012010522034807
Ni 2.3686260686144505 8.151162474392908 10.25538852938889 0.3585413642825825 -0.4881020807932562 -0.9694529589056077
Ni 8.504047365916168 5.505848754458878 2.5815345375322933 0.763970137145323 0.778780462685278 1.74916956025191
Ni 9.090346706958815 5.77750725656664 0.18443184978003108 -0.7036327737078463 1.89229130327647 0.40037732648176205
Ni 3.8302507065222002 4.799225141975276 12.520606470431765 -0.24679505024551043 0.3733408911892602 -1.860021387499171
Ni 2.7213326880574416 1.0295494117804926 4.779161088477979 -0.34686701326844777 -0.23756170457270057 0.9791881839155007
Ni 0.2369132736632059 8.87583848068908 4.573350663177188 0.7960577617084872 0.8388401469813359 2.052530165597291
Ni 7.287509307414935 4.702085623710444 8.47909115122663 -2.2619475465252914 1.799997698647371 -0.12299283348516883
Ni 6.130073134893628 2.23960399620455 8.428610127738903 -2.093283950475885 -0.10855557501391627 -0.10894766824601236
Ni 8.450227963156864 3.982007160537016 5.627436881121533 0.7490309993369875 -1.17725774393085 -0.6549810741384139
Ni 2.2063421791226583 3.1803269983054174 6.231972517701661 -1.2100696482545483 0.38170314711102654 0.5993107771593034
Ni 8.953949800070392 0.5199408431216397 10.440558800890882 1.9183607466700126 -2.0081873778158577 0.2843899777801489
Ni 3.774517224585264 1.0399079579182664 2.7749165840159677 1.7380032592224455 2.120561812355232 1.2432006264805624
Ni 4.423774758186303 0.4756965276210299 7.880803481922901 1.1902199605184727 -1.6800133129712227 -2.2683251679168612
Ni 4.976990554227329 9.19067635718637 4.908549087789485 0.6351835797965126 -0.15197970763582214 0.0395124562723255
P 0.1688518082385694 1.5480303003921343 12.862410344755107 2.3137799578155507 -0.6683312701930747 0.3211058451439438
P 8.69815751310663 1.1421516873234505 3.5465926168640762 -0.9721215068767063 -2.328339086576648 0.8459682733856849
P 7.526281302083479 3.1297258757320345 7.253266055617455 1.826738971296957 -2.039129833030985 -0.7700834491319124
P 2.4603611280247915 2.830219398137937 2.6818510519223513 0.18657055823681418 0.3768409339227187 -1.196137097333856
P 8.17600797273786 3.9437724906897067 1.1879610440340067 -0.2931651528696177 -0.13703234229737044 0.770614381934718
P 8.324198985147282 5.845147436917376 4.822144363579207 0.32518772852280126 1.4697261278437592 -0.4030708141535252
P 5.829056035987773 7.792000529095943 2.984311216404285 -1.4789679581570012 1.0486884447991682 0.36449886741759807
P 5.53957970859411 1.3388514710483541 0.5099557300783253 -0.25685474847435763 -0.777128786014468 1.1995556360971018
Ni 1.5599745297702015 3.9588693210662274 4.239662859876651 -1.5374507848842425 0.7062694399997449 -0.8800407895893617
Ni 2.9811220227156716 7.840406090259689 5.983028693442572 0.3333062438648776 -1.082363211343794 -1.2459023416824415
Ni 3.492237459589856 8.638717848448298 1.743365833565922 -0.081514254625408 -0.9061909656221684 -1.4357361440515597
Ni 1.0898241403937716 8.110263106082622 12.138785205458419 0.255739661033308 1.3339798513476637 2.6923607572475117
Ni 1.5315542070787909 5.83228369891476 12.494486795849939 -0.08066141970680947 -1.0180169838572404 -1.3434535951660538
Ni 2.2952811816950853 6.972981061372853 0.535099599589201 -0.10689027149635139 -0.06437399540069558 0.7471561509117777
Ni 0.40197726933309835 3.112649286990414 7.872207014557476 -0.03950011497715133 -0.44761671908470013 -0.3704381157201685
Ni 7.865214057640372 7.687645682950723 6.265397594478115 1.7618402137410432 1.3782370213938264 -0.8232983425919951
Ni 3.131799461507802 2.2485363657001667 8.43422757481561 -2.0718682038042706 0.3298576231946448 -0.19087021405343257
Ni 5.42621743102474 0.8101884318309948 12.214616518760494 -0.4368389117429058 -0.8062740401198567 -0.36126647652322946
Ni 1.2127192828870357 0.8327117017619065 2.8016677170715902 1.9104808297013032 -0.2426524888320466 0.181607557804584
Ni 4.448151119477912 0.9607739197606707 10.079007071444195 -0.6798228157724421 0.3682303094355723 0.4091920965599146
Ni 0.4289807981234186 1.762088155090663 5.618813203807014 -0.9605073196765458 0.778688160081788 -1.0663074434325117
Ni 6.937814547854396 6.847411837675543 10.108092630477245 2.728154369907353 -0.13255836568641685 1.7690783833606951
Ni 6.045675378997545 7.471110784610553 8.350760586833355 -1.471957331167123 0.985335177353503 -3.2888752026086006
Ni 7.2436543756686 1.534162609095368 5.369388044931199 0.6894017177101289 0.6333922922240447 -0.2838428470274273
Ni 1.156375922780756 4.815926421074223 1.7263239609662488 1.5627895207593472 -0.7495609036985285 0.40788391927145234
Ni 4.959125815236095 4.045791034309287 6.025297003674509 -0.2650977052094402 0.27403717379091513 -0.22045127014465907
Ni 4.426458222131415 6.418536126252073 2.1277279448201645 -0.07110000127061948 -0.3435286929238342 -1.1294069429961582
Ni 5.375222233326549 2.758037971110858 2.018237924489072 -0.3934044947083547 1.0249684754744088 -0.3371050487856775
Ni 2.5700078401316997 5.2048128900708885 7.337172155881636 2.308497626370689 0.582034763687675 2.7031195384259123
Ni 5.157711529915431 5.54029279691519 10.659346495361197 -2.17541141320526 1.3248022986134538 -0.7673575655603172
Ni 3.4890848585914034 4.366530654937607 0.9280356596303075 0.1440159727040552 0.06048057388356035 1.787565386421289
Ni 1.4501683110651573 7.387623154597951 7.952597401743921 -1.2899731067494107 1.6364529118817688 0.3316805353359965
P 5.9680238139285064 2.507143474983977 10.660211584087557 1.2029235241280702 -0.7981570674396771 0.728371928325739
P 5.130435901634172 5.300939072300502 8.107940877668582 -0.5576105692070397 0.8787940616664542 0.19243781565086857
P 2.0201698308747313 4.413782138950135 9.248075275662666 -0.2476525131497993 -1.4392773244355987 0.5826533711082803
P 2.8465172193710107 5.359665648637756 5.3779845122966226 1.2069293028533536 0.8659747984145989 -3.261746978933241
P 6.594181039023024 -0.06543335965181903 6.653205986526202 -1.7989108933410953 0.1824717055770922 1.0172564515421318
P 7.524376605646915 8.61342197853214 11.536583994855718 -0.5910644779901111 1.511144799999862 -1.2285733634856906
P 8.452564265682504 7.160307486772 8.13522776523912 1.043237706097242 -1.4697610948467525 2.54585338558017
P 6.018287157823485 2.6956896567218105 3.9807207867367547 -0.22258322888599733 0.4448849219758338 1.2310156543785962
