# total energy = -381170.0202736583 ev
CRYSTAL
PRIMVEC
9.18982804061663 0.00000000000000 0.00000000000000
0.00000000000000 9.18982804061663 0.00000000000000
0.00000000000000 0.00000000000000 13.45024225949618
PRIMCOORD
 96 1
Ni 7.855336255252597 0.8098177458249662 12.801254777972957 1.0341167176325803 0.11163832770429806 -1.6974176244905994
Ni 5.434469074010817 7.194697905165442 13.312430685622118 1.6551327476794593 -1.7002144705094462 0.002679860825008288
Ni 4.405456471430289 0.8739434461236693 4.666938321396484 1.6487013902318188 1.2951623642598342 -1.160354540417608
Ni 5.134393622678245 4.969794614660064 8.485246577696941 -0.37708236050956345 0.1707436185068866 -0.5333367842613396
Ni 3.3235472192962656 5.6726602240763215 3.347805608077774 0.33781184504471495 -1.2045937127416415 -0.7253763360325248
Ni 1.4030845483892531 6.65782815761242 8.158527058252755 1.4441212827914613 0.5355502469728906 0.3798241849207588
Ni 7.274585079343437 5.934349764153689 0.9967636584156345 -0.8511917265681533 -0.5954515513142132 -0.9349235576701704
Ni 1.2746750827514857 0.5792045278688804 9.638254771561423 2.4356314786074247 0.5619007119419612 -0.4290852359394159
Ni 3.2234699931604833 2.544479556701138 3.19163459125235 1.8760558152542142 -1.353481154605385 0.5688154367839237
Ni 5.082847877830164 3.6005837720133727 6.2510808596229435 0.7173971744817903 -0.20002591241077167 0.3932659122479614
Ni 0.34549893281502686 6.092975384018678 12.604840585668084 0.36875867113521654 -0.8220187045486229 0.026134492303522733
Ni 0.9062521241700944 1.8668675944309905 11.62193702573344 -1.054938796584254 0.45125405872697116 1.5385977540044922
Ni 4.0489279071360915 1.3288766878707552 6.957769437457244 1.2448924123606884 2.856208934186146 0.0010158428590240568
Ni 5.944780218851954 0.1302869474834551 0.1281898287502884 -0.8027876242331529 1.3639843681295543 0.7008292428207802
Ni 7.452123365084224 8.093702012048732 2.0436164739527642 -1.6308931584058042 1.4207023896468887 -1.2161798749173443
Ni 7.15402372675617 5.5026851667202665 4.831811186286919 -0.5630412533043078 -0.6946341697536618 1.42651539678424
Ni 7.849482334862469 7.549452832669538 4.217632930272498 0.563115815295985 0.7129987883037785 0.15780865561277338
Ni 7.378816107702669 3.862668474691644 7.148279165318385 -0.4100027653866681 -0.07656822347404232 0.033196798466942824
Ni 4.6002900133315485 2.457268089664538 9.009873636484295 -0.13330167161034462 0.2421166709332346 0.04099418302417456
Ni 7.96513631933619 4.811747953954538 11.220447228301564 0.6382712175829008 -0.08272627265563817 0.15731757490896775
Ni 1.0189681206552377 1.9786526613470288 2.5115229957857896 -0.9182003313782187 0.1712275001218406 0.6146155258371737
Ni 8.69460648060397 6.171594361942611 6.956344095145612 -0.41927673448942626 0.1047894231032647 -0.9518301036175221
Ni 4.008373196489883 8.323227154378145 1.1037654198951552 0.7177507011664671 -0.49790132627186506 0.11968588059912291
Ni 2.4216666962715148 0.061145439101656644 7.485369405579303 -1.857030423191647 -2.134740674958775 1.21048462430478
P 3.3778223430389596 4.058080975752366 4.851623536316867 0.5749457180513775 0.8044408435658597 1.5298614025727588
Ni 2.0537886944862533 0.5476411448674151 4.610648787371977 -0.19624433388115234 -1.2753784967646875 -1.3971978787670454
P 4.42015100628714 1.7437055205401042 1.5098841336543578 0.48959949127438906 -0.3479021394011815 -0.6738072057059814
Ni 0.10488810105608365 4.111813899647309 5.8080024959029615 0.7125807269297534 0.5354633436860391 -0.3437246109847242
P 8.990041068832907 3.5876169248069827 12.651687571496584 0.6607799402083782 -0.08288645238258628 0.8625986828535145
P 0.2974278619065179 2.1279046567254714 4.767182802400556 -1.444256522817745 -1.1083406092441623 -0.972552680876854
P 5.294967486063969 1.2537038954198185 11.133330416492623 -1.0285119698512932 0.7366992172445119 0.42368694774197996
Ni 0.7674498821285661 5.57919967404869 9.996058883972026 -0.38296941541795976 -0.7785138392874528 1.2971526552169854
Ni 0.4360040341810175 1.8212033394568214 7.313690554125401 -1.6549154894623304 -0.6090699134285962 -0.6681605489431655
Ni 2.5868630431050157 3.9004938064432397 1.496675593973462 0.3484402712928386 -0.131834857256831 -0.2973200555782557
Ni 7.291246237376877 1.490976062692524 8.056385796764348 0.43132389546194744 1.4487700944173825 0.7972222143302334
Ni 0.8711102221734708 4.0450865590621925 8.070279897608671 -0.8228756532322796 1.1322151018689144 -0.09625078950463424
Ni 5.3037621513910524 4.210209387272269 3.906542551185441 0.5789800360217512 -0.3836844392071134 0.16904951863391532
Ni 0.37289472885115 4.3600035824984635 1.360949187339431 0.22203249858884988 -0.013352510047506037 -1.9745028410792187
Ni 3.370589948459633 5.993467927214431 0.796290319114969 0.4414496710420397 -1.0346903307478632 0.5763971057859234
Ni 2.521468227569458 0.2817509344441642 2.069669636128608 -1.0123351029811145 1.2052298036637437 0.9356475803203885
Ni 0.9365996929366869 8.25790585746601 5.933870055135848 -0.4219046590305766 -0.713205762108262 -0.009802845023034731
Ni 2.9771642250345667 4.131691497455545 7.199511537034121 1.1486704192114605 -0.10742557517453112 0.6378315589423208
Ni 2.2418952823442266 7.80039027407116 10.547881400546673 -1.8831757141284469 -0.03415170618104441 0.3593453482411166
Ni 3.99026004564382 7.051410108112264 7.529405223044633 -0.8427507948896518 0.3543180702298543 1.1010448469136973
Ni 4.570717147059286 0.034516074714727694 9.345147047763852 0.05545098187945289 1.0953056304370747 -0.29546449042675565
Ni 2.264143855757884 3.7997365330407864 10.140191226211787 1.0731028690877906 -1.6862094144796056 0.039881923796602284
Ni 5.038819412227177 4.213030664446162 1.6393017234158254 -0.36280605309620745 -0.11293673480074744 -1.0739148234661249
Ni 6.278692616615374 2.7178089012509075 0.04747648904156826 0.5019089047693615 -1.2436320575910258 2.018673364948846
Ni 1.536768975257685 3.9955441967024132 3.7881527549375584 0.049148436700192775 -0.6623503700192915 -0.05430426986951938
Ni 7.593582386379733 5.410869595891745 8.927881072728 -0.19828604690152948 0.5054038052964973 0.6346860713348037
Ni 6.7183799338299295 8.816436029445299 11.004274905951519 -2.168184813549834 0.22229757932477842 0.07321807605488681
Ni 8.158104326168068 0.33793662341308606 6.126974990403854 -0.9443643913680962 0.010744125890381496 -1.105279196710019
Ni 6.147204558621731 2.1134490573947473 3.002457388440766 -1.1878319199022704 -0.4237597099614444 -1.143653168502527
Ni 7.476228283739334 4.031209918890932 2.1906546397833546 -1.4752815104443495 -0.6584255810435887 0.6100230213704849
Ni 2.096172180890131 6.02388625765607 6.136632580573375 0.1437002412358493 -0.396810177955794 -1.739403739114398
Ni 9.118983544490497 5.329493669589416 3.3630175302469714 -2.3023627171175445 0.6225165258518053 -1.4799789159200187
P 0.6865876672074127 8.8995764027098 12.146590735021785 -1.2233702220181963 -0.0076582878762061655 -2.0939467808708647
Ni 5.935691479031174 4.860307004726023 12.730842316388717 0.6892471944101355 0.4169419157086625 1.2018441750209625
P 6.281394426026203 7.603351173467184 9.240463879870562 0.5487379493077582 -0.35713368530177847 -1.8721909329821693
Ni 4.287725585844843 7.130212882594755 10.00829789680652 1.3462334719040363 -1.7784942773579564 1.701887744446811
P 2.9563492647776752 5.682824173764675 9.388403567820887 -0.48882430367126134 -0.614279996874626 -1.0917240837334037
P 4.056619793111817 5.9769262369440534 12.284738661314842 -0.22546774952264395 -0.5781451988252817 -2.410605131766416
P 0.37199963961096405 6.492098800759097 4.8901721075263955 0.38030369566033856 0.4411673639149305 2.0370158720117755
Ni 7.588160387902221 3.1713177196691555 4.465695793498246 -0.32162135132778163 -0.6578475970529315 0.5525102718659969
Ni 8.450478701696985 2.153443188537348 0.99748781685636 -0.2612168820977953 1.7530452411572326 0.4562121740631949
Ni 6.290336128600135 6.693769574638779 7.0936713698046985 1.198446205083007 -0.0628740138164014 0.5445365096319008
Ni 8.752438067754793 7.479297686267282 10.373754378932755 -0.17083514977942837 0.20746437096668782 0.06423232761650874
Ni 7.861640477211196 7.616125034287086 12.573286392494545 0.12296969355671725 0.183271061549936 2.079246755656529
Ni 6.39660729875938 6.454346987630925 11.111298723018066 -0.3328496159434332 0.30628677785324027 -0.8371753576844033
Ni 7.197850016144741 2.58656896861132 11.35498998509847 -0.5929431830700627 -0.4945046418854903 -0.4251049111354291
Ni 5.575716729263982 8.977855357000395 2.7262561910823133 -0.720661961275991 0.6529653292599658 0.6292548730169033
Ni 2.65501480701897 1.936379452878287 -0.00427235100372132 -1.0194192635214057 -1.6003510239528889 1.2298185487467013
Ni 8.375783780298304 0.6981751212418119 10.035198361117322 -1.2333895539274113 -0.6313878601995061 0.31982517865930726
Ni 3.517379069953375 7.872355816575229 3.841752426327545 0.5706879712162881 0.8608716728600787 0.19499452063445127
Ni 2.0885630033657576 7.874074314397762 13.226765866625799 -0.25572089198023057 -1.3734267444893766 1.1224094286324025
Ni 8.084365146873898 0.662413824842842 3.455865118751806 -0.09943407232862231 1.4365329289212418 0.516694290608652
Ni 3.0201726197375476 1.3693854493773234 11.013166064471847 1.3972757831928324 0.7686832263502762 -0.43749274327682075
Ni 5.078473519736442 4.141892206455611 10.70534358819598 -0.3156862167902692 0.1890619572001002 0.006019723831518665
Ni 2.115103226421785 2.434146482597722 5.6307288772065 1.9406573532846834 1.86157947601491 2.055936877285995
Ni 4.250497592908566 3.218020425199187 12.695724307944706 -0.33345871028234186 0.4866175258279297 -0.6882166962630921
Ni 9.099804373604787 7.0272224810058 1.4715101691754613 4.316375186255612 -1.985148493718523 -1.711051156113634
Ni 9.355520525528965 8.477735731331396 8.181445570122364 -2.0122985717707538 0.6715263800916048 -0.6175350134768139
Ni 5.899428418027337 9.167257710596216 7.218879099392355 -0.2848787444911094 -1.4962200603692295 0.1576196795304189
Ni 2.007582239664333 4.2607993900158405 12.642864417702924 -0.17280538613192173 0.0650180567425977 -0.39126507976784874
Ni 9.09266387730474 2.7636201934719242 9.73613287187404 -0.6761420244867452 1.880508194598613 -0.7447825084732785
Ni 4.5538446229835 6.001481457167636 5.556860121338545 0.047394430123563536 -0.3672769443833675 -1.1088669140612775
Ni 5.919388724286925 8.09275545977215 5.091682978400131 -1.0766561336566878 -0.15015808104605108 -0.3469678005123702
Ni 5.86662992215235 6.291337819844285 2.9378823055563843 -0.2735116403047483 0.8407358213421521 0.11807996956458373
P 6.291981107799245 1.7993774981278516 5.820619210665296 0.22422899201953644 -0.24009089875245748 0.11740068410937199
Ni 0.38268005762887086 0.18260739482586547 0.7655972128182839 0.48750841307331527 -0.3378056743971279 1.3857646972294393
P 3.804359016488564 8.525458507761435 5.94185969153644 -0.33722306242078054 -1.1294305971452419 0.39737530643064467
Ni 3.885992257972876 8.735253089529458 12.15486249913977 1.6219153803872262 0.0553854187488401 -0.653897354155932
P 2.1962126477142014 2.1220323566794876 8.264205484510645 2.3197685712988174 1.2901985924966555 1.10472126732402
P 2.224195673754923 7.127382415592934 2.169174335984477 -1.2241029864191628 1.2103007904287477 -0.290840361391183
P 6.669839262714301 3.285547280814038 9.332020297551514 0.4761438799901155 0.7922679556487517 -0.9695820282843043
Ni 0.653167019981701 8.290217292460815 3.2635937008768687 1.1975558320582536 -0.012960416815409936 0.23356363915690098
