# total energy = -381171.69580414344 ev
CRYSTAL
PRIMVEC
9.26522715423698 0.00000000000000 0.00000000000000
0.00000000000000 9.26522715423698 0.00000000000000
0.00000000000000 0.00000000000000 13.56059648373739
PRIMCOORD
 96 1
Ni 8.380694501739029 2.0235812147572605 3.065047418377505 0.8697910868368954 0.4448908355131047 0.4584240941128492
Ni 3.9847889199143 6.721088472830711 2.5453784279128353 2.3943537029045605 -1.339673045077699 0.17190138626041362
Ni 4.935141805641257 8.625185317444707 11.21194225009233 -0.555091916550244 -1.0371488195906848 -0.19812869538805877
Ni 5.227135441269742 5.017176127388191 9.26249767740535 -0.756504167785581 -0.7494691153156705 0.3815018297334978
Ni 5.93341444651562 4.636347493238178 3.2321819255562674 -0.523522112163763 1.5389263409885043 0.36638759979987867
Ni 2.5677187437696465 1.4347482296677108 6.7434000664831615 -0.22004555006580814 -1.1860324047996864 -0.2328794686056828
Ni 0.5981028449164987 1.2526216583350394 1.2949730119272274 -1.079357591748251 0.7059894468654809 0.39641731339274955
Ni 7.643951429415681 2.8415340036055543 7.966240504986354 0.1510818784119011 0.6996272520928789 -0.012519729733565535
Ni 6.376764833901268 2.92559741011221 10.208973065543525 -0.00609171472003467 0.4278004556897213 -0.2645950545414088
Ni 0.010614244295605056 0.054093176039656944 10.056281194544919 -0.5008213281321375 -0.3177734383366011 -0.9850685539556776
Ni 5.904923872834592 1.8613563514788483 3.3188201387055107 0.20719594779664963 0.7760183265591087 -0.8286202690255406
Ni 7.320520877852324 0.9443675489471376 5.091149701459516 -1.6082797918816625 -0.26421864503859654 -0.026537384168896234
Ni 2.291596442357616 7.433917993716422 3.5882427543195727 -1.8889488691667986 0.14408899203383574 1.2667953830813667
Ni 3.5611919969474988 7.43138858668718 0.5065262656625437 0.4375174258671691 0.04587130861081777 -1.6039014603083086
Ni 6.622784412097148 7.027341293140531 2.194999962999472 -1.5826731470571516 -0.08706372368872747 1.4798403334596255
Ni 4.901342256766983 2.551847409553191 12.338461386485614 -1.941567523803779 0.12359472873522585 -1.5365616974110698
Ni 3.2995883065787757 3.909870292667213 10.649679157082483 0.7893502677813244 -0.8075138260642285 -1.4836095706940706
Ni 6.6475781601200525 5.578269022200992 5.735522164556725 0.8635921571150353 -1.1835795723838196 -0.7413212893975556
Ni 4.0133999415491015 4.204106113281328 1.9139152058919757 -0.7294101397822664 -0.02204283873265236 -0.4806363685438303
Ni 5.216026433840945 8.932726004337182 3.695425682291682 0.5785943705475585 -0.7258777011489757 1.9210105255880334
Ni 4.343167908526384 7.557303024516503 5.375569940363816 0.057950351262538904 -0.48334965370993527 -1.2886579874824131
Ni 4.681098540678621 6.372048833249676 7.310937853345564 -0.6244065437856666 -1.5900483564753003 -0.34337725494763444
Ni 7.167097980426588 0.28951981996252335 11.095429238316385 -0.39990115817629196 -1.4727062935180055 -0.42529954364473854
Ni 7.867669605709047 4.958332669356253 12.736438103162081 0.13411285465773032 -0.10516788948860598 -0.0015953695115778976
P 4.805586133517091 6.464821553336874 12.057974236533381 -1.079991625787824 1.8749265867457772 1.439237729446915
Ni 6.86370811532569 7.466828080778214 6.7837019518157575 -0.09253374566436322 1.995721384138363 1.2317412196907112
P 8.471271362976664 4.229502101073099 6.320878836395829 -0.4269684467067291 0.40699611734986035 0.008634792856862548
Ni 1.2709668082174572 3.123641641797404 2.475405578952231 -0.35079025958225396 1.2206165705324592 0.07751850320245358
P 7.007643420084965 8.193008794078352 9.250794768912177 -0.9137955174423037 -0.12392665815334784 0.4343919928643099
P 8.352000093059306 2.0783201771336874 10.11487634448754 -0.35231440953626425 -1.438132412197878 -0.21508820606053283
P 2.8612226114339068 4.9434897753604785 8.631442125381879 0.6513239370018008 -0.8913058209802198 -0.43522400184730214
Ni 1.962634550147894 8.262062532499392 6.0103139793409195 -0.7115247748614133 0.7525459544687814 0.7945001874133801
Ni 0.8698880934699633 8.370122877488605 1.9200580515344217 -0.19288313071840332 -2.1298468372015837 0.3571457694866365
Ni 1.9829068672906873 2.53069489582513 12.130414415500898 0.1605880181301234 0.3709795900459353 -1.4995007880030304
Ni 1.7150862094618118 2.396886484410039 4.670513945110099 -0.056225141041316075 0.1814934008242229 0.38027104265019024
Ni 0.015392321969525731 6.2837790135881635 6.249346649695219 0.6890191375597294 -1.667205619683593 0.6185675685063863
Ni 8.271735429710121 6.620671940292506 0.8434784898210522 0.9158215467333969 -0.7145661327908983 -0.2682228811019832
Ni 2.152970112791587 6.9545907290613656 7.95025242890701 0.4660070486664297 -0.8559220421642871 0.5494380606985764
Ni 8.285772248938336 8.876208118335793 0.16110562383104032 -0.40680868392940267 -0.7631131884616663 -0.2832468653146412
Ni 0.4982209159885036 4.58842773809077 4.331159247535171 -0.6740180361652068 -0.2766540425884719 1.6044228800294174
Ni 3.339530701095495 0.0799422334421609 2.0816056267035385 -2.640495692947104 -0.40130420917140563 -0.2395872196431616
Ni 0.9814006621188671 3.226911864317318 7.0240502844343515 -0.18337159168354225 1.0580423752102424 0.7139536960178801
Ni 3.557282071063468 6.390792387902267 10.316658168830594 -1.2400844494490837 0.7511945826472095 -0.105867743769108
Ni 9.190151077232688 1.2246221416963186 12.171042436831403 1.0252307279968602 -0.3192019432530116 -0.43433491437412935
Ni 9.230528937428433 3.1752489573757208 13.412568985578465 0.19914916623277315 0.6164091274024868 0.9672035007497989
Ni 3.017202711570526 0.2172213989713699 4.484679429846648 0.770920343210911 1.136151203698527 0.16033733557189805
Ni 1.5518051102810786 5.174888825013705 11.46186341546775 -0.8718448840421308 0.9481228299692639 0.8033625229000164
Ni 0.3562563250575074 5.297847655361971 9.014623200721358 1.7054484652148758 1.5078226776051644 -1.689459545985787
Ni 5.517118522592933 0.8606108214612436 9.287137622656514 -0.39962759279993104 0.5450628144490162 -0.7835912538103602
Ni 5.374443288734673 3.8429846174140945 7.095527806294403 0.31108342791093524 -0.34335180102633767 -0.2727593355197561
Ni 3.3758040656357307 2.120161943229142 3.057059865996883 0.6098846960204077 0.7480184989120731 0.09221904263742182
Ni 8.782545936436115 6.691495337111295 3.525728413265709 -0.5338772301458419 1.0990123898647008 0.5647924316674595
Ni 8.266667350424424 4.526332185306949 2.514093461704263 -0.9628243978454967 -0.47463232844159553 -1.0047868583202115
Ni 2.7059188728838617 4.813433780966791 3.834679267740054 -0.6210229720254143 -0.9805148731467244 -2.0581038030303263
Ni 3.574700698224552 2.52745206630046 8.64657502098943 0.4614407694519859 0.7724928299043535 -0.8613457842830198
Ni 3.534545203481926 4.599073484158901 12.815035025612865 -0.41573349722285824 0.4914514568814633 1.6089603628884548
P 1.663756850699895 4.477115298349675 0.35151901438332533 -0.1643577695852008 0.11811519367789335 -0.20668301271597306
Ni 4.843582830319007 2.0977308281456395 1.0214774024301796 0.40580543947586883 0.48780486126781153 0.7250989140014222
P 3.645802051859741 1.4817970534570635 10.560165017406218 0.6055639571578668 -0.10571373468974697 0.665606415062744
Ni 8.873623119943272 8.305720283128663 5.5019272560539365 -1.2026759268936384 0.5494812552316859 -0.2431253147034071
P 1.1362782002170988 7.399590326890989 9.831988574164326 1.3391539393494356 -0.8473327578333794 1.5928038077332505
P 1.2754882390975684 9.129463838985295 13.455705103915625 1.2089586745785565 -0.20805109670809332 -1.4621971664565656
P 0.720322310133141 0.46049013120760934 7.928609784659363 1.2844061541845944 -0.22388652107845314 0.08957620569793605
Ni 4.510988969041655 2.067618839702277 5.331660175554343 0.4069909751435377 -0.1594482480987254 -0.25596694655276564
Ni 9.215648982523806 7.415767413605484 11.692732494124371 -0.0007746733824954401 -0.03602861148878311 -0.4369690095628668
Ni 4.722912511092436 9.193430967666211 6.8657705549033805 -0.5877102168058975 0.46661537167438993 0.6882215813590986
Ni 0.016997059322876634 1.3038861605064627 6.159263625068055 0.7234215262989993 0.3823171265459416 -0.4666536811114931
Ni 0.9560324700087356 5.584995577157879 2.1004687027871825 1.9117496691113975 0.5752483368934609 -0.7792388903789353
Ni 1.2614050937332877 7.003251702385841 13.552500785658856 0.44791059617603507 -1.302088659066022 0.023844667828081516
Ni 7.614182254379212 0.4367581782233541 7.832017011392105 0.20644955654892833 0.12537161812999054 -0.47445569365441514
Ni 6.916167831807636 7.204075502235037 12.33398628174157 -0.7784001965277239 0.06385411834148358 0.12594291725242823
Ni 7.275982930637787 5.488915170955519 8.332756216137195 0.4190695035746267 0.18446328208582424 -0.3338376908883154
Ni 2.107218420812102 9.256786591351046 11.258061771592185 0.17237369791114185 -1.1645940324202524 0.9704076095093934
Ni 7.4090593891030245 3.4928424157946716 4.534229864983603 0.19021638251951759 -0.4032970712317183 1.4118030302747298
Ni 5.6218711814669815 4.614972614056996 11.743584693684802 1.5312773090836789 -0.1557479164290027 -1.1441442492063327
Ni 2.8719146836381038 9.204206426915327 8.75051697248231 -0.5749822277162678 0.702080598729378 0.0318305142470355
Ni 2.5340025819402934 6.01077909374703 5.72902631375745 -1.1367654402437584 0.3764385562779775 0.9734947330751492
Ni 0.7040766607372664 0.2844684180858091 3.8712380012784604 0.1061600781985462 0.6354080371024928 0.14034160917626154
Ni 7.059482366343615 2.0998618304047083 12.4422949348201 0.5502749547775749 1.558183903666536 -0.05915671286581425
Ni 8.964959729812401 7.63690985673354 8.30676076814472 -0.754560928016281 0.15662723371016252 -1.3771417314471186
Ni 3.1169521477493705 3.7568921261477164 6.170112279612157 -0.3454930157390566 0.34813302446506494 0.7918740626444426
Ni 4.811580735524123 7.9125688967849035 8.92780894825506 1.0610284544217599 -0.8722606314233106 0.07500242164881922
Ni 3.873884150170591 0.591678336366767 12.913443783413939 -2.86383148372841 -0.3891259219376588 0.9612426551806736
Ni 8.997332433695819 3.9765336024672115 10.553276320973097 0.38511680077826577 -1.7082131724442065 2.1933703116765257
Ni 2.5150922531978614 2.3692390464054256 0.6320784331078253 1.2481553993826764 0.1540252773109412 1.5302961761173322
Ni 4.53320698389925 5.227163236951382 4.922550361858324 0.9796227003497578 -0.2461831276931244 0.9196861718951258
Ni 7.752595483719333 9.020310197184909 2.8655031464064713 0.15698718815274254 -0.23869478973587924 0.03691538496911062
Ni 1.51227965098896 1.8485888683788625 9.914437051567697 -0.600031971596044 1.3534104492684498 -1.4934080448417313
P 7.472461338923926 5.4055651869442904 10.660391612786547 -1.061026397539231 0.7090873690645143 -0.7332048309380083
Ni 5.4978097890803275 5.462740904077826 0.488109773530583 0.7650695408570888 0.47619787315650247 0.6934838581993025
P 5.88274291888585 0.21996205318107662 13.074055570634508 2.441326729219989 0.09961764909433811 -0.4948005758593543
Ni 7.330165979381413 1.5511472791489316 1.0432766290177318 -0.3652501437613258 0.2983888631624022 0.9086057457112481
P 5.977303827825223 1.6297071406908616 6.873093790492807 0.6762968048970546 1.0808645153110803 0.34344127541635044
P 6.4865114502433086 3.5400580136738644 1.6008422518304148 -0.06808821102748919 -0.6592568186956324 -1.1165830517586126
P 6.890679191743731 7.623447481592555 4.603320664313498 -0.10150792413851549 0.23174226967744604 -0.886451321101396
Ni 5.383449089586042 9.130677583750241 1.5578682749694899 2.475971315877052 -1.046076718207934 -2.1734198366965276
