# total energy = -340884.0341326761 ev
CRYSTAL
PRIMVEC
9.13913385830257 0.00000000000000 0.00000000000000

0.00000000000000 9.13913385830257 0.00000000000000

0.00000000000000 0.00000000000000 13.37604619943395

PRIMCOORD
 96 1
Ni 5.45340339650091 2.7384774721643583 9.762975653204093 -0.4728302422358502 -0.047838973860149875 -0.7459261351594186
Ni 4.503006593354113 0.2293502186099907 6.20265974536837 0.7887357741257771 -0.8063853688867402 1.6644630239414497
Ni 3.637411812828277 3.0321726762754966 3.40638364925081 0.5480092986718498 1.1784479075842091 1.124753760494863
Ni 5.137893079985823 4.921021434679709 3.057135306363534 0.6489744629330177 0.0744789450451814 0.91552381298732
Ni 5.131422573248498 5.065821870761886 12.278287358607537 -0.9290724982060322 -1.913068130812505 -1.2890056006298187
Ni 5.826133829799039 5.950645388823501 5.206960255926485 0.8553407157395204 0.6366776478435358 0.792306522196171
Ni 3.3889461819417472 3.134649783684577 7.675830538962146 -0.6666723944334132 0.06998259983672463 -0.19468650247572922
Ni 5.612113594241576 8.109683499180093 12.630264646850415 -1.0161675893533275 0.11712634740206279 1.9147025810921345
Ni 2.361506480778491 5.087198304742965 12.215580105885103 -0.14332743127746284 -0.3269319649074176 0.30116745434880393
Ni 8.453963808928373 7.858905667439689 10.051844480750285 0.469090829798076 -2.1222127176950933 -0.8441792998060622
Ni 7.864343452056509 -0.416976635724805 7.793392700637652 0.05076540347832547 0.8308453017013174 -0.09002306342736754
Ni 8.1641618758202 2.7393274116086683 1.9221645567943888 1.867801802775538 -0.649730881483068 -1.0960666769728158
Ni 1.7993949166740701 1.6112384297982887 2.696129467829974 -1.2703905566317928 -0.8575950589913359 0.3551698767071883
Ni 1.6885920583642793 6.6669615577003665 0.8188618197895177 1.0016326289619462 0.7624251612557063 0.5501908797042009
Ni 7.537820479300636 4.183932014653211 4.033653581765449 -0.5851421989684051 0.1107466691279641 0.689991785885644
Ni 7.513035148408509 4.051314043939471 12.773093771769824 0.1691680464896506 0.9717101303709008 2.138678833670917
Ni 4.5027781150088675 0.39295899207269913 11.165025707490148 -0.3610967837145846 0.8813445960024499 -1.5703619337899664
Ni 0.38062298925625604 9.207585922016765 0.6704276641045704 0.8642645005917116 0.25424405032438796 1.3042692116571086
Ni 3.0758485967524427 4.165233346878398 10.15722143531721 0.7759393936920572 1.791590448420282 -2.861010983560479
Ni 9.288467256233332 4.87491450460936 2.076724673872033 -0.13894884259379295 1.621770884389562 0.35601396987503847
Ni 6.632772058117974 2.2387222180440767 7.385945439736306 0.030394553131457332 -1.0529114817415803 1.2767802622082205
Ni 3.6184663884405994 4.830123609807622 1.3556753475950827 -1.2371533918452176 1.429434627313564 -1.249654609636022
Ni 0.31376200021727557 0.38316549628213725 5.909363007491338 -0.9792804865189909 0.24565579443474467 0.3557499175803744
Ni 6.42251714569014 1.2035233922763162 1.046390609031219 0.8207274965410253 -1.8630239217709206 -1.4972343605663567
P 0.3106848538635221 5.71859364225934 12.901169592980102 -1.79406976319871 -0.23480239666000854 0.6335298462431734
P 3.7796441523099062 6.410316402054082 13.19501467888572 -0.3610188792887976 1.827614431923375 0.33181911779638984
P 2.197669228970538 8.662217251051864 1.8451052083370731 -0.16061372916173627 0.37495760085707686 0.31759166134309824
P 6.247457037563776 7.814626564131298 6.660080703854981 -0.7227023887447875 0.7328821574912668 -0.9363363788572971
P 4.628651404970989 1.2305295326842207 13.180675377938174 -0.725330313285938 0.08507934626884701 -0.24064420015276616
P 3.934872340069045 5.924498326993717 8.900367541607293 -2.3776345903776663 0.10258315948056525 0.5441295040014693
P 4.869741754873024 1.2278426273441447 4.362905499876923 0.6491701238835916 -0.050708067877828805 -2.1967047753663973
P 0.33479663059386866 6.34095037643784 3.7170027013509017 0.4201424249238313 -1.3491796990165539 0.8563303333462995
Ni 2.7645971165927143 1.5720863805571845 5.161776378370925 -1.1840251445616705 1.1960419665168884 0.8134047376273668
Ni 1.961943550614844 6.840056752057627 5.324214428792601 0.8837840586818778 -1.006255472445938 -0.20448857616781554
Ni 7.297351590497665 0.8470112658370257 9.968846523143373 -0.555927525077662 0.4884401808589653 -0.7872738448682699
Ni 8.436014550125963 2.6566182506301455 10.998359893768068 0.7031049262288342 -0.1446579771634283 0.11286191569875402
Ni 3.7420274775488456 4.699516248532034 5.5592720364668 -1.0430387027125585 -0.048125137642000985 0.2563893788021649
Ni 1.8200767764856056 6.363825628363724 9.996641370799063 0.5090629993156395 -0.23909356783619468 -0.6029180348945875
Ni 1.0572881121860023 0.9309304481319632 12.031165180391046 -0.24638650195318212 1.2167216063534272 -1.5315701577337493
Ni 4.082688690308451 7.294344815474246 1.900201390422722 -0.6287131415808205 0.6567885596607979 0.3686033765042748
Ni 5.511153583044919 8.648791863485295 8.689012277468763 -0.23018340983075838 -0.5253249697004565 -0.76288050362557
Ni 7.04449917538244 0.5247325068224147 5.509365968471727 -0.5731210061378129 0.7923165494985 -0.11625191521690946
Ni 7.964215906329802 7.416717817187221 5.219707519764368 0.24350763774349035 -0.2173957711477869 0.5541838029136777
Ni 5.138194671401546 4.612484277261485 7.636264486959459 0.9888514180368777 -0.09907951720268098 -0.006054176613879896
Ni 0.702146855818179 7.349252731403414 7.321151722765098 -0.7950707152048694 1.3224188859829418 0.010433793738814288
Ni 6.172132296703556 2.3576863228460025 11.990622154984093 0.5115986212532996 -1.6132178526132284 0.4535392552167221
Ni 0.7408785049040331 8.345518847141506 4.025427447423265 1.843564270384412 1.2262817392380365 -1.7106171539000086
Ni 7.224403024427989 6.121327851854981 7.50468380793313 0.8919174864222899 -0.37787606005545243 -0.2154317054428806
Ni 2.637535739235322 5.2423442402978155 3.5042701697472367 -1.7428515884536822 0.87904140179057 -0.0209981995182219
Ni 1.5946691802011548 1.4247269870082677 7.502276560087633 -0.009634437765970503 2.211991783432455 -0.9521766883236635
Ni 0.7631505739984705 3.6678359892810395 4.233799698286283 1.4672537550438667 -0.8083414641718465 -1.3533744538241919
Ni 0.5682695124654518 7.617367499980975 11.965154130796376 0.25377148156334356 -0.4821924001770405 0.9202011638583314
Ni 2.014676352697283 5.5087408517191365 7.525216699863567 0.44218886320090944 -2.185798412866539 0.39183997843471224
Ni 6.293499993697456 2.2757539882413114 3.0000065809185896 -1.634838001986165 0.2847702439377031 2.5349544792794796
Ni 3.9561482435782165 6.884801951190318 6.965843220248556 0.8150314745975125 0.6972153002172766 -0.7628848745009442
Ni 8.198872306029752 7.353438454688295 0.7975731214930126 -0.270741790869095 -0.7663363233846544 -0.05225741464281968
P 0.021857152419473436 5.840637635155161 8.720914251858567 -0.14223034155854214 -0.6880590876393053 -0.11323755387061789
P 8.535960117469733 1.9880449167755798 8.400103237733807 1.0570908099302503 -0.5384499371181888 0.44511760681193013
P 1.79312547088056 2.9287450989501997 11.40669090890882 -1.2545751868660908 -0.15498712700357822 0.5324438401334249
P 4.033364785137061 6.679025214329278 4.237638134486391 0.190937062735626 0.30621838650915006 -0.17788305776514526
P 6.56476776343939 4.3994236507540485 10.909824534985809 1.1091949868246576 -0.27647792202192384 -1.6126617229994418
P 6.417243865481897 7.988452889193342 10.526627051735339 -1.0612811938625142 0.4592015957088221 1.5128615255806528
P 2.3528243036591987 8.78619874031536 6.24480760267232 -0.2713328874858747 -0.37215047042558486 0.44659907645346314
P 6.9805617952492085 4.5525498377369376 2.018606180235489 -0.4906060781620325 -0.11622980372972241 -1.715704338614929
Ni 2.6984115095422765 2.4143763698680774 0.3399785194640148 -0.4463717909340055 -0.459281557017138 0.10959944289739834
Ni 0.848418692443732 3.6494663303233783 9.391442446435045 0.1630043408810999 -0.45342612667762555 -1.242306653911383
Ni 0.8202482263884615 0.208047811612771 9.166055870158356 -1.1880494352297153 -0.010621998490220415 0.9016506545496537
Ni 2.6604292694288243 1.7457390620768427 9.617524510794658 0.6205108082756862 -0.3768705016090735 1.1781062079740743
Ni 4.99459146184845 3.293579320636677 0.7789905207175839 2.0412057417234073 -0.8986514627120136 -0.3837286621814875
Ni 4.086134143754738 7.095742298653885 11.047156470918633 -0.7752536804789423 -0.22811032935181358 -0.8812512649576953
Ni 7.225783033633266 6.465151204912771 12.116878374652845 0.5589442004167987 -0.4837908550124119 -1.1186862141445444
Ni 7.456829475478352 3.968294152411416 8.844094239086944 0.683377623003236 1.0061444007893705 0.6765785978035315
Ni 2.8554858023309913 8.786546027400131 12.952212569221112 0.878237674942352 -0.5808302018566126 0.5721383305095694
Ni 8.903161374812944 5.179247660475085 10.848722114160374 -0.4794269216167614 0.1528302285615755 0.009708485537015537
Ni 8.594386599915666 2.866681241247973 5.98492445191723 0.014313331298878575 -2.6809915961786213 0.8713142083496414
Ni 3.914345845532276 2.848494364966508 11.669249084130032 0.8811944435778308 -0.9221742284243022 1.071642225381864
Ni 0.6202410247015362 3.663312118045198 13.43155648189063 0.5580749104379679 -1.3983481903214046 -0.5672457783039586
Ni 3.016179192108379 8.693180636399404 8.439736919326686 0.26232528467062566 -0.3233051667881077 0.20507350213700812
Ni 5.825804820981888 8.327597005740524 3.840891885362919 -1.9514549581208198 -0.6985538165230422 0.22190625742363074
Ni 3.307836369379936 8.912602100038448 3.7974864832467423 -0.24629291379811133 -1.7885562895796487 0.00973188257578324
Ni 5.141841185791648 2.7199524479319312 5.77093437550134 -0.7317989517294171 1.14031176283412 -0.3734100538642988
Ni 5.915414027986794 6.134140917456294 9.506783798594773 1.0183633114530657 -0.26050828606654486 1.0334014367331106
Ni 7.895334254805478 8.975095497029734 3.1954040035118614 -0.8333711534469648 0.5493285317039055 -2.28035587382915
Ni 4.191087956426269 1.346121297110337 2.058694076778715 0.06903669098368756 -1.9787233069184693 -0.8676053920394865
Ni 5.848314507555379 6.074791382495574 0.7555541259757802 1.2687306524308666 0.09803796331204406 1.8382040345137634
Ni 7.761610448900756 8.938922805410618 12.156030423893949 0.1955442224903342 1.0150085360482197 0.4411755914450467
Ni 8.81461230732997 5.119477725359113 5.850107605608858 1.3537716892626104 1.9528538953508756 0.3363329465063434
Ni 7.458383128226014 6.578284542344057 2.944201202049302 -0.7821012995283949 -0.9637530803073531 0.1041157940750078
P 8.854203034993944 1.4682384030766373 4.005724388842757 0.6286519493255819 1.6482578749364967 0.6211733815603495
P 1.9976775638110895 3.713687023604713 2.106780543232261 -1.3803424977726035 -1.3010460767341205 -0.9390838596954473
P 4.49849186125208 1.3708517931996056 8.297682792954348 -0.15358407600846452 0.3760220375658492 0.1897348148974087
P 8.264107443163972 1.672836191676216 13.14710185597456 -0.2366980710208246 1.5400725387778058 -0.04589881941464353
P 6.232432301580494 8.110816751772507 1.6394884063177042 0.5781364570745334 0.23669061482165688 -0.033520757465264846
P 1.7445326964139518 3.4161168267582274 6.188267437444726 0.12920359028157102 0.6351061895913578 0.28724724472328594
P 6.836337124597048 4.177278725239689 6.280147719201364 0.07017723234603397 0.19724577856247322 -0.22565723982563074
P 2.0673269025754344 8.383464530719719 10.685254083358336 1.4369350494556674 1.3570251632029016 0.013817879719698781
