# total energy = -340862.61655598215 ev
CRYSTAL
PRIMVEC
9.29770676636455 0.00000000000000 0.00000000000000

0.00000000000000 9.29770676636455 0.00000000000000

0.00000000000000 0.00000000000000 13.60813367917531

PRIMCOORD
 96 1
Ni 0.6311729477630135 2.717654532686176 9.700666334248288 -0.16837074739933586 1.6707079764098969 -2.5712291453407974
Ni 6.828096204790183 6.589610032478838 1.7525507360720536 -0.42989461921458866 0.9368747678592704 -0.027726776491307087
Ni 8.443377461300043 8.826210527378786 8.824193854833977 -0.2501487972090918 -0.8896741989140678 0.6761050006012228
Ni 0.8016873067683433 7.300745115879748 0.6568160223530601 -0.2719720637317703 1.5022382415388515 -1.0905164365785478
Ni 7.942993491652792 6.0922013289188985 4.216004112881946 -0.406565457570345 -4.116045626561492 0.1882536023661919
Ni 5.266537096569405 4.806449386992226 9.980191653380885 1.1149570861194154 -3.0366265854476864 -3.13244774361407
Ni 1.525307350488149 3.018993201092053 0.5616651533394204 -0.5340145270546545 -0.743583603069171 1.1782959553873773
Ni 2.8068102405338755 0.8142280533263762 9.282583803200083 -1.0127220540068882 1.755291356878932 -1.0683342440545538
Ni 9.007320552737564 2.39118416354901 3.976541681385699 -0.3877202998393839 -0.40728433801424047 0.15981745851268603
Ni 6.215144902270671 0.3192042114895514 9.467559814931068 1.7669094007338346 0.3475468129442918 -1.1270142743942655
Ni 7.136501130153434 8.042599821632185 4.266353983015187 0.13258484804897813 4.563073305911941 -0.3193814062536693
Ni 0.1901418174750862 6.3591942694293335 6.027478134271969 -0.6289360562249039 0.05921816223136898 3.3325608164220086
Ni 9.176873528888432 1.14335756652908 13.017853719400186 -1.8739670510459856 1.187637287392961 0.22835124171802612
Ni 5.11522622061639 8.218400856566412 12.109428741749417 -0.5427956156813942 -2.000082746430852 -2.1866638461906276
Ni 5.676575251934033 2.2052951170374797 5.620322267929429 -0.6946136009283714 2.0038566116509875 -0.08035545843061645
Ni 3.327965286553197 6.520323523470489 12.588911467133281 0.015318889745257488 0.3714143635905087 0.9977721175652752
Ni 2.9527377444101557 3.2954512068427575 10.522788140412572 0.006246752240660209 0.6078946621735725 -1.7417835522004843
Ni 2.275362633393749 4.787547149631252 6.948897586559088 -2.599894888706606 0.47209053585634825 1.6347009621876687
Ni 5.805004472134292 1.5064701970728356 1.986692090125268 0.03464870042212097 0.9836392777083188 -0.7086942473911536
Ni 8.602777341927949 7.682006869556124 2.7561098468647227 3.414785723961196 0.8380202221832019 -1.8087980705478202
Ni 8.19469170493312 6.241457411730363 12.46416599825738 -2.5908556613224736 0.5299033330997583 -0.4146788307060988
Ni 6.171817589874145 7.426041008981802 8.558767577872645 1.2539735487263501 -0.5679196644425316 -1.522059904250469
Ni 5.197018144897986 2.7603310056261012 12.201269627240917 -2.2009483811340997 0.49311213241333784 -1.0449356626249553
Ni 0.15693133954608432 8.647443524063766 6.592773112237914 -1.552567328810707 -0.4291729105572157 -2.013483850328107
P 1.400271793168734 8.381873132651329 9.028424487003152 -0.7866549803373485 0.5136652739743411 -0.003325721939123305
P 0.7552638580997058 5.740469091159124 4.2596317411991595 1.7489039652953493 -1.4349113341574191 -3.7437406328359137
P 9.114987994272278 2.489051822408629 1.7949129465315063 -0.3556378174825423 -0.3824955611053348 -0.7775856710462286
P 4.47428882146307 0.33341017728582845 10.503002620931928 -0.9645418947572355 -0.4618832563060432 1.5406937173015725
P 2.7150697702728213 6.431307281220631 1.0563998365033842 -1.2529168253270617 -0.12137072450071355 0.7999198157670545
P 7.069864467504099 3.6643005223111174 4.330856822017525 0.22409632309641406 -0.1263874609890146 1.0363049835331506
P 7.459475561638005 6.8391418801393415 10.103562921232706 1.011566086025574 -0.322555947326909 0.8370249481494682
P 0.39692652962609093 5.358733154450081 8.09153179152069 0.6642272753270302 -0.20710338808284331 -0.23135608998262092
Ni 7.147463126143886 3.7823535020318646 11.452849810912689 0.9862381487837466 0.26521366196201424 -0.7902987477375228
Ni 0.17442869345145362 5.173374077210353 10.19958126626493 -0.7365896882498411 0.05994809841885805 -0.13418073178118828
Ni 2.3332594519115952 2.075889637652321 2.7898038055329133 -1.5330380005285276 0.20839279631822819 0.2552269830629475
Ni 7.029456634955753 2.0208100242109013 13.118240126956849 0.050710381870673955 -1.3551408016959952 0.43616091183927463
Ni 0.6498734248924409 5.5013692702172685 2.030918490742554 -0.5648276557807691 -0.7814952905132799 0.731279074670205
Ni 7.4285606874494965 5.150018238424931 8.249876382458249 1.9854585687597741 0.7084677332026443 2.765769866267282
Ni 7.306816518239175 4.3320989956089795 2.2292980761968937 0.9485275216068502 -1.200453465321023 0.19170299436737306
Ni 4.344911235197479 6.073894144775388 7.664971611664941 0.2553020592752571 -0.9532318690610552 0.03133326289564281
Ni 3.6217914080886033 0.9195868743314634 1.3936499665831537 0.06397624574164465 0.2747473124840623 0.7930768247032922
Ni 5.530610557231662 7.006826017279112 5.185528968947687 -3.2063978127389747 -1.5295976073884108 1.1089574168925547
Ni 3.0009463527311824 8.673365529849496 -0.029595529632914116 -0.6492230886087142 -0.3553467686046848 -0.8622073609523667
Ni 1.1091234111119113 0.6524182071677476 1.259952665867043 0.29296152149924387 -0.7743905611476986 0.4642340159264069
Ni 5.5048187193372495 5.475503050670674 11.986221113532396 0.6918962019972084 0.6666330565550455 3.4069037501099584
Ni 5.369546387136167 0.3464344045830501 13.576453418899021 1.0361499460125252 1.7855005334724603 1.480170720215851
Ni 5.995700432918141 9.215970384817055 6.048828457760412 -0.7811049970533968 -1.184235975020896 0.09420136317477325
Ni 3.9363607128765095 4.999497667526358 5.531705827060055 2.4311040230507164 -2.1774227872083336 0.04212392575324358
Ni 3.2705240556549713 2.79017664356448 6.284494635683376 -0.37086800416873544 -0.312958533446461 1.6789948990090373
Ni 5.100991431929892 2.3535935360770885 9.748893537982362 -0.4807620954884172 0.7567260539884 0.5836645859816141
Ni 2.51578272866185 6.472691372953879 9.390088534870646 -2.1582912085852057 -1.0349232726942759 -1.1628030019581006
Ni 2.0164122090255887 9.081200128768208 4.571162555495395 0.5906338182105957 0.4301031356809689 1.2879049113664722
Ni 7.45315312120246 8.962254569221265 11.541234738889644 0.7099556306020804 0.5241152656630716 -1.3715801781989412
Ni 2.545749236785026 1.378626732383517 11.434084249837603 0.7260299104561239 -0.6203233748552285 3.6508124799466097
Ni 6.844264916433437 1.2370040666273212 3.9872238164098124 1.0854757888308466 -0.5321018834129739 -0.15195939592084798
Ni 3.9702694485653782 8.337197652808989 8.355325391216608 0.33197389820669926 0.12106347767293989 -0.4815969326848867
P 8.040293990414517 1.7913426272267283 10.90867457331342 -1.7381513547645357 1.0336336073485748 0.5814655214477663
P 2.372960658764205 2.9455134264418943 8.464762186302622 0.05396925512760383 -0.3107682106633616 -0.7317860962136107
P 0.8405070910425864 2.6321807166215283 6.091000065236146 0.8263926652466026 -0.39052794449150807 -0.10541574383335395
P 1.2255213990715896 9.084723959540371 12.559082565066642 1.0013575209236882 -2.149564627345485 -0.5770298542739158
P 4.433443996708148 5.798319421144355 3.683926121239569 0.8347364092256077 -0.03967443577148651 -1.2497533399974154
P 7.042547805739939 8.000722951453225 13.313680707379312 -0.4287558776244551 -0.11839955768753158 2.2672905560047596
P 7.421587407557352 7.132084719555076 6.298728494599221 -0.11337845032385635 -0.3052709349942162 0.9558104284215085
P 5.86206449706508 8.69194234748217 2.5024405198015467 1.1275506065137098 -0.6673635069631668 -1.303122499647175
Ni 4.630406611688404 7.408524129892735 1.0314922104992958 1.11260709783 0.30424069395748893 0.3986806555056295
Ni 5.147042972337616 3.5679855804408156 3.2142822288981936 -0.5507986884915288 0.12433057845998588 0.5817288024114821
Ni 1.7095042144125188 3.691431229944821 4.5248543983876415 0.4791893516846586 1.0818669884336658 0.2562232855379458
Ni 2.014664240199291 7.4514609386153 7.144256347164152 1.1066871328011394 -1.1798388743944648 0.13792631486654955
Ni 2.7807487691503003 4.04034626262817 12.706145318909364 1.4727960250183345 0.4486528736586983 -0.0859884883466777
Ni 4.581221744182477 6.8308111350948595 10.204725687284029 0.9717816070387845 3.1147359281566036 0.34617795762122316
Ni 0.9537215442888375 5.618120571024815 12.390627648056126 2.0080462242523027 -0.9273061503342289 0.7702222887026219
Ni 2.4005934425501434 8.337653240428608 2.434753216315129 0.5492951073628088 -0.8374252689116803 -0.39053900023510163
Ni 4.6802051278248396 1.3772971603507482 7.647036335782345 0.3138375936173046 -0.19083498994012293 -0.04360179585035072
Ni 7.430680564536709 2.7806929829111633 9.000596451380234 -0.06027951361634779 -0.5163798446920268 -0.3994936383252281
Ni 2.1700754047288875 0.5810806241004556 7.071031329672718 1.4364969334769842 0.1783229735160413 -1.2704219240903603
Ni 8.396842440153133 3.7543488099850117 13.568492722574147 1.705438952133179 0.4095440805826946 1.3910531993218882
Ni 6.44736442038561 4.833310461136767 6.428713221100754 -1.7955612601425723 -0.24596201282125382 -2.7276046680514705
Ni 0.11085004647748799 1.3108278564188256 7.586751866229428 -1.0547626760177062 2.1925701843727334 1.401392376464367
Ni 4.52247883437105 9.174679270149037 4.020604442368183 -1.0777550231478212 1.2453500687233972 0.12112749814165591
Ni 0.4630202062144901 3.054333783585442 11.851935267993387 0.9322910051433299 1.554149585696162 0.4030720997051058
Ni 8.116721138032421 3.068326831902345 6.355161854110369 -1.2037976992029074 -0.12942213405028033 0.2734728166470129
Ni 7.938288852152224 0.21453528030846042 1.4015288430906248 -0.5442634584761724 0.4263539530511819 -0.448992259275988
Ni 4.287256157049227 4.865368953227586 1.1718754919759948 3.056007046856827 -0.03427100536772807 -2.5406368743762373
Ni 2.698901058629568 8.252644309690103 11.01228635526286 0.14569053219300068 0.693724770565515 0.10804855347051069
Ni 2.8472645616148373 4.6992840216097465 2.6725420606372614 -1.9765527816297117 0.02468439012055749 1.797810975408697
Ni 0.4788681469827041 0.7318048147718789 10.604913852358338 0.6034559096759284 -2.623997438181765 -0.16735901830536987
Ni 0.3213631389441594 7.597834732404678 10.937265020871212 -0.4132567535475915 -0.2377663643843389 -0.44368447390982946
Ni 2.7313314589813023 6.713827391624241 4.823048582447487 -1.0367294726650789 0.913150170548821 -0.6672717185803089
P 3.3692006149820792 5.279442313223135 10.968713583414132 -0.6501895662870416 -0.7729366023099914 -0.4454083985794716
P 4.089224305818843 2.7147350528379977 0.37060658200118024 -0.3039067076568379 0.16943209878431464 0.7697430350733583
P 7.194351460138666 0.9304400871555972 7.361768753101231 0.8269115138645501 1.1936726949537637 1.7136322865772486
P 3.7825766469884132 8.456217594008114 5.992246334944897 -0.27260558355071113 -0.1422236566903228 0.6987718460711192
P 9.27574534005252 -0.005482857536530255 4.245724231782266 -1.475736338593581 0.17185870594793629 -0.17552509905592995
P 3.6883908799118466 2.300884837798998 4.330992568532759 1.202133424126607 -0.4116616411463297 -0.4212063474119713
P 6.821020650126289 5.089973649700304 0.20477082891815335 -1.4552549308107774 0.14645826359696068 -0.6602356376691338
P 5.099624669071032 3.793120246185336 7.998261848536624 0.7972931767774849 0.22648642059514543 -1.162153798409876
