# total energy = -340884.53631073795 ev
CRYSTAL
PRIMVEC
9.15627604705653 0.00000000000000 0.00000000000000
0.00000000000000 9.15627604705653 0.00000000000000
0.00000000000000 0.00000000000000 13.40113552543833
PRIMCOORD
 96 1
Ni 6.5665148791410095 2.2669932126884422 11.104850535606621 0.989334271210567 -0.7236552395763602 1.173209284893089
Ni 4.65149807125632 0.9038590361145923 5.941178770693346 -1.9766993345099055 -1.5820691949245658 -0.4134770970885137
Ni 2.7355656357740035 2.060189563488433 4.528511887970674 0.33467458496731395 -0.9431415747045885 1.7671611117333244
Ni 3.2994274229445955 4.76259116767639 4.788694794857135 1.2979813217658678 -1.1457553024471945 -1.0142148365023307
Ni 3.886134118675978 2.901788669847189 2.5866736008686995 0.1277707144897864 0.6910752487578098 -1.1702108643863975
Ni 5.290294821016697 5.098589870901555 2.46225720727556 0.4761734476764703 -1.3229799006927345 0.28113547539859324
Ni 5.372261803556255 3.0119386698417046 0.20530842933308482 1.0444080722562594 -0.44883696464504635 0.6692064737091765
Ni 5.901695993056077 8.030759064438003 12.753324487311733 0.020412759328397104 0.4542239399885726 -0.016464573313926485
Ni 2.111382302471752 6.764940535822733 0.32906923356632345 -0.6102469644558328 -0.6449221472405151 -0.06206977274755116
Ni 0.95101660427517 9.27860382331186 13.35341399601003 0.7173920322754677 0.4786239660994918 0.3738610253587884
Ni 8.213042206573565 0.1613692921781656 6.697941317621581 0.7824417135869493 0.3462522625025843 0.30622815670116293
Ni -0.08092133582306935 2.472469201871893 0.8179878174987518 0.8020170646157155 0.11431921697057086 1.4158453186649036
Ni 7.069633931485033 0.550398398975086 4.439702420394048 0.3056918245817187 0.3924665562751176 -0.06339903308193598
Ni 0.8799190369470394 7.639227547416769 2.158708346110293 0.23048680000379015 0.41805648892908 1.0840454841422233
Ni 8.217602032009747 4.257027389646703 3.3938908909365666 -2.2644183766632873 -1.2372955738500369 0.9420707102379131
Ni 7.680476570689861 3.9191058684665228 12.85483828780543 1.0246398884903967 -0.36970972219457615 -1.5108501515775785
Ni 8.27470056899776 7.972305398605504 8.66510677970151 0.9053874958842665 -1.7210473480943973 1.0322809499754222
Ni 7.389645776855632 1.080101782988609 13.414134755774255 -1.1823418433219766 -0.23103444497714407 -1.7893679868476668
Ni 2.581090103778371 6.479933133509411 9.329843259302658 -0.9863862443258368 1.0642153367901737 -1.1196886872671297
Ni 0.3856687535136297 4.972718545055785 1.621898776311588 -0.09155389824959717 0.274856584368417 -2.5289717793334834
Ni 6.574810465175508 1.8267777763013857 6.4948871634338525 -0.11596060922873579 0.5981424678828151 2.296286686126794
Ni 3.476848582536758 4.335304392967825 0.0439858341623982 -0.9075554500698628 0.05129042274386006 1.0649941239377272
Ni 6.605722052871393 5.70801328733006 4.8366306464756965 -0.9423021095224287 -0.20222292006209042 -0.4591689426986737
Ni 5.69625662897653 3.1707268078221595 9.119164674109491 0.6520366467981094 -0.47175912065885844 -0.7320822872977908
P 0.23018511553300983 5.667524234962999 12.573441205109551 0.5961367503066959 0.820974836665141 0.0867644472807538
P 4.169191234206355 6.379552879981575 12.95793337716023 0.7635937276425108 -0.8224041129124998 0.431348835162612
P 2.8053913963690302 8.782937979612518 1.354975019051397 -0.6265271896730952 -0.08121472110711819 -1.0912651418191142
P 6.700892385368732 7.947665859953364 5.806805842603611 -1.792083843116933 1.5991086669053558 -1.577490831525264
P 5.242270153521165 1.0931677888067448 12.466874971532146 -0.5241402053637361 0.22241816406304277 0.19464999281083895
P 4.396898661460186 6.5826482374111945 8.069037791784393 0.05977017808009706 -0.48723484769695435 -0.17470414581653138
P 4.78993180774153 1.3643675269478535 3.787911083768151 1.1724340972899614 -0.8008598110828208 -0.8990718380788838
P 0.4642112888380644 5.938971192555466 3.5763342679017125 -0.6581800406916858 0.40456385375928394 0.6028642988385167
Ni 0.7289183116844009 0.17615942476263277 4.45609215439157 0.203901593316094 0.3526625369043023 0.41647474626425696
Ni 1.9967365709728893 6.9899834867674695 4.725348015142917 -0.0038484272118127264 0.15561370484398362 -0.6874772469939063
Ni 6.307666957291887 5.669831616509019 8.888745157911488 -0.7061059178386871 1.0873331537545596 2.414238357643629
Ni 8.831026741039882 2.76227449279678 9.885522082633258 -0.10139376715815442 -0.5446133856164234 1.6898305561719609
Ni 2.5658998419337404 5.902382713754296 6.694363044970054 -0.6572881250050358 -0.6264318017458115 2.419842076983652
Ni 0.9268165668698913 0.5784028690485045 9.039093040697018 -1.221935803564515 -0.8368979356533006 1.4758008732829293
Ni 2.1241003698027896 1.306225174498546 11.443738959529895 -0.6917864158922216 -0.7475328175249061 -0.6801796848912286
Ni 4.428002530951572 7.158944247357559 1.8834093432146088 -0.3893886886807423 1.352565070549019 -2.5398521736914126
Ni 6.011928399534378 8.30807519493126 7.896592152557735 -1.4365298435974485 0.3021820116562473 0.15285722514476902
Ni 5.338539239135657 3.225829276647346 4.765068855955569 -0.6684611109027198 0.333033192709149 -0.5340947454732866
Ni 1.2131424729237963 8.156584608903891 7.218735645110193 -1.3483397196137619 -2.034675396804057 0.010989409131968173
Ni 5.124300693842917 4.618187539254653 7.180837818844417 -0.09555684876140318 1.4766354533690829 -0.8679329505822342
Ni 1.2439350290319886 7.702451633032906 11.23305945870913 0.13370224948287296 -0.47246900224168953 0.10990591839422362
Ni 4.8680897794749605 0.3214090930845769 10.373108428411138 -0.7805241848492621 0.1718435364392847 -0.5109252493353588
Ni 8.628196915613573 7.507386329634473 5.10819114189027 0.7111691912942075 -1.496496453959068 -0.9327134373927292
Ni 7.306863885754184 6.434994131017882 6.9649181812824335 1.4407024869178993 -1.7184381926063246 1.3440878863159431
Ni 2.5550313423499094 5.64415741867156 2.555636572191941 0.042232683416965976 -0.506640763027392 -0.12863306249008172
Ni 2.6013895676177587 5.624352393734891 11.537827935834438 -0.08784096817438419 -0.8213533030504822 0.3513744142204981
Ni 1.2771082168940107 3.564620644045272 3.514286763748526 0.05574383052952335 0.10709647396988652 0.6960475051614206
Ni 1.6905964837063383 1.198565681569576 2.445840920077708 -1.0543322733485068 1.0534002484525407 -1.2556337100375923
Ni 1.3985479051672651 3.5621026681517978 8.153317649635557 0.4877830068909406 0.9196810296888032 -0.33506230732403586
Ni 3.674798112867715 2.9785548876322276 7.189414502551388 -0.843362974552354 -0.958785966110065 -0.3966242871972331
Ni 4.377798669773689 7.406941982174803 5.793820412014066 0.152237332172583 0.060648466919992323 1.5111553415228232
Ni 8.497005793425593 7.682555045336474 0.26753905900579644 -0.8125326194350586 -1.6599445672458057 -0.6774378604800333
P 0.4938583948216255 6.127645415322464 8.188468593108455 0.7169364327952878 1.1320803760632634 -0.5639030870839709
P 8.908937493321956 2.1209872359708584 7.813129950151252 -1.543596235660348 -0.6553996497330713 -0.25404710382223344
P 2.1670982417873486 3.700078590838194 10.306679646203307 0.7226620224251554 -0.7012583599383988 0.4646021978991031
P 4.148928395470873 6.444434251549415 3.893592821086247 -0.3910879307600361 -0.5401260392690311 -0.5179093939626758
P 7.138608158414267 4.294778715496859 10.566446858160447 0.40480939411118677 0.4341955605827877 -1.263645010377843
P 6.607708964758244 8.12583783417558 10.562627775450746 -0.24082237760184333 0.8484622434521322 -1.8185078416364167
P 2.560927984078627 8.864383054421431 5.72780640910796 0.2848512336872836 0.9022906021264977 -0.1338410890535824
P 7.011335922344129 4.026591392151944 1.4551492563697668 -0.03620627471722797 -0.10665810088088729 1.37049440133393
Ni 3.0702092101546796 1.655344821197703 0.15513386823832645 0.17041168908876456 0.2002783947412099 0.8047694305498722
Ni 1.5581417954336323 1.3346370988529084 6.953366623510773 1.093754226789555 1.240546733797483 -1.5638835251544745
Ni 7.303320406951367 0.836724305028991 9.215907139191955 -0.701291012948547 0.6916246935033766 -0.06938276146919664
Ni 2.8469792018532436 1.8556658270065143 9.275757137110837 1.7481974261466278 0.27604751935272454 -0.6751902020964372
Ni 6.760106022107263 1.8989109184424322 2.336460962892797 -0.21956166845085412 2.1477234603716884 0.7666924211724925
Ni 4.648467343908175 6.881921117695544 10.861473057647004 0.4260256231774856 0.5126167781051688 -1.3594090900540459
Ni 7.648154916493631 6.449689953959795 11.15049548697592 0.39256657218809166 -1.4424145845129996 0.9165913350198859
Ni 8.304128839985488 4.522019172675901 8.34033092394046 -1.1805847514215537 -0.8384899627307688 -0.7373139680103754
Ni 3.4036349998305115 8.341697040316118 12.527367740024562 -0.08254063900739333 1.8843257685724903 -0.44217780745731594
Ni 0.5508516346359114 5.140351645629316 10.250648730994127 -0.5058534912394062 0.4319106212033529 0.3533569918681656
Ni 8.44969531545621 2.463963021489939 5.470384119428344 1.7209450181885781 -0.01432335860120759 -0.5522649886244102
Ni 4.170894301537941 2.793378362288166 11.400131279565317 -0.8278581940485356 0.12024123888196066 -0.34329986474247975
Ni 1.155961529451997 3.5194618909303137 12.346747377606293 0.5379187472050672 1.1526078065926535 -0.032864611938504686
Ni 3.386888171069916 8.712590311286844 7.9838340656872235 1.7002239835911428 0.48148354703547397 -0.9913232766161378
Ni 5.58447681185824 7.953956221549061 3.8046222030524395 1.3183621994150652 1.0767998583234035 -0.3760305222062814
Ni 3.184314721370943 8.91832267619763 3.5097168664087706 1.1035948670290605 -0.5644844135087376 0.7176419435027447
Ni 3.962936961564922 4.6198539814823345 9.460289976253767 0.07725136558399599 -0.026757727709818435 0.14753607004217173
Ni 5.476240473542766 4.830677235835926 11.928927276629594 -0.14872983323995673 0.07393464250593719 -0.25697147655788
Ni 8.277017106819756 0.17883214172010564 1.9600363856048082 1.137280432206964 -0.7877204454873853 1.0596760541589234
Ni 5.117992019695268 0.7137170623085992 1.2579285656065202 -1.2736183195404711 -1.3054876574452419 0.2948854779948341
Ni 6.74659135876629 5.9000661759323005 0.3479943403816737 -0.6002168339133405 0.8845913850745216 0.5853910817544177
Ni 8.418884446796067 8.874546520755088 11.452342196437199 -0.4391122811581147 1.1125086245789229 -0.00026328096371567563
Ni 8.838827888171664 4.752079762855634 5.8963926780106215 1.1144112409182743 1.033118615385369 -0.3431620536130348
Ni 7.490053499211395 6.540520211644381 2.7330137816594173 0.6339093410697793 0.4783141481685568 -0.5415720276869382
P 8.78453117163239 1.7583895510346332 3.39458768353836 0.09091112245927568 0.7646607354544445 -0.11222145390127769
P 1.948721059753335 3.279796367251475 1.4578027451476896 0.6226075429037148 0.4118827560182003 -1.1096904384038373
P 5.028141483540142 1.3615199251192338 8.11882321115016 -0.033711790430148394 -0.6399465484027946 0.47211727532922565
P 9.149243956319133 1.7533169741437804 12.040785837721279 -0.9392538096144082 -0.7455093593369742 0.1656770026172566
P 6.512080818462091 8.141824692030145 1.4833048049967936 0.7685927235189989 -0.5830518920982798 0.45940394152761527
P 1.9172143141189937 3.6689380962429032 5.8819459057752645 -1.2599811883730108 -0.7789730383120584 1.085695875261453
P 6.786613441058561 3.9215689067041386 6.132788495538334 2.038204750113554 1.0106518017414208 -0.09475595012666262
P 2.7035186698570626 8.616330381948329 9.923969285457611 -0.35303277575952746 0.7848426097189579 2.343607325589628
