# total energy = -381173.9530100681 ev
CRYSTAL
PRIMVEC
9.16108572153451 0.00000000000000 0.00000000000000
0.00000000000000 9.16108572153451 0.00000000000000
0.00000000000000 0.00000000000000 13.40817497019969
PRIMCOORD
 96 1
Ni 6.5391188221585015 5.222936483163395 3.307019090375358 0.23905782950225277 -1.0374807490088067 -1.3643247821881084
Ni 9.037649199626134 2.3246804547475985 5.544495170650068 -1.4427208028995089 -0.06624370161958269 2.0029343569470344
Ni 5.213189088012732 -0.00022536270743072452 3.6388711737185004 2.21540903664412 1.6972073082520063 -3.0988305697802567
Ni 4.022385367468719 4.345551825490111 12.348406012954001 0.02012505288464921 0.7933532182931304 -0.8043873646201048
Ni 2.965965612587361 5.901946991783633 6.2304974198520595 0.7757591593604511 1.618490156755761 -0.22443005228674895
Ni 7.248901417537268 7.593816292934292 6.427289449410256 -2.648724251504483 0.8355697037601802 0.20065377580275764
Ni -0.0015097469180724958 6.57160403193693 5.436143346021362 1.5935959646172424 0.9229005650673654 -2.7281129751464563
Ni 2.010812498679141 1.0826754264056049 2.7449754913459326 -1.7106870879059959 0.6411390260489991 -2.6727437543475325
Ni 2.3438179627078743 0.6814244546937344 5.672073365770028 -0.24908693160348072 -0.8794944301675884 -1.0673124876582587
Ni 8.203028489850682 3.1443594337986815 8.156608352662786 0.8548748318466955 0.3017582938552674 0.730361190841626
Ni 6.942838706457875 2.1317571516669633 1.7935307849160853 -0.46492410001489604 -0.5432226759164839 -0.6072256611310058
Ni 2.7889917596545666 1.0345980488203839 0.21797795627381772 -0.9704222647974127 0.8546028091322313 0.15637655115193716
Ni 1.9664728440464296 7.7632505723623915 7.676689306103391 0.7413110049849104 0.17018851733436496 -0.6475248749706848
Ni 6.271450221113343 3.662061545978262 9.597893561430382 0.21854454004024942 -1.038940364273469 -0.4629829171281252
Ni 0.7057828653761552 6.6836166263985355 1.162890808622441 -0.06822550793630186 0.9500910094392282 -0.15330716819799403
Ni 4.530834783123705 8.518178997912647 5.461913480005209 -0.8137955453078822 -0.4554238738339447 4.195024002138924
Ni 6.742293380101534 7.378494135395604 4.054632389019782 0.7972970334322269 -1.1033889216658417 0.6879341320256668
Ni 8.737257200575181 8.942392230851148 10.853113455848344 -1.448917418628524 -2.9491383726270306 -0.04884710340969007
Ni 0.5272956010910214 2.3985462884880024 1.2411878595004155 0.028757017528034348 -1.8425247733763042 -1.7881734523189332
Ni 2.293267091992316 5.478741478268604 8.450341158541733 0.13690712957341583 -0.8871383198660914 -0.4579049883845856
Ni 8.906315875490897 6.811725248378667 7.592003314080612 1.706394631178229 -0.8823277858513257 2.8508749235677415
Ni 8.046144897787626 5.920626445460513 10.203969918722644 1.003878487573329 -1.0245730398082031 -2.03832790595498
Ni 5.430654939597714 9.356216792642234 0.5918290368615194 -1.292453449969103 -0.25332282406169926 3.4048422395952396
Ni 1.0968476259338704 6.954198452686091 9.729588748449503 -0.3692970601371898 1.0320058419371647 1.0349824080669852
P 7.817081111747065 0.9388555425049976 -0.0021556034576605478 1.2301643621218943 1.3942732489210827 1.7721536798519095
Ni 7.601969659178737 0.05553450131890455 4.909081352614872 0.05859286994254425 2.3963918163805116 -0.80836049033524
P 2.645950568035732 2.829144798137041 11.344857631787885 -0.1784589848732733 -0.38614549915309626 0.44068219674839587
Ni 2.5594515971592724 4.073614158523704 5.002295399285914 1.112537163824013 -0.8998886775532243 -1.2179732193723414
P 5.302298968304548 6.384992716881489 6.024735771316407 0.4074810274060789 -0.5511077350915153 1.3503940310396292
P 8.787404983521352 9.040672357896547 8.584114995898902 0.14887921433362747 -0.47980281689894133 -0.4174525367964939
P 3.243693085695891 8.096778218274196 9.56856984231595 0.6022109815252338 -0.24506546914891342 -1.2962393993740966
Ni 0.2140744176707189 6.342118835955644 11.948413774412904 -0.4895506403143246 -0.4222149911821438 1.9937256938645724
Ni 3.9427480497575287 4.585444014790149 9.710093042039613 1.0154222265468706 -0.7557971144162274 0.9043084038874749
Ni 3.0359471460045686 8.565257817160067 3.541796645546999 -0.08395243175325541 -1.715734420521916 -0.13870407357283857
Ni 5.160201368509509 4.012271528891341 4.986929510295119 -0.5544936208446128 0.9286881182834199 -0.33645430257555603
Ni 9.333497300185803 1.6549684480802944 9.75562730224342 -1.0570252467996377 1.6897935322864381 -0.9755744984223135
Ni 1.0555128074002351 3.95544531449326 12.976673268059656 0.17169981177256882 0.26655526359157317 0.10064480480727182
Ni 7.807828415222469 3.2938408686420613 13.180705303621206 0.39573134306931845 0.6893803775538901 0.22657898030895174
Ni 7.285683176493951 -0.13071220252695379 2.4845752956696976 0.9595336429093667 0.03327881665778785 -0.7540598200101464
Ni 0.5621571964917076 8.272533646813157 3.367610510982952 -0.6687580733178483 -0.6644797576574685 0.06276062816698869
Ni 1.9046446768736671 4.9080608076714665 11.011744983056838 0.04635107646071372 0.14196243260913616 -0.7587520832794933
Ni 8.849434694578807 3.709488486481061 10.907510150327292 -0.03586894598246726 0.517909908183308 -0.5863426470344095
Ni 1.8915076800258759 0.31525219611287947 10.330448783562455 0.8283508174142379 0.8895993798120744 0.13629674968292657
Ni 5.1369780163413425 7.012362185591687 12.915692501311176 0.5294891283804752 -0.04958141047255332 0.4236023584479736
Ni 3.6853307035747678 6.6339635420784315 11.072135775888304 -1.2869955121783256 -0.5411454816724809 -0.004778138114933707
Ni 5.969409226642164 7.040550846191864 1.9323459677163104 -0.9547686174205557 0.0624945189897956 -1.440477772501603
Ni 4.5047806554841525 4.18957518090818 7.342222648910625 0.19202618203474672 0.9243450108233757 -0.06548008398068078
Ni 0.9089555911020545 4.615125932354196 6.522983401971602 -1.0713948852577484 -0.45322172397630334 1.471309670280795
Ni 7.276283902598668 3.0380450346225207 3.9410651583203324 -1.0625826862827572 0.05106982209262172 0.7207982297435394
Ni 4.659667130871602 1.947655974084531 12.596135511042943 0.701553008360682 1.700960604646851 -0.011855099566373132
Ni 8.439237922712218 4.030007390744426 2.0387400683377823 -0.11102306271780235 -1.2292989287978053 1.5515275746922828
Ni 3.9784854449480678 2.2302113393400527 5.998026626051599 1.076906816214913 -0.37061603605892945 1.90823034310423
Ni 1.8049170982927374 7.924036786919979 12.131059255482704 -0.17259584122427693 0.6323813344610271 0.5963583793991988
Ni 2.5525441385656644 5.999054499863539 13.414610723437262 0.9999935506966261 -1.3340610982075602 -0.1398415296113914
Ni 7.03529238301848 7.602326941519785 8.876118188803746 0.629350003833871 1.175878089974504 0.6910978744656291
Ni 4.492248290290444 1.6195700130594683 10.309263772955399 -0.5372762285250618 -0.15200361889522207 -0.24195906230944778
P 1.538201250157042 2.2991759922481214 4.4250599718933845 1.1176179207810302 0.4096770066161332 -0.9236880939656672
Ni 0.32074426697079483 1.5232961637753433 12.04988653981357 1.7929071103491767 1.1829889899876722 1.9091050323996992
P 4.674114162969905 1.972390905387903 1.6300319728922281 -0.2048091927320279 0.4973138291995112 0.2774425999280383
Ni 5.854428440424155 4.197288815040564 0.9102931096095702 -0.8606279322803888 -0.1255348831807322 -0.18560536611006745
P 3.8176992303904806 6.570486379485445 1.987681673476221 -0.250932983673284 -0.8371349913647711 -0.6909688050869327
P 1.9503768165279018 7.562430413436013 5.115218605662909 -0.1322673168085593 0.44308900641767557 0.6013486335249386
P 0.3243216709241159 4.727395037214502 8.795896393826942 -0.18112624729279128 0.5175723223382312 0.5448761523595067
Ni 1.6799140843540288 3.7329042214482535 2.5658020617442716 1.2063340924715158 0.042704737957378065 0.7441145358719765
Ni 5.3553691375787835 8.22000398159333 10.358418494215167 0.08802223094725486 -0.03094939719366283 -1.0422326618714954
Ni 2.7558835960507198 8.110043470321338 0.9427581649995296 0.19994517977150725 -0.2687851813633564 0.8464315861753486
Ni 6.64698144481254 0.9713590744547622 9.40377015612725 0.6392664916166344 0.2897550987468042 0.5259613177328749
Ni 7.29785825934661 5.354095746670944 5.497552851579101 -0.6359489972076273 0.07036955086249816 -0.5405183896114434
Ni 0.1786081906159503 4.437840602508693 4.1996413818400855 -1.106944500227584 -0.16416853639253015 0.9432457043826206
Ni 6.4648499006487095 0.04235353125990754 12.18162203560963 -0.8259208678165066 -2.3089575967262426 -3.4868385760633887
Ni 3.8062020678772464 1.9374413635648051 3.7388021284012574 1.1307611430312074 0.8343124343143116 -0.3691708189719707
Ni 4.638569150578392 6.562690295582048 8.335406177752063 -0.37688772800025416 0.47703682411803 -0.5862773410141129
Ni 0.27074306139531135 8.946670457858065 6.282145788630634 -0.150843794259166 -0.5504688159559359 0.5727883053887426
Ni 8.875653721760383 1.46129393597489 3.331489266302927 0.1461435605700193 -0.1484621814008669 -0.4698752733725844
Ni 1.8370541868157857 5.917823153246132 3.4435540789528387 0.8787922618942414 1.7289316359384803 -0.17399015046864227
Ni 3.1503599449111666 3.3347634383206404 0.8029444238615016 -0.06442413191234066 0.11012369083198452 0.5439806371284308
Ni 4.334448589660598 6.6476043986379585 4.089828364047348 0.08367732371499782 -1.6302920344866956 -0.4693836784481465
Ni 5.805141799530769 5.779619014859956 10.37196041104948 -0.0922295841603831 0.7228363432194905 1.038402489492128
Ni 7.17140779387237 1.9916566685475297 11.48159416425006 -0.6148811207937346 1.1472748244155144 -1.7730260551545338
Ni 6.868633912547759 3.4016760080390958 6.3648071807208035 -0.17376877848645556 -1.3268936339248438 0.9644315944316165
Ni 3.8591989484661386 9.05090529058761 11.862574401704533 -0.18999861008175667 -0.6836481030558033 0.7481951336992534
Ni 6.9231881777001965 5.556638189702889 7.806547695446095 -0.7829808739198709 -1.7060549884506229 0.7696072808264424
Ni 2.5678248294597474 2.8386356828890014 9.081156111571634 -0.2558499613589271 -0.05740630583361081 0.22124214147707058
Ni 0.5320437917927021 9.191866915759826 0.8613509255372978 0.24671174650308478 0.11440534892647394 0.28314350696755747
Ni 7.865149328246618 5.525261471290278 0.6857182555462865 -0.9648915647871705 2.2158448386299576 -1.8080182549590025
Ni 7.409046356098102 1.0701888666402362 7.221052633215372 0.29277537363036676 -0.43003217323371745 -1.303810526853135
Ni 4.2848046664261625 4.218377634248107 2.894851768981599 -0.7907821151318446 0.7848171557976613 -1.1140857392580554
Ni 3.092571816517955 0.6504544884847788 7.850566712080429 1.7668584928912408 0.4379838239806263 1.3964517446296403
P 8.654211958995527 6.130754267425494 2.817312339888361 -0.3134074480584216 0.4123715227291608 1.110779557702958
Ni 5.3585938397338895 8.879079967800184 7.885602368108805 -0.8089091637498586 0.4409303082034599 -0.6063874815004267
P 6.125733992479476 1.6404481272966482 5.262883397218341 -0.7261803199910589 -0.09436719932867618 -0.22133727229403818
Ni 1.0973789689026097 1.7254355190379016 7.6728682172713025 -1.0418436539631928 -0.22896804936641857 -1.3776389827985114
P 7.1135830211364866 7.00747016584502 11.775716316269891 -0.06960027679664142 0.9156315422097779 0.8127059117881295
P 4.867651258790291 2.3908326543556178 8.364234282131859 -0.32895953686040763 -1.0732954447145708 -0.40367913716148535
P 6.053324771360272 4.033974140838633 11.775314144609071 0.7973520550398784 -1.0566712058943284 0.7895528707104337
Ni 7.751029684081392 7.931035856370267 0.34120463570151766 -0.13633377356844908 -1.1727649982668191 -0.35298701012325656
