# total energy = -381169.0423652309 ev
CRYSTAL
PRIMVEC
9.20267368324098 0.00000000000000 0.00000000000000
0.00000000000000 9.20267368324098 0.00000000000000
0.00000000000000 0.00000000000000 13.46904315593132
PRIMCOORD
 96 1
Ni 4.513193643616259 0.6012539256957787 10.599248459464203 0.08370869117356551 0.6037914386384763 0.8220840105689197
Ni 8.009574666924285 4.81931138173007 6.0615407336333105 -1.835268091813891 -0.7283521308313973 -1.6429794001463771
Ni 5.6979550590356345 0.06308156744374513 8.661133167892176 -0.12479363413933345 0.24125715114641674 -0.970851124804715
Ni 6.942515448188281 7.034560590582892 11.37832472888892 2.106631832537701 -1.230180045851178 0.4353656696314889
Ni 6.81676091201328 5.705694507621304 7.996005324546676 -0.4596767355730277 -0.2740819109859215 -1.6148145076763867
Ni 5.038335015902409 3.876230583144055 7.0646616160036615 -0.8003003390349249 2.5016445522734396 -1.8179625106559076
Ni 4.410813898651248 7.27615838335291 3.8749900627286586 -0.5174789912934764 0.6110406640017219 -0.10716435109334446
Ni 5.28226108511972 1.5840746301408868 6.839270651895026 0.8173105004396763 -1.9807549926365176 -1.8884253925631604
Ni 4.858082246048056 5.711740664245306 1.4659307051196895 1.052709135922787 0.15607264675827315 1.6962405734633628
Ni 0.5178270872256383 6.452012939726698 5.973614707988933 0.9764008509783507 0.3706715718872132 -0.28629773632582306
Ni 8.004734060555602 3.3308157206864064 8.639865788960568 0.23630906311252203 -0.006958433595704145 1.4615212234354635
Ni 2.157042297670467 1.3860699027101282 10.691874290569583 -0.11481749676322806 0.043301491001112524 -0.7043585961302773
Ni 6.703954537740821 7.015741122856739 3.549645178443576 0.462744575865074 -1.1315936662348318 0.12955737407656398
Ni 3.4495578194984104 2.7544062531912608 12.599427502768235 -0.8285426217100699 -2.0187864934879425 -0.46774845683756866
Ni 5.288353255112246 7.7395498150803865 10.331820602139777 -1.2657147484226783 -0.1379975344241172 -0.3193970899829532
Ni 2.1850184257328165 6.218338649016444 3.8044791768030928 0.46021306769247194 0.12121800097293318 0.6013260078171192
Ni 6.029186893689626 7.424063755135172 -0.13726800124697605 0.8607320619584208 0.4724885426257153 1.2832823249927963
Ni 4.511086231337878 8.275329478169194 1.4924638539451385 1.0778630094805954 0.48134830700919035 2.5530519602111386
Ni 2.714641500113165 3.1690879329996546 3.646743508969449 1.2859616715971725 0.27405080063766996 0.04022876561305975
Ni 0.9594063417381885 3.988613634426097 4.875645548813514 -0.49240482193366814 0.823026576987847 0.9739924986471742
Ni 3.3198553363040846 6.533051684370463 10.775948077001164 -0.5591123505635467 -1.2466885850291627 -0.32126499642962736
Ni 8.75442987391063 5.770306479702144 11.939566349583947 1.4921913988258106 -0.8098226767030633 -0.3193299841904436
Ni 1.2024029409113237 1.4436786401016761 4.570908211755412 -0.7152641872991875 0.40306232951309295 0.6771594100076661
Ni 8.844634481564295 0.7329165783892098 3.0373369346386583 0.637739770559463 -1.6765412952622225 -0.777886490116099
P 3.893099084044807 2.4895533039694153 10.044646567847133 -1.253255696723719 1.207513457491598 0.7086924476189408
Ni 7.3692894412446766 3.3186497860487663 0.8891328847942046 0.5423276749060402 -0.5147695627821135 0.1604664049505946
P 6.909919577926162 2.9762919188857677 6.914144525424 1.7131491762932434 -0.6394328419911697 -1.826686520792467
Ni 5.537699699141638 2.649560191673384 8.799110695281787 0.4969091375619249 0.6256105913960968 2.0480096520191178
P 9.13354321985028 7.933845865008144 4.101552527199905 -0.5796372099897759 0.5448278156200745 1.9375674015054505
P 1.2229525112939639 4.1450130740378155 2.34723671592803 -0.6543624667178085 1.128087452853786 0.09482536991201734
P 0.9410101970024529 4.826636709999027 9.433435349202847 1.3596124643141034 -1.2905132955235967 1.1719525296678528
Ni 7.727798000759459 8.168044708119567 9.517549627398731 -0.5835841104526659 -0.11788302306242925 -0.42608630121209196
Ni 6.7505476747078195 1.641241639194608 2.671826980969325 -0.9388627448235766 0.5122449965880468 0.4860837648116467
Ni 6.777778386200086 8.012537927857204 6.623186351703974 -0.9346934439372353 1.001380403741824 0.9888791859510195
Ni 8.902675744619964 0.8629025039336408 0.6441963620041142 -0.38704641370081083 0.12089738440872085 0.28901462103635384
Ni 5.702768057383203 6.265870458701324 5.864084485555354 -0.6308993505988619 -1.1935600806352993 -1.0873323824236114
Ni 8.396528690860357 5.932356360968561 9.513090931988794 -0.11356176997925603 -0.6264266595394888 0.5040668316526287
Ni 6.3510872172070325 9.463753557723047 12.188124124476841 0.7738899673621963 -0.7155020143416064 -0.6786323950087668
Ni 4.034332517391147 6.7826373979161785 13.187257488330937 -3.228354005295092 -0.006466067340317896 -1.822290191496984
Ni 3.2285832185006704 3.6829468273238177 1.3975345936114685 -0.9633386184777539 1.2572331933142282 -1.19238585782154
Ni 6.800462976882221 5.11768967125821 13.041953712404998 0.9537833706891509 0.5249588446102894 1.5898879196380358
Ni 3.4540487242663143 1.5521505550592125 5.140757093166462 0.3631061008351295 -0.8545025361089412 1.0536092791395533
Ni 5.072559759410263 5.278239516710759 11.675585813829306 -0.36189254014300254 0.20823338792222848 -2.067960641219748
Ni 6.74048915234856 9.079725984025076 4.3474838590174745 -1.0744246732230076 0.40529507549835364 0.5526511683192352
Ni 8.258939516301087 7.400965044136324 0.15866513787782086 1.4633199672070991 0.6200361826321128 -0.45486080224162306
Ni 0.719686814671304 7.6465752026416 2.29098997424478 -0.7225519792098525 0.6363534317348977 -1.9178511540234455
Ni 5.7064675322125 2.7007454628190377 12.006857219980228 0.15100577375832702 -0.36873373143455207 -0.19363157884865362
Ni 2.8797650743969583 3.6415808090211006 8.25677964878259 0.7804138845236431 0.6502134775464415 0.8495930146224658
Ni 0.6011913475145866 5.5677924421560725 0.6309030998376461 0.14659916005019913 0.6397022936024725 1.3066186857258915
Ni 4.390255125594903 8.615156610063394 6.048045012645339 0.7216271534027379 -0.07897349048142528 -0.5141224161164177
Ni 1.1476654377156483 2.292478046582833 8.93087825845545 -1.593088685963521 0.33999034075327256 -0.4679855125490392
Ni 2.33156180180678 6.231728539256812 8.496622491677117 -0.8372884862234999 -1.1564114966094603 1.0064686168980086
Ni 0.4193005017407932 3.465892565324289 11.05126906756213 0.17202119966772952 0.28501141341423175 0.1018946180539729
Ni 1.4861949926174833 2.0195175418271294 1.9614293451355653 -0.8026701248186822 -1.5664667125006182 0.30429083046913397
Ni 7.226767633579677 4.152642090539029 10.943987978581983 0.02362303873557867 0.1135327165135335 -1.216407417547118
Ni 8.73419319443395 8.940314680072271 5.970651447056013 1.3186931003919224 0.14115202089269882 -0.9012539333318672
P 8.510660250146298 7.181665329752843 7.55073211680905 -0.08583319371573606 0.14767928048825535 0.5776913991173147
Ni 7.535324080225238 5.748643385801232 1.800218747711019 -0.10224120276011424 -0.505613093093826 -0.2990416662550527
P 5.532444972456243 5.08401708817264 9.52913211252349 -0.25899133520138623 -0.1970963974688025 0.6026506401658137
Ni 3.356730449838899 5.377260285773548 6.641315618902273 -0.7529516745476323 0.7967409038184408 -1.0967670454739498
P 4.753070536403494 0.7476123280282773 3.5479482054124256 0.38435215469809936 -0.42363038347243176 -0.5327760266618631
P 4.890549278878308 4.14687201412617 0.013781003872818404 0.07447868793486528 -0.7412953212556266 0.9034504267625536
P 1.6324898965014192 1.2361859560813513 12.67120467659557 -1.1211742706737207 1.4073161981479698 1.7555060439928993
Ni 4.1838207490506205 4.952354435479209 4.520695663220347 0.07977516044711422 -0.31972182031222357 -0.35783122558943536
Ni 2.613228035887149 9.129788528978754 3.16837656632228 0.26267932557593465 -0.29014924886142934 -0.022351371112006666
Ni 0.5343937404288756 4.376165832152976 7.414088977106625 2.2007172389599003 1.7109997340504082 0.12056185544617301
Ni 1.8556363284934732 8.760825732135409 0.39734476281607184 -0.1821120082448283 -0.8339347392599187 1.2336759748195785
Ni 9.033841452933341 9.285313714588524 11.827786073429563 0.6620590640311178 -1.4486428248108987 -0.06836846127206936
Ni 2.7518755179224628 8.282176267405505 9.503123516099212 0.620866391842892 1.5276559102810077 -1.669966213147866
Ni 3.4371250073233335 1.1364565811432992 8.146831624962816 -0.1659449115666626 0.23902209116831089 0.5662967841271279
Ni 7.0314776948918105 8.549918856170633 1.7463831065384061 0.12738762011875482 0.35805131202004137 0.3098241015825374
Ni 9.127901980869286 5.819642013433149 3.651713873037368 -1.413588918530559 -1.0677660302559095 -0.27850600819554616
Ni 0.6620164193659344 7.457101353735117 10.489097976822928 0.9094405829077176 -0.021961334762439597 0.049288561822482854
Ni 0.09916341050521184 2.3150982185490356 6.760328276321195 -0.22343015026732488 -1.612543709364339 -1.9111146066305604
Ni 1.3235929509287834 9.391604595878041 7.791693084558702 -1.612029488732082 -0.01705207038628031 -0.07266117511015227
Ni 7.856000448139916 1.8233901598321338 4.738665591253495 -0.004869155166843228 0.9130041318892599 3.265743501687143
Ni 6.979767871344988 1.5578009967139108 10.174717157989646 0.8770066307487283 -0.6949648136202032 0.2688484305011241
Ni 8.016467469529122 1.9886057608529746 12.21393026207962 -0.21190980833255116 2.3276225201255976 1.0224500799279295
Ni 4.892417421640367 7.053554909109434 8.107179144503919 -0.8467974541551997 -0.6022827153034337 -0.4177512989838354
Ni 4.988198849559094 3.620156984636512 2.699802188764304 2.0868237966728382 -0.4588848357993517 -0.2351340689678144
Ni 2.7285927534495205 4.876552012173429 12.303809095084137 -1.0590157948671053 0.7664131993691767 0.4348252237469867
Ni 5.860465073987287 1.4838115001279606 0.663427189244868 0.3704039200481234 -0.3588774074657625 -1.071716016042593
Ni 3.760414934570152 1.3891988117697331 1.4718434229749724 -0.4207080676193142 -0.07644172519850706 1.2096521011011554
Ni 4.163906163153606 -0.011701199615551655 13.053172691918425 1.210529361499786 1.805670323552116 -0.9928805938009287
Ni 7.976997202009576 0.6752875951155113 7.939758582863426 -0.9862502329686047 1.213584346276026 -0.7027303164982349
Ni 1.1805465908626134 3.4272597411118735 13.568309837620172 -0.7978320800000904 -1.5241640950776654 -1.2381011004704676
Ni 1.9061037910901584 8.491868390441258 5.558108468616595 0.5034613368581459 -0.23588611664249054 -0.6815598530682069
Ni 5.566191176931451 2.755970707721063 4.7375612704089285 0.5475223317331022 0.23276685428721847 0.4776348627133451
P 2.9456102047542307 7.965889574847979 7.438009486867304 0.055977800917200365 0.323301824353998 -1.2704795168011733
Ni 2.7339303041982586 6.913803106229555 1.6372964529773946 0.06710682095082636 -1.3423027693910625 0.2948420263514083
P -0.20049497093525573 0.6589003940495162 9.777757987201804 1.5624015412923091 1.0323614255043705 0.2242017383260268
Ni 2.680444364626425 8.572815108347976 11.627097846346507 -1.5369517337606369 -1.1451392661297504 1.6181520566900518
P 2.314831341011599 3.064527154366625 6.291242230105237 -0.32010388624199065 0.08048709891247428 -0.37252533726650033
P 6.449611041889766 4.907979142875049 4.095248695712171 -0.03146516048781677 -0.17810237286480296 -0.1937367369679502
P 1.4905662626272254 6.764103213074871 12.439038704105519 0.47430759811232504 0.3657013723661315 0.1511510410869397
Ni 8.598278906488938 3.2311783724854015 3.2128788558235657 -0.1008080698580135 1.1542252875914185 -1.4228631447436335
