# total energy = -340889.1668692092 ev
CRYSTAL
PRIMVEC
9.09021078927600 0.00000000000000 0.00000000000000
0.00000000000000 9.09021078927600 0.00000000000000
0.00000000000000 0.00000000000000 13.30444234269640
PRIMCOORD
 96 1
Ni 6.607192484012393 1.9725303028949273 11.182024715372519 -0.761690597082527 0.7286053844927839 0.2000804197977909
Ni 4.656633220736337 0.12152884686496399 5.696429714844774 -0.22230966350963646 0.8395654551831346 0.20950994064180692
Ni 2.8301371551095817 2.021326554725338 4.425709140445909 0.9588890673468324 -1.159116554245449 1.229951731890456
Ni 3.5033763509113474 4.354647326165161 4.938901538957785 0.37746776887344025 0.3799087742147651 -0.8622127602690054
Ni 4.252109747803195 2.832009738544207 2.3560172098843406 -0.0374692005900516 -0.025026603951324642 0.4783146623891891
Ni 5.342416907507918 4.952501403407017 2.157088853735618 -0.5052402831354396 0.1173420629572947 -0.08546783995651731
Ni 4.974599705977756 4.892842349613614 11.138638957038655 -1.724928171206042 -1.32097983954357 -0.6652212638091833
Ni 5.580216823283541 7.982632287376671 12.270088411040032 0.5427647624434588 -0.22326045745868003 0.6432313898016535
Ni 1.9350059125156547 6.710793617043539 0.5491132756976159 0.21764388260285097 -0.3125659259937326 -0.74750864915519
Ni 2.983898071598292 1.6206482409807696 0.2117282820433575 -1.348378029050865 0.7647859481783991 1.9291699214703746
Ni 8.284927249116668 8.907479429231703 6.679681461396227 -0.8596074614356743 1.1313555820820966 1.9878144705864604
Ni 8.582277136155522 2.1280729007097854 1.2607822468790841 0.3977200913645731 0.17981729867338064 0.5435762026011607
Ni 7.067166243116456 0.685970945115043 4.848458486128673 -0.2176500532504381 1.2925061575839096 -1.4692049652329664
Ni 1.0327479446171368 7.636067998808413 2.779071986651587 0.1899610719756019 -0.3664775884105237 -0.6046630426101522
Ni 7.692390945220712 4.2007682369354304 3.441300210053544 -0.0772865896973056 -1.37011850605175 0.044587042581755464
Ni 8.227004425595174 3.8970733827248885 12.398822159022878 -1.0400569943764153 0.10728262183876362 -0.057191104499011186
Ni 8.28519086523125 7.359225627441953 9.038665716101256 0.032166043209583314 0.6995868857732468 -0.4846835420300104
Ni 7.085255762703363 0.8422589402194116 -0.03557635819461221 -1.045151378180187 -1.2868610434829901 0.6802087383569511
Ni 1.6030950438338765 6.932203882660772 9.012375917308646 0.04234401218384966 -1.2071992686852886 1.097079691618362
Ni 0.26129265669039814 4.295488233968381 1.4581934468373265 0.47761609366026775 1.954106536811054 0.4672406639632147
Ni 6.345185336749366 2.1077290088326506 6.866595285867556 0.6509470132783564 0.45636489759097537 -0.35602348295673525
Ni 3.5318923423405573 4.561640517377956 0.24292043154612783 0.0673176514100518 -0.30198095138903475 0.264361598374364
Ni 6.315596700440128 5.909973311994416 4.3445926439465286 -0.8255652842493008 -0.46320917420631835 1.2044649004732613
Ni 5.073064869879956 3.026794776588551 9.341780614859715 1.6430742738530284 -0.1855860828363578 -0.16379701198572436
P 0.609585903361887 5.664074018353499 12.365893779248196 -2.039029045787063 -0.47205634018430315 1.006251615791196
P 4.1132658673155476 6.334777045328759 12.617454456205056 -0.2639941877326163 0.7189388079372973 -0.8232371503367564
P 2.5938007632804374 8.73714705836765 1.3322931175757078 -0.09383806629808354 -0.22757039768794357 1.2536655305676279
P 6.605647148168286 7.950452940975841 5.668863650449148 -1.4445043771624928 -1.6798086531595844 0.4332005436593701
P 4.811394060418294 1.0216669775938003 12.325527788957935 1.0337307950480714 0.6221722551385092 0.26542603508313645
P 4.1872965444591514 6.418197910278028 7.952038273747679 -2.1092538435415804 -1.0566832900791867 2.518757557804643
P 4.663069090016504 1.0932160271759839 3.6237971010739782 1.3534808974950692 -0.3336615703217673 -0.09203572298202214
P 0.23648001716053807 5.627240483998651 3.5162971766102573 1.352071161631736 0.32994221248865113 -1.3781737722560587
Ni 0.6162826616933818 0.10023139186990639 4.868866918502827 1.215533756692913 0.4602770881611879 -0.7641727400744323
Ni 2.072740787279884 6.682395798355349 4.859726711495472 0.17481907412784087 -0.5281025324455937 -0.7015231835640111
Ni 6.006320456769104 5.837106181839317 9.187967884169172 1.8952200468874911 0.6843250745181698 1.2365874920394186
Ni 8.733574605504508 2.4258045766042415 10.088878682820063 -0.30616902132845336 0.05868285855318926 -0.5687956392895818
Ni 2.5415775019604467 5.353270619260062 6.850537428405108 -0.8740614320774752 -0.07692380704124817 1.0215666488817117
Ni 0.5719169786301361 0.33506335380375785 9.081412432612527 -0.3072069756746645 -0.5809320175417995 -0.2318489704586394
Ni 1.5124929123149302 1.3433422688610772 11.263753892083033 0.2916399744743429 0.27827178069755304 0.8152353630782024
Ni 4.264081555489605 7.173558070877843 1.4685044730018637 -0.04381108364767938 -0.14551209763360748 -0.9668114075177027
Ni 5.630031178728893 7.970987727280777 7.86613214515265 0.4006256950471423 1.091498855096475 -0.1744642618915834
Ni 5.62767681411934 2.9718717226467963 4.600822962215847 -0.4100295048595455 0.2473149273047225 0.13104295748315495
Ni 0.7634677196548716 7.341490626078105 6.698707272700447 0.8069623244361328 -0.29280674108893445 0.4979648325199489
Ni 5.341516976633996 4.731972888242009 7.368798528485658 -0.24895323423909382 -1.8629444746832369 -2.058503095351274
Ni 0.8320233628049104 7.771139441794268 11.767926074370745 1.1156176025215496 -0.10004265244689868 -1.7337285431064915
Ni 4.869044177614357 0.31145244014796264 10.236039197212264 -1.2074808044814496 0.18978906517411187 -0.17060220783301586
Ni 8.28054576748808 7.25470638311519 4.432082287271226 0.2196891951676539 0.8941201505005633 0.4682593350357161
Ni 7.370070248983249 6.321987118666056 7.050582971467012 -0.9238906968947767 -0.09137932034494585 -1.4014777370893217
Ni 2.653432546441297 5.4944506839355665 2.5305319867594167 -2.056186788513272 -1.5716356582960673 -0.6196757139689005
Ni 2.221692982230165 5.358233874382901 11.18249013416792 2.416280070664006 0.6154380217384692 -0.23654946125810225
Ni 1.0980701997686515 3.5411643574052034 3.8834207950527397 0.08963585529127788 0.3748457578695609 -1.089034966937015
Ni 1.6529093992792285 1.2608486054182722 2.521710846152816 -0.39182763713953805 0.13981864679325595 -0.3096641789659054
Ni 0.9920147098086289 3.6489469874262874 8.097682540970485 0.305462482179732 -0.7462243831261277 -0.03486081643292705
Ni 3.791217877403515 2.8563169623509355 6.84980566643187 0.32066515806209933 -0.29297849078010835 0.36839640269979135
Ni 4.45993014820313 6.7306102766915075 5.986187457783635 0.3624370997925629 0.6250729737250719 -2.651866139567575
Ni 0.6222776557474345 -0.04324849615006427 0.43848631870228894 0.10377640845771804 1.2464746692461435 0.17624912170614807
P 0.1257876106471077 5.649811477533471 7.932987009853086 0.775372979665626 0.259040957492399 0.8383632073449174
P 8.484875526922503 1.8377861074995885 7.713822935336316 0.1923673674242493 -0.2691063121482011 0.9111603938123016
P 1.8743560257398535 3.328889753689899 10.340718429249947 -0.20963438203481313 0.10603049459921739 -0.4488189669229174
P 4.171415946108233 6.07384254294576 3.699673091019663 1.480208515432322 1.6613139367895065 1.3769406711799062
P 6.867736107328941 4.021727444079289 10.362963084215334 0.7032147123338212 0.3121452935165463 0.016377155806442764
P 6.451495352613124 7.9902135232236455 10.101517711982694 0.4466816088649404 -0.9472975058544914 0.2189471747953068
P 2.4737372584041215 8.703776894345774 5.95686425563115 0.021620406483253085 -0.6932167205808448 -0.5761250830714594
P 6.982172771690536 3.9107723304723603 1.242302757246811 1.3989755394927585 -0.08947490423338139 -0.12351065366185182
Ni 5.352716116398353 3.0092415794416576 0.11837636174298441 0.693792904799289 -0.49100948424803825 -0.2224490173009782
Ni 1.75026555745801 1.2696024784645998 7.25013582510097 -0.6813680487723749 0.7704282340658409 -1.670718517932858
Ni 6.901142632194209 0.7213700441981252 8.869220549815937 0.2954236098864912 0.5818619855552366 0.17129717701751143
Ni 3.1130608775331483 1.7375574426929368 9.220510839003909 -1.5315799279257625 0.21183190390676424 0.42693810768942597
Ni 6.706348503939018 1.8861187585767671 2.7049794960742197 -0.87219095452764 -0.06037001644762506 -0.7698764753274289
Ni 4.107075433728269 6.917923161419049 10.093801031994088 -1.0760244136099597 0.9958134511770075 0.7667325303818086
Ni 8.4342703231334 7.120380337418846 0.11552567162114818 -0.9093338821265243 -0.233763670982849 0.6140133734768006
Ni 7.616914924552326 4.069178344704241 8.123373294868232 -0.10714635337121547 -0.7957379164752232 0.2740055492220313
Ni 3.055247136541827 8.662298262247756 12.49142140986506 0.8606269038391242 -1.7636803522735756 -1.3602835222391991
Ni 0.1112432732908005 4.7924137001683125 10.182342412713863 -0.5404083463961402 0.5907729148916213 -0.3563435853003153
Ni 8.727738690140288 2.629916170978318 5.603272325056542 -0.33624090101316934 -0.7476613726829704 0.6583026823124791
Ni 3.6249124699449897 2.6977291439021003 11.641386703286532 0.6646620488716037 1.4393472584415856 -1.759666346018176
Ni 1.4827133815778912 3.4457171435044374 12.735744460944987 -0.24379457285628983 -0.07464246720623918 -0.059470130341174994
Ni 3.053947236390607 8.54057124878631 8.297262665236987 1.599855058153077 0.12107941851253987 -1.6201552031630098
Ni 5.681963553301757 7.983995819003824 3.2120114586946147 0.3581937511351766 0.8980703933975631 1.1987220844522128
Ni 3.2820478971917426 8.340232091914027 3.592173166555942 0.08492122342442794 0.6936242404319086 0.04157936610368323
Ni 3.277611874298069 4.478128750320209 9.095768602604286 0.16893047655754778 0.6156740490086752 -0.40264195414622267
Ni 7.7566132848596565 6.526125983672676 11.17579792094185 -0.5882624897649418 -0.4364483611727064 0.35567432714743263
Ni 8.049345344787882 -0.3093289668939418 2.3927107549921343 0.7130029020688365 0.7748227635891107 0.17144295856675637
Ni 4.879525190721745 0.6545460862145717 1.214630337384267 0.6886599544480979 -1.5171287854974387 0.8992824114277931
Ni 6.3510212521135845 5.386495339908376 -0.5473543198985875 0.4527033895789881 0.8233178829760206 2.6325602401501116
Ni 8.162191222251131 9.178476795023098 11.003465703691305 0.0021427573746156644 -0.3187692265909671 0.2793516440252931
Ni 0.011736371225455152 5.142386817804455 5.65436112806274 0.30610088709467925 -0.6896994514562057 0.2681866285474091
Ni 7.418248366476017 6.270227458099298 2.0730580356384687 0.7016034019826434 -1.3325549459756791 1.0076153289079421
P 8.763281414554765 1.5524807498339273 3.498535813634952 -0.30411753811606335 0.698133698266488 0.23303116369219867
P 2.3240214857426342 3.277639144930612 1.683105261673092 -1.7722889198781928 0.3948864785705199 -0.31734149300550507
P 4.7279641052581765 1.1381125785527348 7.920759767241855 0.6837512042925709 -0.3676929488748635 0.328658203569905
P 8.852247308121127 1.773381963643691 12.445587657749913 -0.06915110507436478 -0.6391271378252927 -0.5984273461130856
P 6.542615626150389 7.9242458631019455 1.2128677455008996 -1.3266414087047218 1.0656726380619903 -2.1548335890539088
P 1.8111336092941557 3.2482323128383284 6.06795663142188 -0.02309853369067635 0.5430511833356261 -0.9209856074328397
P 7.02047892020271 4.199322893410648 5.822516393428772 -0.7027169467617962 0.2547410445654645 -0.01748427282769247
P 2.332766268578114 8.762726911693056 10.292250334031138 0.3311989677138877 -1.2908447107210865 0.02075368760758361
