# total energy = -381171.53542024695 ev
CRYSTAL
PRIMVEC
9.18932862238614 0.00000000000000 0.00000000000000
0.00000000000000 9.18932862238614 0.00000000000000
0.00000000000000 0.00000000000000 13.44951131043188
PRIMCOORD
 96 1
Ni 3.687346664959332 8.931586102168529 9.500680290100325 0.06002111774863857 -0.4544985338061979 1.759790530300866
Ni 0.37340835891239293 6.954143716392746 11.878957504285486 1.70852041927198 0.226401574190823 1.4495280556293293
Ni 1.5196668029634344 3.3083052477471164 9.385808171694514 -0.8171323229905992 0.16211319652539824 -1.4614070664551024
Ni 5.829912092479837 -0.07600861080122966 11.97953286559038 -1.3915885030000679 0.18435555286336638 -0.9912543710514153
Ni 4.313149117285969 5.391029768826438 12.135950856556272 -1.9545513376579566 -0.07931236187808277 -2.427136810872852
Ni 2.982368959270097 3.395236294266404 4.816592905371773 -0.5003335898624416 -0.015156396025464222 -0.8751137846013896
Ni 7.832487291387782 4.195038679557385 12.155547099336653 0.7674748078644718 1.4254010806741386 0.7558853032546595
Ni 5.419966963909866 7.996948701488805 7.934874788250139 -1.5456047814499447 -0.6108825411573028 -2.393907359395761
Ni 3.7704273828854284 2.547428857493735 1.2893629360531778 1.1181781641598743 -0.16859546181563223 0.6926464498996716
Ni 0.19954534694097997 0.2638219421934597 13.130179213945116 0.9748733585902306 0.4823991168712079 0.1931456403511706
Ni 1.6221461931096386 1.079185536171097 9.034171169591158 -0.6474361719116205 -0.9330294259712512 -0.9242737912658082
Ni 3.3880961861114893 6.565793509526826 7.0774553139870715 -0.47526713381211694 2.8764586855741165 -0.24660838815600108
Ni 0.5420031289208559 2.9012915149318657 5.000554989237975 -0.029444530513362193 -0.12410792092621854 -0.15291173253178827
Ni 6.011796469198257 4.135730754162514 10.680969573958437 -1.3829755645200763 1.0113413716092776 1.1097845407795404
Ni 3.7914893235431673 2.1830903656970437 8.759155706492292 -0.7617060237014946 0.047694734972801724 0.3266427158017729
Ni 3.534307590040494 5.144691442817713 0.9921864886217627 -0.036068463587783046 0.6396069056751887 0.2665120690584636
Ni 8.14312334810427 4.668996669655194 5.911006077609161 0.6325289157824848 -0.10672829199719037 1.4290425340814679
Ni 4.982490607499327 2.096701489552454 3.97593109035105 -1.7779144935950866 -0.396622230314704 -0.3749234051850317
Ni 3.6690599014737737 4.0431298920298655 10.265541173141314 0.17841553322984757 0.15288190773511734 0.01284523139378433
Ni 7.788424461783133 3.730150556575277 9.490997494781366 2.4941153337759303 0.055423471075627125 -0.308707728589907
Ni 4.470736909755234 2.255934171802582 6.607623332333993 0.01254081277948808 -0.5983360719508598 -2.172425848214375
Ni 6.221515321593941 1.3717737519400297 7.882247504590946 -0.4466690104594501 0.13518629022756717 1.3445188032057747
Ni 6.007018018438211 3.0840488778468327 2.2125256223789234 1.02703847062956 0.5228371702815964 -0.5339055122806159
Ni 6.217141201282822 1.0510386233287525 0.848031656385255 -0.04731549725651205 -0.6713983391541727 -0.527423246990382
P 7.376246326415679 2.7840448740714443 0.29622718980927526 0.464159968155362 1.3047654345672368 0.8647782070033365
Ni 0.8907886824264382 4.593956614065712 11.18247441375507 -0.006756601997543203 1.7379994025677037 -0.080404566500997
P 2.166292273409807 5.443748945769476 12.656581445519988 -1.1133714867998503 2.255958161711076 0.1796018402284649
Ni 8.508748345874821 2.459137790373512 7.4496837631348685 0.23390302477419073 0.6105786367636388 -0.5359168862836899
P 8.99028753189001 1.7767750218390306 3.218185504278337 -0.583884415301904 0.42537153453325455 0.5643671712045828
P 5.038242262809317 1.2331527332567902 10.162477341709844 1.673107844100641 -0.45040122380837266 -0.6674480962571732
P 6.460566510193596 3.2972045390583955 6.310658239455426 0.4559452935550535 -0.852556468126164 0.2074198908819976
Ni 5.731393302867439 6.55364521740225 13.099783672447037 1.5410462155449849 2.10306288423952 1.7755987009777163
Ni 8.438845124852387 9.121722495776412 1.784629140809436 -0.18096658178647543 -0.6323149999994658 -1.2135334384334326
Ni 4.812092891261785 7.985112846529309 5.255544148988059 0.02543515224365297 0.4010656107980383 -0.26537255613738164
Ni 3.508742878474251 4.320133006858343 6.9528728322771425 1.0920758106458675 -0.40854494989421897 0.7891507501760088
Ni 5.35758061350612 3.8921124693556615 13.497257044533288 1.4517775137851383 -0.33450772037214654 -0.40328832948096993
Ni 2.3435636072791066 5.4348628652214686 8.917631188083519 -0.5417427489368477 -1.1844694311879407 -0.8659398314116055
Ni 8.459668142972124 3.917989618086984 2.190521775561753 1.250774582173078 -1.1199226576548067 0.1857272363999124
Ni 0.7542802903388414 3.7972142751268367 0.12091226395307926 -0.6061283143017691 -0.2073864665409009 0.3391333920696159
Ni 1.696616510339269 7.542040189132484 8.30066151820026 1.0178663172119888 1.1328151973467588 0.2370246011223079
Ni 7.319860607447143 3.0059303972484748 4.211378224358224 0.5616991374541165 -0.556927427097086 0.667693893719392
Ni 1.3830123005545212 8.07467204096662 1.2428961781430903 0.7852401022676928 0.4026306412923131 0.18414600795572156
Ni 2.045186114627811 7.729428973553341 5.385063137906251 -0.06993657709013762 1.1442332093757133 1.0522879892249681
Ni 7.896536910229159 9.08191432521388 7.4401213480177475 -0.09877458436775247 -1.067795340831948 1.1734283428824306
Ni 7.1583673504143785 2.1373183210128395 11.65833183803 -0.5320185796705482 -1.3011859447460945 -0.002587044000885867
Ni 0.22866449072642583 6.472301282540862 9.7067537359258 -1.1450438782024666 -0.7401113282498544 0.2607998491650347
Ni 4.036550332906418 7.404990545603029 1.3144920734539856 -0.0034743317018456287 0.33862791318810714 -0.3257130048986519
Ni 7.363068829512015 6.434275841684962 11.43726232721353 0.07799287173571084 0.020780684190777114 -0.7576943314389402
Ni 0.6394265505897966 8.964290921889686 3.5757000008165485 0.42146294350746766 -0.27439867089539194 0.659186113358697
Ni 5.6422751961925925 3.730986785458285 8.286942769854736 -0.4072102902431955 0.5746922072796747 -0.06818591294761804
Ni 1.1642879063418283 1.5031260118709697 1.5020416711215747 -0.5414663553470094 -0.6717199841596496 -0.011203324914987158
Ni 6.185548290296215 0.8670333496191431 5.318326559445186 0.15072912305817268 -0.9000511712730177 2.5779168417736185
Ni 8.752872043742832 6.723234272741938 7.4743240282656105 -0.8030190235176686 1.004854221223037 -1.0621168023899321
Ni 8.47755976533714 0.6974351049510708 5.579059049435709 0.8245291296753026 0.8538484474647102 -2.944880111571309
Ni 0.5826254739782725 2.419669624961214 11.359510500817722 -2.2151964064126815 -1.6104803990774068 0.7971947035264076
Ni 8.157568972325024 1.3701564301443223 9.729107696154426 0.3025465940845177 0.07299181897669364 -2.035695353428139
P 8.692498156255336 6.642083313776628 2.5915054710909615 -1.1261326431202605 0.5287491648906572 1.1459589338175684
Ni 1.5744168214794931 5.359813620303603 6.404778097570067 -2.1877377959810973 -0.406413505373513 -0.6885126302369563
P 7.020095526209757 7.73349065669938 5.777923467143381 -0.2689978115947948 0.2742744866127018 0.6717125279604819
Ni 6.851563243634311 5.811956144816128 8.676898352389463 -0.15560084932817717 0.34360993978373083 0.6384041436163392
P 4.639719469421532 -0.05840369548181629 2.440494480946627 0.4078756917413363 0.7322154704415454 0.6724221524329967
P 2.9056472565862146 0.9567836820868573 5.435081571237025 -0.49435603212276796 0.4756276024753292 0.19469035913047117
P 0.09974464601891665 8.692452209613412 9.170697021402685 -1.0953902197310812 -0.13916970035534743 0.40153200891149554
Ni 3.44091644566676 0.0696835960740388 7.338846678822778 0.2820315048503014 -0.11671137135183125 -1.677664867343704
Ni 1.9930366760446232 3.5185478918607287 2.244226048507632 -0.8287902189445018 1.542346165303331 1.8074022186415581
Ni 5.409537076193228 5.989429643909891 6.452981638544863 2.782897012865872 -0.5731117501664323 -0.6554698408493743
Ni 6.527409684863923 7.796621342702286 2.259370061685622 -0.07655562506855201 -1.0021134252531063 -0.851980541018036
Ni 6.898189895858291 8.203295070367304 9.370771673658624 2.7995217659067464 0.8093344242127353 2.6629097989762465
Ni 0.04275702604118305 6.125404136018336 0.588142746740448 -0.8844299197959931 -0.5398275341920058 -1.0060204736169964
Ni 8.23478689874168 8.966560686000708 11.338354829010457 -1.0520249653715688 -1.1105206476146166 -0.6547553312808531
Ni 2.867750466327701 7.727342996010013 12.749369769951684 -0.403306327203099 -0.66588229443195 -0.473461705172262
Ni 4.674363237431861 2.2799550762001948 11.888883816806642 1.9954239075026021 -0.30948034508987343 0.9994852436016399
Ni 7.106815218176196 5.519377118375579 4.027536520693864 1.3532343287019017 1.3634549779886453 -1.3857127609455815
Ni 3.8675769625685055 0.5443620295172091 0.34676298232810915 1.061318731968669 -2.275924063310042 -0.19313509882820934
Ni 2.67044639657975 1.8127144851516026 11.030522436384143 1.2197814762256733 -0.15297703855208494 -1.1326930699465974
Ni 5.2805280950003874 4.340064660124763 4.756366047138433 -0.928304509691756 -0.49174816218627565 0.07880842565847072
Ni 5.232045198442696 7.021023648376612 10.432490134436078 -0.4402019146778676 -0.679776535915539 -0.06727008600156802
Ni 6.872551669664971 5.193551101839177 1.2750863954747038 -0.15395534330495422 1.5936471295701522 0.2831468494016672
Ni 9.070299014135616 7.040063936789717 5.169427276963655 -1.5390857493845043 0.8808224049503927 -0.565856868376232
Ni 1.9871463165500287 2.4397758754669434 6.97540047081224 -0.27343810675433555 -0.3638679187018185 -0.31388233081231104
Ni 2.734918724526824 1.2759750035295045 3.2923194920890873 0.3710726639803738 -0.43066003662570346 0.45180838856854444
Ni 2.881130128455828 6.950780422203945 10.462912324986474 -0.5963514374206633 -0.16608760779211396 1.0879404483212556
Ni 0.5799807852691552 5.179776298590507 4.0611198402085975 -0.2744223250444758 -1.3743474565314329 0.9341373143234494
Ni 1.4318352022624465 9.03481901724228 11.095698666885486 0.0517575921882657 -0.7183119729865759 -0.0396590091525188
Ni 1.5546873334375364 5.94974093461636 2.3108679768863345 1.9772752616180334 0.5763755085193687 -0.6568433241581333
Ni 6.83858791195511 0.730584688166047 3.1886500839170644 -0.31438832391445215 0.821695002660617 0.024900362786105502
Ni 3.0033390066439885 3.496089173288515 12.805293265702469 -0.7070096605998791 0.05924361615266572 -1.0435223272171965
Ni 3.3285493381786164 6.118346731818884 4.723952529127071 -0.44414752958917697 -2.6331888748730456 0.10101041567680669
P 4.171265887026159 4.148219051437325 2.756033044356355 -0.37962261043291395 0.15121274756281053 1.8555044734654238
Ni 2.8140480312474985 7.9877318051189485 3.2920768938197313 1.052645115454071 0.055186929584788824 -0.7408826591982403
P 7.286319558842979 8.307878816713604 -0.21878871951138587 0.6925713736873621 -0.7118811297595675 1.1460777187836197
Ni 4.992332378199342 6.320576281581036 3.304853736005822 0.06694252745882019 -0.5784020520310942 -1.1164449835188515
P 2.1985560053684985 1.502161132390576 13.084638740336207 -1.9131648042913694 -0.20291660369500536 -0.6771329276451048
P 0.1158177002966001 4.774673946079275 8.055477371836654 0.05136575606648573 -1.5304836095377898 0.5943171805994538
P 4.59279875868924 5.808822583836944 8.619845488180198 0.6212669697154204 -0.5675535393523645 1.3510509478973378
Ni 1.1158509564260604 9.16787130292439 6.845128875899341 -0.890568171483247 1.6986260429764037 -0.38813784699277676
