# total energy = -340862.6605830489 ev
CRYSTAL
PRIMVEC
9.30600587968286 0.00000000000000 0.00000000000000

0.00000000000000 9.30600587968286 0.00000000000000

0.00000000000000 0.00000000000000 13.62028027040881

PRIMCOORD
 96 1
Ni 1.3573925901426014 8.146830938347609 13.488748962687232 1.6391245451766607 -0.9516526974993933 -0.7509642118039582
Ni 2.8658681813476123 2.8577998744845936 10.469881673722314 -0.6373641323875991 0.06222995247449927 0.4549158238492746
Ni 9.152484434486151 4.490529252581214 11.489563973316454 0.6009899646339392 0.0882906541172931 0.4582783125636043
Ni 0.15207967426313507 8.54848744643844 5.478171905464065 -0.0034352509337940837 0.03278542196113709 -0.03984078614602171
Ni 7.752954250945916 3.6559666695644695 9.735735544229682 0.15912660309324853 0.041515345634967206 -1.0546647169872612
Ni 1.8860667687909212 7.284359644509418 11.01399823807824 -2.6595622226602518 0.2870760092527443 2.4541943292112762
Ni 2.7206665758301027 8.859429011852562 5.846436604228617 -0.9583020844951109 -0.45029966523350196 0.5781457130459139
Ni 6.389512757157453 0.5072284887223373 0.029850874192047436 0.8367105022328429 0.21901222370528733 -1.3917425120794287
Ni 4.255506080925462 8.472987822932476 12.646062236773815 -0.9954190439520663 0.24191895310013176 -0.4790690240567104
Ni 8.157318806668972 2.969816264000345 3.521468831698452 0.036340486302247094 1.4291438355460226 0.6650142900046998
Ni 7.678785386242041 0.659777185668167 3.2028228242406236 -1.3811521381580922 -1.9219610624267611 0.14881159432048566
Ni 8.092148849389018 2.6233071451485546 12.696579888222372 0.24319499159907793 -0.1315666911971089 -0.39342454931301274
Ni 4.532517949889105 8.582742853085236 4.577504111603659 2.272616081982731 -0.9692706676914725 -0.7979948308302
Ni 1.4239305302470813 6.692609359843173 6.154214127735673 -0.6855496909538903 0.867808509189228 1.806581779622792
Ni 6.197836959628507 3.2618480260169425 0.3677640356627872 -0.48547158514894456 -1.5671490832796235 -0.807004747638294
Ni 1.990777943903593 2.492287892179189 8.199926353349861 -0.9086409698245577 0.2665400940829216 -1.4369137092994286
Ni 1.7414421356211705 2.621120233830436 2.037321000356536 -0.935440349405589 -1.4481779693593382 -1.5390191578126269
Ni 5.308108375361502 2.515701802291478 9.757336644449333 1.3573923167343334 2.0231049183576384 -0.34066576955374234
Ni 2.181765097017472 0.26084919842189985 9.99822539144045 -0.5135842842247607 1.197768462289692 0.6677653703872757
Ni 3.8790502360238515 3.439062290829475 1.9866404938098239 -0.9080516729799911 -0.6637601058826246 0.4737771795301517
Ni 3.01715591453342 0.3728590737337246 3.3652852089617395 -0.5100736999683408 0.7569883065108511 -1.2356683226592589
Ni 6.2813955839918805 1.9020079563991694 6.86724958350425 -1.4009267496818583 -0.5599057929991196 -0.02229223573929709
Ni 6.041561207436265 0.10600098749008184 8.937859096524805 0.1780820611498288 2.0213313713969834 1.6518813306216973
Ni 8.394919741878423 1.4485914451109791 5.3148515070257965 -0.43117785680238646 1.2369135079202698 1.1368623708329388
P 1.216453135194022 1.783682095080504 5.984151528233672 0.5626753853244567 -2.0251389180685315 0.7713708004847682
P 2.802587343206289 5.597339029689785 1.819260815724902 0.015253326614644697 0.47150149612209763 0.03268154939342113
P 3.69993754606708 6.609525341765859 5.566118311472089 1.027979494386591 0.14225990924489695 0.1698329337671591
P 3.077347158812549 9.149301780567868 1.0947668752499402 -1.4093558542858178 1.2081788589897386 -0.046363931976520154
P 6.772129177772233 9.206654693136246 5.271688391810049 -1.291201322729557 0.38779203361758374 -1.321585334338053
P 5.777596358336466 2.0114558883668314 12.240123104901715 -0.08209378127796185 1.192367345878779 -2.0097457234419127
P 6.984687651887816 8.523714859507233 1.6204314916843032 0.7460917142030054 0.8437234432155661 1.5651767900446012
P 8.265166105671883 5.231724681322681 2.1886971405956297 1.1904325907499111 -0.8712537874253511 1.1300474047936344
Ni 3.933173964645901 1.225610244713296 8.288661908633532 0.5297727210591651 1.020721527272597 0.059011702647517726
Ni 2.396798968625054 3.3711470618948605 13.203090883912253 -1.8553522641582756 -0.33848624540392025 0.6187935684742634
Ni 0.6820278450793293 4.174571750143831 3.322558545409055 0.4711898784189498 1.9109443996012834 -0.2101277767314639
Ni 1.0240049391995272 5.503581023178927 13.574733662712879 -0.8086317417187558 -0.5436813607204571 -0.6200582941192999
Ni 5.7515116246143885 5.567522587718491 5.2986841834812495 0.2686676819488857 1.2989799382337113 -1.3366735961297431
Ni 3.618435548943299 1.6004282326277188 5.953764628118545 -0.8356213829337222 0.23928742901455563 -0.44292831247009523
Ni 0.17913316316911168 5.394514637441235 7.653330669099694 -0.998137471324494 -0.776199075111347 0.5387348153484592
Ni 4.927315931846089 6.584762060840262 7.325857915321713 -0.7224655901436331 -0.292885931066302 0.6796248408290231
Ni 5.005225810804789 1.044906227797382 1.8931914466851854 0.9626256515711293 0.9748353062634436 2.8437974478956702
Ni 2.5069262390021745 0.8898253667253386 12.45882447331981 -2.1720761781844398 -0.49187003247612066 -1.130064631184815
Ni 8.224526779177301 1.9279531000371117 1.4321728594149885 0.6177877529175683 0.6977503467851403 -1.5967882463022953
Ni 5.656227433183652 6.4119216186639685 12.850107576958269 -0.9823095031533017 -0.7068147709802537 0.25727846627533757
Ni 2.3621434037370705 5.0400209657769075 4.848015735649402 1.5527344505161904 -0.45999529525471095 -1.5565656513368225
Ni 2.2604101504192844 7.24045391004607 4.1661032850396245 -0.29001632282799084 1.3648991666343397 -3.48842109005916
Ni 9.145737580419613 8.8511094428381 9.894996663021296 0.07532663775745738 -1.078452563435478 -1.2507437289351429
Ni 8.973455498579861 6.228770122272883 9.872782297032009 1.0545852698995772 0.1175832324338233 -0.4442691427687059
Ni 4.5070381065316125 0.7041835832332796 10.696401017452548 -2.5422361005425573 0.7932781420808208 0.7373512490062141
Ni 6.258540034216131 4.176209607131018 7.092923941925184 -0.7033334972998726 0.38049087197048015 0.818407847268913
Ni 1.2077892439720264 9.125478406208781 7.589642227912696 0.05853630567299596 0.7572976102211538 0.99688585830558
Ni 4.294200452247759 3.8877234332514563 12.237372249643688 1.4282413783364114 0.4345436879508258 -0.11870217652961493
Ni 4.6044812912636415 3.5109418781535306 5.338550180909722 -0.1038373436026405 0.1592692993186999 -0.7843684982960168
Ni 3.941847161873506 7.10473512424415 10.430492143781024 2.7072387028006086 1.0599244227243036 -0.46419776337183283
Ni 6.78884276384603 7.412549871773642 8.451234104220834 1.6509477630638338 0.7277414938305918 -0.2445113964176563
Ni 6.493581817883102 4.311816720865631 11.67646206756573 0.8036402020414353 -0.2849216819139029 -0.435957794689533
P 9.214443819830993 7.099607515153581 12.008196971912643 -0.24904116596720977 -0.41729415684175875 -0.16202063681159193
P 6.787586453088813 5.425373352040739 8.696875428276478 0.7702279451295767 -1.0728946097317265 1.9100995351024845
P 4.15837930038414 3.6658310355100285 7.727724739139307 0.08713057237092092 -1.0987462806875077 0.07139567813416736
P 3.336147174799343 8.571771072472202 8.622821958042154 0.7312567060727019 -2.1033333642920873 -1.362142172714493
P 6.183049716715776 2.469581238493185 3.4349387997441188 -2.481803092067481 -1.0305053461322382 -0.06276551326299513
P 7.736529151045999 4.439364833742832 5.4682423974792425 0.8799844824301296 -0.028627948149337792 -0.34400434700867205
P 0.5956839332371765 1.2830376053265466 11.179376194356662 0.7443695893055762 -0.34029167404377525 1.2545710731010329
P 3.0647375212123293 5.083600990043939 10.927618963414773 -0.6982902784490103 0.8574279372858523 0.36312178456441335
Ni 4.745979106548762 6.481772496765259 3.153326041607378 -1.8916079040562004 -0.3574316761581715 0.44806126282128644
Ni 7.644381083505502 7.389042901605263 13.546362443412665 1.4914504068947283 0.1359553071831078 -1.1183943939357384
Ni 0.9436382747600468 6.844604349455267 1.7823085286526128 -0.6576303388358029 -0.024384342381635424 1.843322072466619
Ni 0.7391732337226269 0.38158159279105736 1.5962963661373148 1.033917971358213 -1.1968351518421452 -0.31444257419115523
Ni 4.937850330195498 8.173939332686677 1.1559138463051157 -0.18443011485504365 -2.296997596150889 0.9083949152520226
Ni 3.0680690712203584 6.378187348331278 12.958402494830974 1.2037951280997463 -1.269884820639968 0.28999652533364895
Ni 6.902310890236787 6.597278638384391 10.724267851248753 -1.489724682452873 0.4243263810981918 0.8519296331754423
Ni 1.9799829773971322 6.8192454841706915 8.880504322755305 0.0866304928060508 -0.3903914189136438 -2.2923271872584134
Ni 6.591639198985327 6.398390686508456 1.796228451842582 -0.6226725918136954 0.33372533368016716 -1.3706119007484008
Ni 7.356257843844691 7.293600508079173 6.116922171458655 0.04441966376595576 -1.6392978375297318 -0.0462510605477397
Ni 7.677724501602614 0.059897174501884254 7.122970242235021 1.6617050015803383 0.10697177546656415 2.7548341931913845
Ni 8.358626320003252 3.031003250879639 7.275109474934054 0.7712201338395168 -0.1858388222771122 0.5301499018929257
Ni 8.92703714260208 6.103148352556747 4.305711050585554 0.1557042076752609 0.12343763433207128 0.16067877807171682
Ni 6.837382889102669 7.564749593509133 3.803204429109232 0.3086321381569652 0.5532134685806085 -0.1479268777226872
Ni 8.908629863507441 0.1550240944378284 13.268004926037959 -1.1798866969132649 1.230937235732177 -1.518672732945791
Ni 0.7829570595124963 3.8297284062960553 5.877341848856166 -1.5371317109819267 -0.1433055769005919 -0.8398248794921084
Ni 7.8177891920239455 0.9855059939950193 11.080547345389451 -2.469290818533083 0.2961859419738125 -0.4372957967746663
Ni 5.12994489797685 9.038718515915905 6.79124836629596 -0.2613456943661757 -0.8067211549596042 0.03796439505891526
Ni 4.082963430928657 1.7725893363945542 0.023216622793378418 0.7250531483651512 0.4496550896709675 -0.03184619797631935
Ni 2.440574419009875 4.87564898870482 7.143591420064044 1.4886803003487588 -0.49874361966750225 1.6918524716979957
Ni 0.7055999572869722 1.0145593435063738 3.7161569832430374 1.0048135977930888 0.948964609144269 1.545185434524339
Ni 7.8767985735907295 4.912882317146502 0.06928414235970083 0.45562364854957665 0.17625349258152226 -0.16685893874049973
Ni 4.792639418672379 4.985962379194121 9.608139970723872 0.5521444038861459 -0.9384200008592032 -0.671360801048018
Ni 5.968099599158676 4.285006118706049 2.333439960036615 1.6129304032797964 0.5954903749719487 2.8446834500450495
P 9.009814062494295 7.557537439162145 7.679386554204385 0.489925250044924 -0.3347707442255461 0.47318634002368826
P 1.1967895453421669 4.115301800419995 9.371038768015625 -1.2690741518132145 1.2195757879727707 0.43817434272487765
P 7.8858347050370865 1.570732768729342 8.869975508009261 -0.7932388042024533 -0.4967042206399704 -0.08025955628270048
P 0.3598530002945609 3.328181233998024 0.306340676241024 0.22999803329282972 0.3701064434123626 0.1967071324501838
P 4.762599632566468 4.84418538374073 0.6747282142796155 0.14434121725395788 2.1176598082170885 -1.7281618476519918
P 0.11582812941320499 8.17495368729806 3.376126705496246 0.228558986853458 0.20996554012198676 -0.5928398247229789
P 2.5486822861698384 3.095679989862315 3.955097983260187 1.2061991095555484 -1.0025320008477636 0.6746456424468767
P 5.778350144790797 8.574972338401704 11.182549542269337 2.8399713892813603 -2.8982539270723375 0.07516697225114152
