# total energy = -340858.3730816232 ev
CRYSTAL
PRIMVEC
9.34153488940563 0.00000000000000 0.00000000000000

0.00000000000000 9.34153488940563 0.00000000000000

0.00000000000000 0.00000000000000 13.67228056746080

PRIMCOORD
 96 1
Ni 7.503989751842362 8.244680069601362 1.9917638128675912 -0.050860020074660804 0.7801490608980306 -3.017280319710591
Ni 5.245430762480525 7.759396662901119 6.003485125675902 0.5774420021106701 1.8433356993133738 0.17963783567272287
Ni 1.8745097984965582 4.447084490109233 10.608541513332456 1.850783928061303 0.9361903401977361 1.719755111645535
Ni -0.16475478618050124 5.1537622785838275 6.677664647705147 -0.6998743351066785 0.41409364762659007 -1.8695121005984254
Ni 4.519163774909692 3.543851461680455 0.50985070984912 1.7902552745486262 0.2650714799571951 0.01339878990440918
Ni 4.3105205885413325 6.180294228744236 0.4743977158529166 -0.6385962050224873 -0.23709144980450134 -0.5066631316248952
Ni 5.344581815989088 0.3447138548831938 10.342546906395935 1.6004834357656952 -0.31700982069769923 -0.22103645322416773
Ni 6.68738077835846 2.198847897028435 6.97639105946442 0.8554782697586493 -0.7209962046869584 -0.7299888951038718
Ni 3.1225295457822777 2.5244751274035546 7.513547076399043 -1.1096755260055018 1.2669573625805277 -2.066288652833964
Ni 4.003595111428333 6.8352946450679575 2.711828955288212 0.343514294746131 1.5256813030531402 0.22267810259264875
Ni 1.6918267381598824 3.9310207252677865 6.0001492634931335 1.7671672823809115 0.8254472706141978 -0.14261883524621244
Ni 1.7265679071817732 2.4495933820743057 4.100590138636748 -0.9580966533525239 0.338615571892933 -0.8507446117284058
Ni 7.020163624617088 1.1631425594037892 13.593993373116557 -0.4665444092271384 -0.8525937491220027 -1.9838336315618414
Ni 4.7723847667559935 8.530867338801322 12.994381720837337 0.5343359149498152 1.1447240329692028 -0.5395020325317871
Ni 2.3238843442879156 9.156086941239108 13.249205720106106 -0.4063453711397389 0.12829624797595324 0.5687922968554721
Ni 3.3943869001450278 1.0845428831063464 11.30362645675296 -1.6004813788831662 0.343452331159944 0.32266187677715397
Ni 1.1301669405150354 2.293533696761128 10.404345831823285 -1.878827207351764 0.4950597430580119 1.5805918390480906
Ni 3.030926452631253 0.26126872433147447 8.136565813168222 3.844224486585289 0.6309646566191585 1.9405228845893483
Ni 0.9933975251750239 0.19052714735675683 9.495973090784709 1.9790007289495726 -1.2055437353597367 1.8618604975904387
Ni 6.182779077079762 4.421376585525139 5.976960770924422 -1.1315427583922384 0.12253569134309221 0.26640613960821863
Ni 7.605896558204235 4.170173365259566 8.120118172324757 -0.057313231899172264 -0.05512265200575668 0.3158026877634755
Ni 6.233466246510464 7.1217528187856995 9.96642307390607 -0.1782692374599704 0.5720151746681439 -1.2892573116293087
Ni 2.3354304816665272 0.4726060094215107 5.730804782071198 0.5019405293382452 -0.09218896073043478 -1.8836081736801753
Ni 1.8698296894134803 7.9718231709833445 3.5023600993982207 -0.5937122000256034 -0.6472939899068013 2.4064245180261654
P 5.949857240996991 3.7341758977256294 2.1844750111297846 0.9425633336036154 -2.67556579717736 0.18851482644737855
P 9.240627833857586 6.733938989276745 4.348919902706802 0.48387647274768286 0.9976394486421528 0.34984409361890073
P 5.533589095585731 7.815090895143258 1.2286323253475557 -0.21389752818654129 0.012033277015450244 2.09694494426724
P 3.137513368076205 7.222249053348081 12.425600870988836 -0.28179753446262434 -1.7774005300731457 -0.027831677500287554
P 0.1047372914959505 7.242697673673147 0.21609212645388204 -0.35200510582596145 -0.5342266430654606 -0.40088717623864506
P 1.1611528124283488 0.8550690076274957 7.365886365290646 -1.786413532205033 1.8176611773654052 -0.1610086506073098
P 6.649650318105862 8.565991510762148 11.713781501597422 1.062199077691093 0.008543518694636898 -0.7473042464538678
P 3.970030975828533 3.9026224585760554 5.941603994739707 0.25319015513857684 -0.2094387210842393 0.07709015741578336
Ni 4.564750466177998 1.2523448780351512 5.982087405385087 0.8091873571119097 0.06561686666886118 -0.35243550849516075
Ni 0.3118269805778518 4.72841416105929 0.1694554466407904 -0.1471041247110757 0.10507687243669644 0.23388811237585527
Ni 2.2261064964384585 5.133463122820297 12.863264868383892 1.5504955338833426 1.9220415379557092 -1.335871669053738
Ni 6.154502250344279 4.530569789261865 10.036315505340566 0.7759874733211732 0.12192479723197067 2.6755570554266113
Ni 4.266363152142709 5.977396086459894 7.082747238992501 -1.0137150140477769 -0.3772191431977439 -0.41420343373157703
Ni 5.076760004787794 2.0369871184206634 8.631105746995056 0.2775557284671349 -0.7690658065006755 1.2837235262952729
Ni 4.509289772313258 4.719633118069083 3.2460451911281356 -2.3800416571572622 -2.7474780099366294 0.06786863881751538
Ni 8.548999258422588 4.054450428490762 11.070145062717941 0.49317640999236995 -0.5167693668209616 -1.5168763031670003
Ni 8.657716043869419 9.170510271427277 8.201016800409317 -1.717255228041817 0.3754972754106307 -1.6646507144722231
Ni 5.3852174936565325 6.156445289644239 4.438309052040084 1.6378796170259664 1.5303082603021902 1.6641169534559406
Ni 6.415448691714943 9.180337566348232 7.802073465987031 -1.5879518789575877 -0.0854848092373818 0.23414059470629353
Ni -0.25964703383881504 6.97449285953292 8.17100618476002 0.8017689531606514 -2.4165924596981023 -0.28679215946373837
Ni 8.31653515755952 1.6310880769659235 3.8452738404684217 1.9166049403211702 0.1815617921683131 0.5154092532486414
Ni 0.2594312443780983 6.104048619290976 11.694571568826081 0.4682235967017743 0.8817631715971073 0.4975686255227946
Ni 8.774457207963684 6.296241362355343 2.040314573221846 1.2532988912568286 -0.6586628938653754 0.9556098823749285
Ni 2.049822387642518 6.982330407478433 1.485438598363688 -1.3598022117274065 -0.6136264224510269 -1.7579236522954562
Ni 6.154296736572168 2.065749704981137 3.8317117998161008 -1.1303538802904598 0.7179941846358409 0.31462923628066464
Ni 7.729036673839236 5.062392723810202 4.304130044382183 0.4607337160826323 1.4866473290791298 -1.1915949864891284
Ni 2.8444600705807117 6.9742966872959045 5.561856580786118 0.13350067499502816 0.7063918245102222 0.24296924874151704
Ni 0.3979279095573538 0.1191905145964263 2.621468286304951 -0.39692742025994865 0.5965995488757274 -0.998015858144965
Ni 1.3337003071859035 2.25228147777735 1.3691009885855694 -0.24718097283001944 0.2808665380079227 0.09857532387275281
Ni 0.009182728999332798 9.082597084639158 4.911138324150388 1.698416755179075 0.17164813259902698 0.8205925136250578
Ni 7.037127852351359 7.135326069280135 13.352390448469107 0.7337491334772525 -0.023434833984172544 0.43912616511518565
Ni 6.454954043635776 5.72244691062084 2.1413115140653725 0.10698411676173833 2.127265449627653 -0.6631600104047805
P 7.915092028345554 3.2509849948868816 5.302685031083688 -0.8247186199782893 -0.20971588600502591 -0.475951047253019
P 8.123651140898051 5.773386301499132 9.821031421672483 -0.06947095030762875 -0.8351940655883165 0.27890401496491324
P 8.681238029241058 1.810903286028138 8.880515392522202 -0.14708407010641766 1.9960767105952526 0.7660619866773453
P 0.6536599060374502 2.218455779194864 12.865082731113565 -2.075946487638702 0.031220905687494617 -0.03222954945766708
P 6.1103354724105605 5.060926102800135 13.454959569669283 0.6643553162644623 -1.1750458238811956 -0.5769385801116903
P 6.29266355441359 2.403931958525233 10.702757433849824 0.7610293093494441 0.4285926125737135 -0.8518013351276943
P 6.699309918676007 6.2288048204975786 7.316762034681499 0.13267483665962312 -0.1790138289354788 -0.3580423131589769
P 1.8665227859895086 5.526629651939238 7.6321957819599024 0.10164702081954106 1.478461450834228 -0.3465235138860999
Ni 1.649388144218917 8.214787157294277 7.208614148722012 -1.80317892458883 -4.255473979894865 -0.011378674150586854
Ni 4.154152632569987 2.2662377312107207 2.5113792293525226 -1.5950931179880592 0.6559588646706509 0.0013524002628363804
Ni 3.8869660457552193 5.719224081012732 9.878550989872373 0.5816259582850305 0.1509749205203916 -0.39237451078194363
Ni 7.891140332359502 3.19758878027835 12.98621908747048 -0.40917487016873405 0.02275580563927694 0.9694673570833111
Ni 1.8650374819092503 6.95560427556888 9.706608826589036 -1.757093185974361 -0.7669461890545113 -0.7977662597591615
Ni 2.671809818937102 2.7976402966797393 12.840267877284646 -1.7835439239667217 -1.0878646007779975 1.1313013318053935
Ni 8.006470924654277 7.817174057469657 6.3088552371954245 -1.0123718697563209 -0.9201129750198991 0.46664082559568665
Ni -0.014984756447436158 2.5002525268997196 6.574220224666479 0.290124566271081 -0.6711461139340507 1.3458138678681144
Ni 3.4417204584762784 8.31296669115286 10.559840354263157 0.8045981950793304 -1.166292760278914 -0.3380874673036048
Ni 4.224746613290189 3.9245657245164756 11.876344763644411 0.39115272255970057 4.511568196054114 -3.147069607292303
Ni 5.075059845400329 2.135717802849909 12.448461475675678 2.823179257424686 -2.472750494946909 0.18334742331382617
Ni 5.135807848129384 4.326616053511678 8.198146146674326 -0.48474627694714584 -1.4207093316254242 -1.2389079126424793
Ni 5.225953661805439 6.201957248631777 11.823023281316647 -0.6018317438089441 0.293439746687243 0.4098279303717006
Ni 0.5962711193289039 4.335929564002354 8.910758612395387 -1.1822441414018479 -0.23010370563275853 -1.5150734456303068
Ni 2.242323401365052 5.54738654292247 3.9135399106427093 -0.7404820813257119 -0.9267870446059652 -0.7246944794741519
Ni 8.266894240059566 3.850674181907399 1.7702732132817514 -1.0140762540419375 -1.040598725812498 1.2025232033658582
Ni 3.2840540291265947 9.059504809881934 2.1247956800157075 0.26669410316228265 0.6253964185027616 -2.2237283551430926
Ni 9.140075550084626 0.14213706140615273 0.15749547925742743 1.0034935934300846 0.011881581928934376 -0.6310379330592552
Ni 5.537633980282284 0.6573049730318955 1.6812670668874043 1.211268553658656 -0.45303737587963916 -1.7898518684626206
Ni 8.4707358773886 0.6941330409942247 11.229905864236141 -0.41718437073677184 0.9884670381142655 0.35012177276031964
Ni 8.620602124933153 7.8226762216411805 10.179177469870165 -0.4141432699176029 0.8990432988337936 1.9175927581557362
Ni 5.309364228677303 9.035973482975201 3.609659773970994 -0.8456129469287953 -0.9139351283439615 2.423157771620446
Ni 2.691968851674192 4.4599851500767596 1.3261028366923555 -1.9092348731093443 0.31327477913529916 2.199614492814025
Ni 7.428799735854946 8.055635423864334 4.073683715099842 -0.5584922004810445 -0.9062164195434651 1.7134186279045458
P 2.9589872908572326 2.077538722272244 9.521609065548564 1.0855269537837562 0.48815684529059156 0.29670530481239227
P 0.9249745172111247 8.657940240711723 11.585822088006413 -0.6969342786417481 -0.533719621522055 -0.37498793987438
P 3.9325714200937165 1.215623303572916 0.25120041780504426 -1.015517100253522 -0.2588167572967349 1.556532484106042
P 7.821629969710433 1.1014697447002335 1.8089798639518788 0.7783099508067629 0.5383910588557953 0.9248762007364975
P 3.1608578642810192 0.8650317548073416 3.839436315186954 0.5816048752391081 -0.13569896819792757 0.6007040579624042
P 4.29170673685806 7.7799854062526235 8.298103374661672 0.43869139157061215 0.2320423174163681 0.7394904068364038
P 6.659412222281143 0.3007992983970661 5.553790165230754 -0.4350471099498056 -0.4334900498753308 -0.17883462304513717
P 0.8421421913617005 4.215040758325482 2.825390260835811 0.7578126021843594 -0.8798962935916975 -1.0079865962044319
