# total energy = -340874.6620036277 ev
CRYSTAL
PRIMVEC
9.22237836781715 0.00000000000000 0.00000000000000
0.00000000000000 9.22237836781715 0.00000000000000
0.00000000000000 0.00000000000000 13.49788295358916
PRIMCOORD
 96 1
Ni 1.0837308784615405 7.526899259147288 5.089484660286968 -1.8063184986590761 0.48247779262794327 -0.28628410947906824
Ni 5.794272631867063 8.601776654587468 0.7524759667417126 1.1323367150484434 -1.417445573272488 -1.7215677393742415
Ni 0.30961736811074897 5.713595267834917 2.6617415693896684 -0.16400115757673045 0.3831907874001465 0.6681011564601397
Ni 8.653606419775016 5.042907039454279 0.35708955962372035 -0.2769065249189102 1.4035294774120282 -0.09405378185331544
Ni 8.743118822072228 -0.09912488704009136 12.139981687006113 -0.6362084215166011 0.35660840892592777 -0.16193116242157918
Ni 2.2961415992116656 3.4944420813964974 10.68773103344515 -0.18455532757899828 -1.2277421258336467 0.6739154491490716
Ni 9.016968118776681 8.743257157744436 7.055559190084171 1.3551246037460791 0.4290649242244417 -1.1441439920960166
Ni 1.431488313638058 4.054793777623431 6.145032873368325 1.087543727103469 0.32854816035460194 2.632463566671247
Ni 0.362678320780954 3.577295926671395 4.22520211431488 -0.8034674239089968 -0.601417539089661 -1.8759396013913243
Ni 3.263956406740416 3.5832720277108137 8.121513934666886 -1.2734349998850714 -0.1061053137012108 1.0749756606304712
Ni 6.066397343857981 0.8744133283668426 5.157108670289495 -1.2443776775077988 -1.3143978154506781 0.4626556156956935
Ni 2.585410712178321 6.63370271320794 12.133948407222181 -0.1546863079337078 2.0742215345277955 -1.1886682997606368
Ni 1.941061595786231 1.2996544180231138 2.666439448817878 -0.5718398254325441 -0.2509692362278581 1.0455462996257605
Ni 0.2593369624519398 1.3601808858035183 0.7105325909280178 0.6539053245757319 -1.5209273333079225 -0.7666931925034409
Ni 5.008535236099478 8.354958148232607 7.520385493461886 -1.157142975458846 0.18696727945460057 -2.178950793817086
Ni 1.9143074767810577 5.596203616398567 9.55555592481392 -0.05572583280739435 0.055295430138195094 -0.43584312348853976
Ni 8.116310668916208 3.8597681469435274 7.451222268546581 0.7551533101846415 0.2942316464609191 1.3587899684128084
Ni 6.513608904974446 3.501939874830212 0.6207877847014949 0.08380870708653952 -2.213972818418226 -1.3090802598925069
Ni 6.000835457609178 0.9109966580013553 2.6772379313904935 -0.2792827384605706 1.9427584587880864 0.5590897248557275
Ni 2.9574322242602546 8.910394316907055 4.498358810420474 0.5327996808109469 1.3179101994793108 0.22810364448359427
Ni 2.01140067391531 1.5761136477432387 9.123853637027683 0.34396552335093666 -0.4285087946106556 0.27819104805828865
Ni 1.0198197979010952 6.6534109353086155 7.3249365556250225 0.3427511913278613 -0.51931373050937 0.20996065502598035
Ni 7.082574302390912 7.835664479517231 8.492408472139227 1.028829243981396 1.1056396653732312 3.926879282573043
Ni 6.75797425874214 1.522789857295837 11.980342321277208 -0.45562673387337016 -0.5368550818272432 0.6612869617517837
P 0.781953454013769 7.155993654821172 10.88523287265759 0.024696988526047785 -0.04543782061782497 0.7099286340188871
P 1.5281941708901257 5.470004593831592 4.602778264754901 -0.21637864273718216 0.872896979455729 -0.8305352266600664
P 6.446294766877666 2.737847400574223 4.202659855409555 1.5844145552282907 0.20439395957148027 -0.731065158887186
P 7.1835040088344195 1.1004602724206527 0.7214850872156924 1.1790210064788598 0.4774754543173455 -0.25669636851962246
P 0.16570584607416552 3.574492323714631 1.8313116068826925 0.10542114314999264 -0.6710813221343863 0.7427215121791918
P 1.0791934684130933 3.5264990678363395 8.427578842715315 -0.7283205062625134 0.24225705316584084 -0.03706733716594261
P 7.8107363913852135 6.161507729690574 7.4591055573868505 0.22373611154351788 -1.6209607297834407 -0.03473997458434662
P 7.782156241506884 0.2873397914582509 10.260712791519904 -0.7048931284775086 1.0921318606947836 -0.8166427849486904
Ni 3.621747789341142 4.933787861216013 4.669511393028406 0.6646700192914038 -1.0705361368018789 -0.3631593226705681
Ni 3.4345427353301066 1.2563645749999204 6.976164658852307 -0.7090416034282434 -1.3980535418991213 -0.20058178491424164
Ni 8.33089696364643 8.967812843251837 4.628599079091574 0.5815385407775469 0.3498464076117459 -0.7512105234868095
Ni 4.999386636977405 1.4763367385681367 0.48339463953938805 0.27331186558911635 1.5949421942324917 -0.640575183125729
Ni 6.484724416617258 4.292574353393988 5.753931183137546 -0.6454942176939011 -1.843521332961619 0.29449235632147347
Ni 8.584309470376576 5.470355044201188 5.630385438763535 0.3733406340789441 0.8689256535128067 -1.4164731820568894
Ni 0.5005012287647228 8.578075142749034 9.238234181998957 -0.6477999830089425 -0.1758806826231358 0.8794707760185048
Ni 7.540262485082654 4.47113803908105 2.5304748500307803 0.7399704317966159 -0.7524662502707815 1.8844741212248968
Ni 2.094687970963128 5.859105950242234 0.8268747357312111 -0.25419982735001384 -0.781147677365874 0.6341127153298369
Ni 6.586760808438437 5.201513498830692 9.805982225499985 0.48720399445901896 0.29733573930753954 0.8725907610692196
Ni 3.152365631158686 6.9003862220919805 5.8346214584990985 0.21508023564073278 0.27680882299878135 -0.0022625707819315874
Ni 4.150263836203767 6.910457059028778 0.49159794490136727 0.18278949392782715 -0.5968417467935204 0.059819543260793744
Ni 1.8929300042357313 8.960379606465152 11.891715267282132 -0.5112268397361777 0.4380442449049166 0.6627442630236006
Ni 5.417390926501529 5.892795297614139 12.068254640965874 0.2666863898527988 -0.7287192843628288 0.27437990184231453
Ni 5.26437322828235 8.32218181629728 11.505527260128208 0.09397716297910912 0.1269423050512201 1.1524098316492346
Ni 8.053856724103028 2.090408787502804 5.748086962105634 0.8719618692359693 0.8474877953540051 -1.1396535604248308
Ni 5.821995100577698 7.885603657184592 2.9075114913491884 -0.8136883303060566 -1.4339021761666142 1.3666246339658785
Ni 2.1914399401059317 7.088246064951472 2.9710868773450736 0.8775733018854758 -0.4000050307440079 0.4634110058044793
Ni 3.764039861775068 6.54532466342284 8.41166470698442 -0.7347053267429347 0.12768638230609622 -0.6631479262199224
Ni 4.034144872951737 3.919861162951011 0.8157341029293326 -0.41628345618905727 0.15623565469869868 -0.391043707785662
Ni 5.318895927888894 3.971432701550435 2.7912680259921707 -0.8942229946270149 -1.4876215200669411 1.2264578598045845
Ni 7.995165509573927 8.276180594098793 2.0051506682449185 1.8651018873458716 2.07836538149284 0.4593525194643895
Ni 6.031029523663275 5.9216152293242965 4.249308488553978 -0.34346390112416975 0.31285080422400313 -0.26633157761654136
Ni 2.353071339514642 3.880020489354889 2.635636705806062 -0.16553996281876007 0.4809646984175265 0.15097723451323677
P 7.843328275757596 6.943021276266719 3.7225271710208503 0.5513072526968311 -0.20213241723081316 0.6829320508253851
P 5.0507091713668535 8.033060261380978 5.036235571102559 -0.45783016928259224 -0.7084872735866701 -0.15882912645748776
P 1.2104279094484662 1.8646910823488507 12.053353122355546 -0.16087032525723263 0.3593188658785554 0.291384149709795
P 3.764731540136112 8.910265203612994 13.158910603178185 -0.0565411296198381 -0.8052484270688196 0.22905083888821198
P 3.1563589208964453 4.73251868053042 12.357730335203028 -0.7776612614791704 -0.3618490884995768 0.8759475933565947
P 1.1772826823872482 8.560405066218904 1.7344240687811243 0.2559818589511011 0.5120909875086859 0.11462055026107357
P 0.9323270964181308 1.4407568036760448 4.5776445175902 -0.6567083412421658 -0.4728312706771147 0.617437311556685
P 4.238438993669628 2.415829622806681 9.89292250653193 0.1526116847928662 0.4178741977149448 -1.7594693995160213
Ni 5.3681434271952115 4.426391060310591 7.958891129607347 1.1328586489901844 -0.10533295431156055 0.9489435260983463
Ni 0.6209897547829196 5.0113572838125355 11.623337607532443 0.3112068408626769 -0.02299697511580556 0.23883002976216292
Ni 5.079510658320716 5.996141267132227 6.516116469592683 1.1556825888632356 1.4059913086889593 -1.1457712432867944
Ni 5.265535247928904 0.3248361365293415 9.35377582437897 0.23624349998190927 0.7692275288895204 1.8903951146950215
Ni 8.826120225397482 3.10549750541436 9.980752747055083 0.7604613526611161 1.514785996296875 1.415838376686368
Ni 4.151453522984762 5.09378689969266 10.146965823927347 0.6488986153897599 -0.5718115432977701 0.37348410163534385
Ni 1.1566706672281437 1.8001252129399508 6.758295197501664 -0.31752892642596287 -0.5863531885573708 -0.16519800609830904
Ni 0.40614338898894514 7.459539009159772 13.569556357178616 -0.08259386084283195 -0.7707079700897888 -0.1730334429823278
Ni 8.563715899973765 2.9658430331305468 12.857637642815067 -0.5000944772684419 0.06880991968486214 -1.9942391431658817
Ni 2.7419790259841914 1.5327131361822783 14.032128711337144 -0.5112777475787711 -0.2962941854169026 -1.6245795574829507
Ni 2.7277673412592782 8.325354314379933 9.82093815614138 1.1091893303977025 -0.3119673731777853 -0.745819177267909
Ni 4.58000821310934 3.3015099305560196 11.974876217749333 1.120122946591071 -0.6742311806172775 -0.24479550331697839
Ni 8.512697704063177 1.6249184728984876 2.71738017675203 -0.7840944186990239 0.8193830666979888 1.9966079005083741
Ni 6.092496674014699 5.55554215114734 1.1358216369506549 -1.3445689397174199 2.3337923963817357 0.22005454892687265
Ni 7.960535479631002 6.478324086183067 11.65816130741646 -0.37083072317289684 0.6211404714398852 0.7870481020107091
Ni 5.445343954665844 2.10320022599304 7.729076844080384 1.3346946180265014 -0.9366629089587803 -0.4920394681744494
Ni 3.534494869690006 -0.4940787646229776 1.9871448971502264 0.31057717769847804 1.0298525430395877 -0.22825945333516817
Ni 3.8785172417168874 1.1047947901498603 11.489478477676364 -0.622999893246127 -0.5677553709505254 0.1406210880898933
Ni 8.713109203581075 1.4163636134765674 8.490978081288588 -0.8979405526879182 -0.08544932801375607 -0.2750352760381264
Ni 8.886646693177886 5.957988288737052 9.263272938668742 -0.5861259030379132 -0.3036812219095931 0.7546388324420681
Ni 7.046284244381481 7.80504618406836 6.311164793312894 -1.5022099594040774 -0.671098805635883 -3.7102568992561715
Ni 1.5556676353907846 3.575820346167835 13.72316244312359 0.25771375404054325 -0.08906892704421435 -1.3444136450864783
Ni 3.1930086516536185 2.4394942451325257 4.650371269421603 -0.7254208161172152 -0.7723606752018634 -0.6372507467381864
Ni 6.48770324475882 2.446835258137737 9.788637698918452 0.2960154778342192 0.809423898602748 0.3608430158325656
P 2.420772817493607 8.403403300640113 7.105474389568349 -0.3280565654301641 1.032388164977248 1.0838454523162753
P 5.377347360586168 7.253464969459461 9.699349400410217 -0.8515293124132302 -1.3812125590823825 -0.14020945447377142
P 3.9925150579950497 2.117089127482799 2.445033205447764 -0.2053882051639495 -0.17956584478420687 -0.26457114328200887
P 6.643450766909584 3.8255900135298173 11.857822105353174 1.4964612298457582 0.7949542442316632 -0.9464030190646797
P 4.295857520014409 3.2483060310245317 6.2850728410586925 0.33086523852355276 1.0343640577566962 -0.9119813470517002
P 7.428837712307574 7.03847289009076 13.965584641815658 0.18254343935529208 -1.0544132630980874 -2.688754785063808
P 4.080920774914592 5.705175236586477 2.480559650546602 -0.2013896255275177 1.0067781777186275 -0.36423558645388243
P 7.148394415227838 0.7159867053643018 7.070919983126232 -0.7796554090910637 -0.6608673577158618 1.083036840372051
