# total energy = -381171.3502252828 ev
CRYSTAL
PRIMVEC
9.25844503011295 0.00000000000000 0.00000000000000

0.00000000000000 9.25844503011295 0.00000000000000

0.00000000000000 0.00000000000000 13.55067015953273

PRIMCOORD
 96 1
Ni 1.0313259359323672 8.99237556386436 9.546596250832494 0.5638550074548547 1.535422441600304 -0.6179844423094066
Ni 1.8171549508985816 0.3698702385026896 2.117549820004303 0.585995548107636 1.4634518647992731 0.5383440076679439
Ni 5.570500676834446 0.4096250744106909 0.05898092227390541 -1.0566483230761932 -1.1461085720215554 -0.5664893597539082
Ni 1.8072947072408294 5.571083958853638 1.1486008038797975 0.7527079339679423 -1.0930196626163757 0.48099863697925554
Ni 6.64938724344275 4.5220188427820665 4.930316256215741 -0.4199789027627735 -1.406562350701081 -0.09503954280535246
Ni 3.509802336811765 0.873895341419301 9.945338023440659 0.3250434896354531 0.44378320427122275 0.7917172253516043
Ni 1.4562422576906104 3.3673796812369297 4.992933895587079 0.7430159034911591 0.6614859651364673 -1.9042189079519916
Ni 8.05691156486379 7.479610500980721 6.153237373629692 -0.7222527028018787 -0.00027999313426403395 0.11070913102180932
Ni 8.95395301815575 4.770330330951934 4.642418435832305 -0.6780037602858322 0.017566548128853617 1.1836453926247485
Ni 9.448705788656175 8.618001091991253 11.784244764432689 -0.11634601759261255 0.2808948201426969 0.10759655353475661
Ni 4.3682268170553815 0.17973974298040812 3.1553279660822917 -0.028553643267976634 -0.7723228799853925 -1.2990699268443564
Ni 4.08389072036691 1.9782148557532804 0.9098782869365342 -0.8824671396426673 -0.05197356485381372 0.3340618910839795
Ni 4.211647999459229 4.535452846112956 0.19414958638784965 -1.508019366997003 1.0732386233347067 -0.48013397498611504
Ni 0.3868928150183167 6.142811438997772 3.189515699162682 1.2888335938283288 1.082485338743955 0.06219935634687997
Ni 8.395094776212813 8.821298021791176 4.1409357018437865 -0.6236017884961841 0.12496795493366865 -0.18274835627724656
Ni 1.5637883518957254 1.6215980809088744 11.833339519403545 0.7387424729267857 -1.7072274114921695 -3.0936842496926267
Ni 3.334049280140303 0.08862738820487982 7.719017216990941 -1.2195611326847513 1.5418347728845512 -1.1127960739123546
Ni 1.7814266126119478 6.845573687675394 8.64658746599846 0.984623495998459 -0.49294243960469303 -1.3324454169810085
Ni 6.840000103936458 0.6779764662399055 11.569805296377268 0.06806018600303118 -0.1764995471540573 -0.2527191290394293
Ni 7.549715444620626 4.915789756404461 7.065102522809374 0.04290734088648739 1.241854911085945 -0.5094082984702001
Ni 4.994134715871032 6.02318307439513 5.298934752988358 -0.8416349361176537 1.0370120369025044 0.07748379330977623
Ni 5.426911457221229 8.685735873775396 7.113695470074832 -0.03264863927295668 -0.6141717534315357 -0.08456178320248016
Ni 3.896749776654101 4.7622754840202495 2.7330752988783544 0.38532788834780735 1.1688831467139096 0.2975550544071972
Ni 6.480985391902045 6.791189583219398 8.328214548879007 -0.5833928203774662 0.49785658907685865 0.5705085082156304
P 6.975506701283743 8.50410370468828 9.85567276357941 -0.24148983598251314 -0.9013210391243767 0.02905706526695641
Ni 4.9585637711451325 7.913988953272508 11.268439216417372 0.6412457268301924 0.5079065171136931 0.41696171320300446
P 5.548780365453145 6.48507762448113 13.180153441071557 -0.5043997895120151 0.9348813915783254 -0.5266179774802673
Ni 0.2622269306277094 0.96539655087429 5.648312349883471 -0.6761908754468097 1.9030760525967998 -0.2820813842516303
P 8.138858059337748 2.379985065638866 12.42385053225458 0.920746237728524 -0.06381143802900623 -0.37349849981304706
P 0.42848174883110735 4.079696644895584 2.2763090013388596 -0.9347217260720095 0.5225990861288613 0.937241921390702
P 4.406204957416038 1.4744536185120172 6.140309807226576 -0.3979576612966759 -0.33309901295007793 0.17943163319918776
Ni 1.1087450509240313 8.12934963658046 0.5381350650611091 -2.2246362116693428 0.15749729501994164 1.0783232369464657
Ni 3.4928130906972346 8.623019169045245 5.125215776628265 -0.5275615723404592 0.3513867555156723 0.4173838883420876
Ni 2.1578286838851013 2.94312070905587 2.263774918837578 0.5930151739585787 -0.5431118613702324 0.46306596376023473
Ni 3.871890852502867 7.662316649658729 9.042537817514784 1.4621334030981656 -0.6653955846035186 1.086842073050754
Ni 0.6986376115419143 3.9421717065930038 10.875645994560475 0.34908664662758593 0.07871895126845797 -0.15208692263764775
Ni 7.3276146135353555 6.611020248402634 3.72034955469468 -0.46447210007914197 -0.618711036062786 0.13070819985155555
Ni 0.3430105644411831 3.4165697981887013 6.958933159338446 -0.39805356344459186 0.9391507083776407 0.37148455470681185
Ni 4.059892831577339 7.853475758392631 1.019077013529357 0.8165831353553485 -0.7668256043162471 1.0166599556087135
Ni 5.914016752358928 8.316351703622033 4.815121760803426 0.35993464508568335 0.12756605467814802 -0.4454922165425296
Ni 2.139246985273732 7.432475758763242 2.624425598059151 1.5719657879419766 0.17294576836452796 1.1904567591196273
Ni 7.355593633567024 0.6986552025869375 6.967442595907309 2.1362044039884953 -1.2890163992630963 -0.8037268482179708
Ni 6.771404286790651 0.8828889946485408 2.860681665321264 0.2422017744478732 0.6341499963256756 -1.0769474396448613
Ni 8.383799473618955 6.241349066462049 1.391422960157946 -1.2384404860877576 -0.6707961867937996 -0.9367672957471286
Ni 7.278257844578101 1.7675296870436041 0.6202741351858456 0.1532169224770329 0.20233270616707735 2.107061720986268
Ni 0.3431198140892221 1.2975154809126754 0.14204583687354821 -0.20218538195593563 -0.7088482564705147 1.114864269295293
Ni 2.8282882188332423 0.2795272604858084 13.406192814553078 0.036261810545511745 0.5383895161938986 -0.7796777776885669
Ni 5.5393552686986 5.596489131245066 11.058904872390004 0.5833514256165695 -0.5658265293589287 0.2837780552277629
Ni 6.267828218444368 1.1428531613795792 8.873113833673782 0.20735201375853965 -1.353254640416876 0.4740348040669126
Ni 4.378883286961553 2.4557654359099463 3.2535424738248264 0.25060413957895555 -0.3101416328229562 -0.17952496424394243
Ni 7.478230992713111 3.8763626813166643 2.799392612771417 0.7717942611754322 -0.6417265231213529 -0.33660908298586545
Ni 7.566556555619171 8.057642981998967 13.212106185589523 -0.4220730662876409 -0.2803654300017881 0.6977266926360565
Ni 6.12505374196907 5.258000391219326 1.4286196877817812 -0.43809592407845843 2.016334946623657 1.384331050106706
Ni 8.354857575333385 5.376897338686792 9.339121910761792 0.33215696075178286 0.5057624741874966 0.14831974228573166
Ni 1.0864136821892916 8.525203700271394 6.883957347916059 0.5187905110160485 -0.7421777238605799 0.31986528786862334
Ni 9.212874684008044 4.093732447135164 0.17718163469624204 -0.9507965201466851 -1.393249949862891 -0.37263203804769374
P 2.0007684271619977 4.903244563769481 12.40268387586927 0.31592018717794623 0.5449409441591712 0.13946254900541788
Ni 7.58474939955108 3.804804161851157 11.05073336905448 -0.8880603174597287 0.14030792772484868 -1.0942255099990188
P 1.197968682970751 8.38585484835325 4.53778041912287 1.5016242621039364 0.03169218889695832 0.21259552154566613
Ni 3.1768223714117165 3.443530389297972 10.92640634374169 0.5124601979226465 -0.1951205046893543 0.23557578449092334
P 4.061994498535376 1.635513523366716 12.089595679012584 -0.054741871627570236 -0.148810308768905 -0.39532408032857075
P 5.177850035026688 4.642656377862356 7.099467092184472 -0.029720924103200423 0.5134266756009739 -0.5544126310950324
P 8.255653339847177 2.901161437453117 5.366877849779356 -1.4636110160849567 -1.2201843680910471 -0.504883414016653
Ni 5.690138299881839 3.0025321490106065 12.84996489676335 0.25337476034555717 -0.6789956918854564 -1.056931915754883
Ni 2.7170850389522476 7.115059238986369 12.930821672290342 0.5089488423352784 -2.444642166746467 0.738147005434632
Ni 2.308445063062857 1.3596026113998916 4.329086741878719 0.5796567503738017 -0.9051013321024154 -0.4048397331284899
Ni 2.779662867011164 4.5040852353031315 6.989841551288717 -1.128999166034778 1.0849677388461767 -0.27758298216064453
Ni 2.520407897147904 8.337562800542136 11.239751925362398 0.24074627294826922 1.2386243199637894 -1.977562196730833
Ni 4.25521824044832 3.6351894540483243 5.146815728227828 -0.31557437380275327 -0.04768959276647916 1.234546807460306
Ni 6.296501621832216 8.14960711369141 1.872905601799539 0.4141131880106158 -0.6694543280539245 -0.23248711826327056
Ni 8.90463328297749 1.660511324189186 10.503340785088783 -0.22774009049658842 -0.32035842545495796 -0.9772524003453686
Ni 1.8674468227754915 2.558839701301264 9.032144287439486 -1.4010267655948323 0.15165806263034526 0.83441347866855
Ni 6.342979014472513 2.7383053943171 7.038299325260837 -0.841059523230158 0.9320590916381818 -0.545772438921531
Ni 2.141135708002541 2.1948254291023566 6.770863593617306 2.4010401137858004 -2.849468015917886 -0.40705139606782803
Ni 8.804753181024601 7.53653141929796 8.584078150430686 -1.550136864992343 0.4122429675710965 -0.012639800251197585
Ni 9.230215751023039 1.8308111569034495 2.834813570692382 -0.2230635109565255 0.272021428912467 0.1730766375154374
Ni 0.3193543122628524 6.245469074375381 12.996243694576169 -0.6593324091285742 0.5407541597713332 -2.234275791641636
Ni 4.1139899242461135 5.116031399437194 8.940881020014547 -1.0653803036325524 1.013413166536642 0.01322601177197077
Ni 2.463959159512867 5.509987481954571 4.701350288349041 -0.10803672639596877 0.5592784438277658 -0.09057507927609562
Ni 2.017618796605292 3.007550226064599 -0.16081918529122313 1.5157689290354346 1.1994630763832956 1.5325420347287153
Ni 1.0610918358006045 6.463755426224038 10.665460781867248 -1.6604564738852177 0.01906807237504458 1.2888667610591094
Ni 5.404783774270969 2.5325827519929214 10.29291300114313 -0.7830945166795997 0.6614065180487835 1.7964164090540158
Ni 0.5730995816559453 5.98485311313401 6.655140441009817 0.7962081712434222 -0.2052686488669497 0.16185145822357933
Ni 8.107138627627458 3.25434332929562 8.612696928994515 0.6187241486889086 -3.0197915161682185 1.5483556047222045
Ni 6.218434415708118 4.332554029437242 9.146742539009962 -0.22129073532681887 0.410116408146397 -0.8706626908085715
Ni 4.037468878395108 2.863673994664161 8.112081711278982 1.2599408220533785 -1.5248397809884513 0.5227944899691189
Ni 7.095792415463569 4.962711554392713 12.908842124456065 0.7266675440401227 0.9763399158334283 0.28729301035955684
Ni 7.871076061860601 6.653951656704039 11.179098927966812 -0.48907010113348026 0.9377484287134753 -0.10304415827738382
P 8.529545910858705 8.234201523363598 2.0952860379162312 0.07445554800641371 0.6740486322928262 -0.907460062142579
Ni 3.1757669087103233 7.028900152151588 6.705941527347926 0.08151014086034994 -0.7962508515558997 0.6905692556556687
P 5.624588511058472 3.217735438757826 1.6710687287365422 0.7658113041191198 -0.18568815563186086 -0.08629907760856105
Ni 3.26353696493144 5.905295297405311 10.93997089114354 0.2746637516313205 0.7352794540788499 0.1297952011189829
P 1.0315851723853409 4.767682415753702 8.656723611309733 0.7053047620936305 -0.3221862226923161 -0.06684842508311713
P 5.117799762384266 6.845888474796862 3.1926867164892356 -0.5961071826203412 -0.21139635903124238 0.06309667135016876
P 0.029805711180658296 1.2582504167318995 8.076700564670439 0.494991865934554 -0.2720898202565572 -0.06789743517292178
Ni 6.35180231231837 1.5777408281325633 4.9128085371952634 -0.42700135682719365 0.5138287961353989 0.6599474170047537
