# total energy = -381164.59408738464 ev
CRYSTAL
PRIMVEC
9.33308183269012 0.00000000000000 0.00000000000000
0.00000000000000 9.33308183269012 0.00000000000000
0.00000000000000 0.00000000000000 13.65990866450770
PRIMCOORD
 96 1
Ni 5.53701890338926 1.9081766180792563 11.984698351874432 -1.164075183802305 -1.4025874252137327 0.26421941636954493
Ni 6.842726410962667 2.7416675078073016 2.5215234356785263 0.0642644664060248 1.6725067201815325 -1.3666333757166271
Ni 4.634351209734623 0.4803858645368022 5.792921745966543 -0.4140723074703514 1.0067272698760341 -1.2066310548866446
Ni 7.107151290731717 8.02542389752252 7.271483532385449 -1.073861858741002 0.5061743649139347 -0.5495661016360084
Ni 4.279918086972042 8.596085864506806 7.741193284400445 1.1611163582842972 -0.2563107030454295 0.4693613098506433
Ni 3.6624693798253176 5.6828576430218725 1.9821487595473326 1.131575668512703 -0.5114091309503128 -0.21043630911081823
Ni 5.769440644914343 8.7421579311899 12.89925732532978 0.38414492378329973 0.32655915494903115 -0.5529090499663123
Ni 3.4549669672916 5.410070321763585 5.921816275193229 -0.4148922322684855 -0.48449225195481077 0.33213844880902155
Ni 1.2522196145211557 0.35133453953219335 13.08324223779142 -0.23372613287669425 0.2656900873778005 0.12356233283539364
Ni 4.761589116902893 2.9317637223751403 0.9176164911248501 -0.6174740783318914 1.684998939111272 0.34123321202143814
Ni 4.129039483049042 7.836484985125067 0.733124792309564 0.8088600556794779 -0.37547722080597273 0.06976457028864759
Ni 7.077565420730733 4.6246728036806735 0.65092087250052 1.0358591542449838 0.22546594975043102 0.07425551618046565
Ni 7.4081805181802185 3.2059043405262164 8.771860464716124 -0.7690794333474302 -0.889740533375629 -0.24493742821148137
Ni 7.600479340104598 9.227104872909502 9.247061802191238 -1.6356041907282282 -0.5015777466821878 0.8022947437571345
Ni 5.373064651557307 4.642433658763283 12.684960429086056 0.4482093583633765 0.31020359640914313 0.17407782508644215
Ni 8.364196108656818 0.45095399038913536 13.389169466683617 -1.3902319889721735 -0.0849235374172731 -0.6091313627941509
Ni 5.784756232507912 3.1791557274590807 4.533942180138854 -0.9396839551732913 -0.5466070190076845 0.9407957001802314
Ni 0.672194699655171 8.84232990050238 9.484825799864133 -0.2882517747284003 -1.0760676081430693 -0.26367717071282976
Ni 0.313604622161222 4.93236585169091 7.732014198234525 0.2732378178180714 1.1546708597692694 2.058872562875551
Ni 7.811472325313509 8.3820876268877 11.578575820964705 -0.02658623512896066 -0.5766498452266778 -0.5386473978409756
Ni 4.186727263009952 1.7436343820800912 7.978028640412426 -1.6962202617483886 -0.38661266859750193 -2.380324221394688
Ni 5.129583207839427 5.398179975271076 3.8973363888394403 -1.097363284297052 0.32266984719695396 -0.4075123948646465
Ni 6.986185214680375 0.10512876917289819 5.148597495837221 0.5731328332123549 0.06656971750043375 -0.4153853698548201
Ni 2.6137202864055684 6.425696307097059 4.039931882470367 0.6449861677092311 0.7211106187776356 -0.7702204889304091
P 2.265950984204724 9.048871005588115 7.996674271670459 -0.9881595341761756 -0.2930242564163792 -0.683999315747635
Ni 1.5548727982410038 3.511376115015874 11.725569996151298 0.25846837281838064 0.1476476559193715 0.6720706826308489
P 8.257826972883564 8.465488047811608 3.391577607525138 0.7325021484440287 1.4276801065163025 -0.3770178258202152
Ni 5.280779136551081 7.546338131310998 5.608007258535785 -0.3117177190608244 -1.5161540802889952 1.045830920745715
P 3.6581108305223333 2.8197854043083233 2.884794987113325 0.9472255149659751 -0.34318236532800894 -0.010773436466420155
P 5.406243758135697 1.0155139883492428 0.5926572413790232 -0.8831407686709242 -2.2958362288529366 0.6557580615137545
P 3.3846048619485654 2.803461843856676 5.705143176267408 1.4145358558248606 0.11388007255062324 0.7574822154281341
Ni 4.693690945212938 6.620253734870093 11.514893402422839 2.576170805616789 0.7346528762384444 0.29887043078451103
Ni 8.895145811649247 3.997191033363267 10.255108391616888 -0.2744493216276693 0.5899679024918227 1.1476656320960297
Ni 3.0953726501723815 0.274780867577596 9.920741395195671 0.6735858337237948 0.1833762196692326 0.44522122226933003
Ni 3.240492742489512 1.8223495958303442 12.173369404817933 -0.48030083958128245 0.5879125626246907 0.8096082466994122
Ni 6.358871439839315 1.525184264337808 7.179074820696571 0.7934367791458722 -0.10454876784736833 0.17385439622172638
Ni 1.1626126940544521 1.347230389476998 10.840134905136985 -1.0366883350144982 0.7283868407240746 1.4534068218584453
Ni 8.328469070687177 6.946500949934574 8.906028185283677 1.0995374091302355 0.8141243894022109 1.1479178573161521
Ni 1.1499663679183847 8.825717014508136 4.110007462195411 -2.0056322154941717 0.11651133952588322 1.0014223127233528
Ni 8.842628559126995 1.3268002729368862 8.190658648207512 -1.40707245756828 1.0236960365198886 -1.740543766256112
Ni 7.193276971605245 5.32868584655583 7.9996113925819134 -2.0639499773984586 -0.44780749493926747 -0.5092267785870134
Ni 0.5428465826423503 5.732985626547198 12.35153514064058 -0.7026171879591384 -0.42510388269416466 0.3689216790756421
Ni 5.108042454539026 8.32058261638092 3.4991227116328165 -1.0491072775041415 -1.3310377380002043 -0.601731470785654
Ni 1.6034608232331566 2.1240974705943265 2.743619988565726 -1.9087700176577838 -1.8988758984725236 1.4002670046106722
Ni 7.042426366928302 6.850304873562289 3.937577838581789 -0.8969601910525198 -0.3099344019081566 -0.01771901454631787
Ni 4.820350201296017 6.184725462442354 7.752312718318166 0.8823815219073964 1.1602815210878274 0.5736547671540959
Ni 6.728489487047196 8.784586122049355 1.740982853478426 0.6188786719889019 0.10787963199281421 -0.5382007972218601
Ni 3.295903250437728 8.812081381678029 12.395383826583364 4.91505475758882 0.9745920799043859 1.8628794257732564
Ni 1.5803894444816005 1.704192777466792 8.574584310150886 1.280244566607737 -0.19413834328174306 0.48428142149558534
Ni 8.371727905846344 1.420896405854843 3.3209289765641126 0.8533715078282915 -1.5430478193560457 2.9264013360408314
Ni 2.7481819990567296 6.5442451149054195 12.697513424401933 -0.5869926219135827 0.06707622482320705 1.1882083294050827
Ni 6.776125537673386 3.598593766485653 11.253906830069678 0.8007659658174339 0.4411018007843177 -1.070456432603879
Ni 2.9992139061281726 0.6734947979804509 1.072009000428094 0.5698955572219798 0.5040588612328287 -0.3213058769698918
Ni 8.803522945466387 2.816892148882359 12.70204836895508 1.4353581918868508 0.8321604209683152 -0.7749065815521686
Ni 1.1168619259961476 3.0295557557727153 5.1154585215115125 0.5247163895821803 1.0047197525277018 -0.19580056147551442
Ni 5.336712297092375 1.146494461407228 3.0513363692810107 -0.7274782128668762 0.8498457540632202 -0.340495048303833
P 6.584069375881508 6.799616905115808 13.337234598479364 0.8970998019541776 -0.888737031811779 -0.5919409670577934
Ni 5.274021985169153 8.874743694355193 10.448983571094319 1.0838151132989722 0.03283915801720796 -0.17504301721318888
P 9.061591996380336 1.6713776610871511 5.612187545972202 -2.1604383368351954 -2.4617603144839926 1.0581138518781263
Ni 7.965822835747667 4.336905885781509 4.032091160266006 0.2871791104895119 0.5805414669716003 -0.6672526924169153
P 1.445209084514958 3.823185052196595 9.48907421879929 1.3452965619120638 0.2735077836500064 0.26005860012363596
P 2.955376419883812 8.137094223882702 5.198947606714605 0.9710550132854051 1.4361583191906429 0.7732903861049844
P 0.30719746135501513 4.1387832206771265 1.5040383004068205 -0.9910257999803771 0.30072059661937245 0.25463562933585177
Ni 8.481923605247486 6.243719873885957 1.8942329935425148 0.11194300342891043 -0.6964974482146457 0.5104984462105853
Ni 2.3345678032101613 3.2655707338752045 1.0228917896854504 0.026770326115308732 0.8196759153480593 -1.5852511921969732
Ni 4.960953081915836 3.9625746321539137 6.957128530429881 0.9149849097647146 -1.0509903534594676 -0.14980558280263878
Ni 5.565139479513223 1.9254428198148466 9.616097465081118 2.6750430919046706 -0.7002204055921876 0.7513678750002801
Ni 8.583206211320256 6.353626247744503 6.369861143916968 -0.3742351208687555 0.6245605528650277 -0.9687924425034735
Ni 6.923429571183019 2.3457861677972853 0.0955352941653235 0.17912310081983343 0.4051732052085086 0.3541956857193771
Ni 2.9883968640678757 5.1601583845344505 10.9082570707954 0.4489614060380526 -1.1443694778432616 -0.6025747926225558
Ni 3.5146426937226076 2.6442767969365533 9.971910950674344 -2.4106750657724034 0.9420519411848356 1.1893391005754161
Ni 2.0166363642248206 4.305145407670043 3.458252212162372 0.4207540903659012 0.2786906134025265 -2.0845545410226873
Ni 1.6535981398405029 5.867232678311917 1.1109960839470567 -1.8896880613256681 -0.2691528491154203 -0.5321252804517416
Ni -0.007619528160505862 6.7226936431132485 4.211417931491845 1.5186845600203327 -0.7114432708912005 -0.466503528686874
Ni 0.1671293663348978 8.793499215377725 6.583884580857527 -0.26348870885110753 0.42310587842752945 0.3100215623053241
Ni 2.0090299023791416 7.029080059640792 7.164526412444983 -0.22144782972997343 0.663153325536561 -0.6882961433507759
Ni 5.8940652891172265 6.424025685415615 1.7079941417732274 0.2500315549049371 0.14827551931135757 0.41470865550276964
Ni 3.010404271469239 0.39164038754047437 3.471761848385219 2.337461617703206 1.2791757590235906 0.5937978177608741
Ni 7.464953656103243 5.967096655917763 11.222366612693865 -0.46058922008496805 0.16242532844917834 0.22309410708414482
Ni 2.1616071272296438 1.088246696525164 6.213278160263808 -0.40227814304890075 -0.8197309369557109 -0.3223353466756707
Ni 0.9169725084655227 6.348213060173345 10.150883064783454 0.339271460309377 0.18520864489228103 -0.05923127485749154
Ni 7.758777744232892 1.433244073366295 11.11301929044827 0.15921607748326128 -0.1013163769529997 -0.39119334598964883
Ni 9.001692275980867 7.618660183878073 0.09771643543321941 -0.3986405462963134 -1.1436991912491141 -1.191745910244696
Ni 2.756656437530198 5.303187866479272 8.491408816503638 0.360849700700785 -0.22655352638765497 0.6358554090525566
Ni 3.470095893244785 7.26193112293876 9.686650898605548 -0.7234963454009926 -0.15177864736860958 -0.46023775028282027
Ni 2.5314771676520436 7.832051771165929 2.278349983667282 -0.8322861479129021 0.1752008829472918 -0.6352411725073254
Ni 1.956288655888428 3.5064669138737554 7.371829097023488 1.8599961906881906 -0.6674504102500183 -2.1322675308279346
Ni 8.977743587519502 1.931378659979082 1.309030084772257 1.0704520617285047 2.0971573173883624 -1.128418868051276
P 3.3965138746051133 4.2609999297190475 13.12653093881305 -1.4542154338026698 0.3413424839057928 -0.7822900185004333
Ni 8.189331483944377 3.8500083299198846 6.4028778548682235 -0.8061879081639534 -1.8263116539515512 -0.665428494723983
P 6.170091189836189 7.030956009126659 9.535067646990095 -0.04151277453180592 0.01631956309562996 -0.06540089400331317
Ni 0.4392279061401648 9.012621315025395 1.7352458079612003 0.049415317208334246 0.3744377237978648 0.7230073215797161
P 1.7931463821921487 8.33614086410699 11.368418146596515 -4.0963052107097715 -1.6058812097424988 -2.7940681989913427
P 6.51422992313155 5.328928506688331 5.496241734739007 0.5855983126692172 -0.7118908999515805 1.6574547109444164
P 1.30311291077206 5.262168971004721 5.25991223177247 -1.4781845430237572 0.023512738409959502 1.8377592336668611
Ni 4.892354929074436 4.34877756610998 9.415597663986436 1.2943360117037968 0.7167973361142623 0.2266913375170999
