# total energy = -381168.841934749 ev
CRYSTAL
PRIMVEC
9.29181452502147 0.00000000000000 0.00000000000000

0.00000000000000 9.29181452502147 0.00000000000000

0.00000000000000 0.00000000000000 13.59950978837179

PRIMCOORD
 96 1
Ni 3.2643352849911955 4.693899554649493 13.423192404630765 0.042268164640591716 1.2588154501996835 1.023766484746508
Ni 6.406929214257 4.2453372017535 10.09094510462463 -0.11778840646609393 0.14871337817972452 0.5582942255376256
Ni 3.06597362554793 3.2250309089632294 1.5151483869823599 -0.5101001823309022 -0.15942845060438351 0.6992323306473055
Ni 8.773861039016294 2.6579421682155266 3.562282897275437 -1.5585256032766708 -0.1824771048937309 2.4082397168580334
Ni 8.38228538545352 8.535302989337335 12.824052478381677 -2.8400094416081476 -1.0122104044777922 0.4045754237235097
Ni 5.068006596644282 4.721700664123647 8.321662799042347 -0.3257680265063035 -1.1380368507570142 -1.3549777937555696
Ni 1.211940678416929 0.4246173465073244 6.23299573556492 -1.0965700989717955 1.3671892482200971 0.8644979567587564
Ni 5.797897222116805 4.942762226790629 12.646103077391894 -0.3813740459063819 1.492699963031113 -0.8782240480955971
Ni 2.8553374789337553 5.564208083321689 7.819418845289058 0.42613540928247257 -0.9958260495824977 0.7634667151463432
Ni 0.7349964776302929 5.254837114089745 1.7676646006493113 1.520831945380639 0.0803631717401003 -1.0337181966425812
Ni 0.9512309425794198 0.30524168679534136 12.14149249844373 1.9235183796115518 -0.3021655565960151 -0.5373890999538422
Ni 4.075389911552201 1.0057088519534063 1.2602934235645245 0.9337071687645662 1.2400985905164708 -0.8861728706290287
Ni 2.6812367475777283 4.037321346874523 11.507986795660495 -2.8176177041765085 0.42883198227802927 -1.3430167647389517
Ni 0.43339532382023677 4.539404552234129 11.383959653527803 0.32027769281569357 1.4635356827623311 -0.18403082253409597
Ni 3.9143906388721623 3.79816862105708 5.2634729266383005 -0.11720836559290781 0.0891835982452077 0.07342582119031871
Ni 3.4928024239452435 1.1973711130240567 9.883267471799417 -0.39419382337886955 -0.5942948120019506 0.404997855972909
Ni 2.22699709592214 7.565135328473048 6.714445537282044 0.38072407102720884 -0.6220807238659674 2.8088127042903692
Ni 8.882742523246957 5.291056607649323 3.871685458677238 0.5293142933655077 -1.4444992349561705 1.5846066166344386
Ni 4.010718881492002 6.9177653090299245 12.714725916228616 0.08105839803491202 0.7095193143956103 -1.0012245948902498
Ni 8.294821534022965 3.8405300041094437 1.1327521171259751 -1.2697421244145166 -0.6273561133322938 -1.3163109733129912
Ni 8.334255995456225 1.3546350762092392 0.09529592201068905 0.6130867478974731 -0.47998202278928304 1.5939433206543323
Ni 1.5362900528869536 3.126147417310839 6.0751593965964465 -1.5861400225598297 0.1023677010356495 -0.4827310462893299
Ni 5.963783989310014 7.215633011708057 2.7253960967675406 0.48494065234613903 -0.8124904533432136 -1.5785002466263847
Ni 1.3998676299927233 9.043992674922919 8.974425787716353 -0.3938562375337927 0.2794305768923446 0.5159419858236598
P 6.764134445378297 6.329593440810011 10.872196235651428 0.8736850225746631 -0.8099111226518115 1.3670990024991359
Ni 2.974923133657141 3.5848099727464064 9.28514685761895 1.107794249822389 -0.36198792807028624 -0.7689508781893659
P 3.3340053113405306 2.4868334011812503 6.817679456560036 1.3504122858720744 -0.4384885315311867 1.9164293339752545
Ni 2.722287984762492 6.795317775390082 1.0965530655586584 0.20846144477263454 -0.2042972860926159 1.1242608800188443
P 4.831520621635356 3.2218345247188753 13.584455564847257 0.5585235679396123 -1.7963359335250673 1.2244477713530912
P 7.914925691492615 5.8610908536454565 1.866083501568511 -1.3233126014418048 0.08386012914976526 -0.6961354368895366
P 9.093183541753191 8.318905917631591 7.145481669359136 -0.25620194538170715 1.1034043482848095 2.544349547341134
Ni 5.368977765420132 2.1675759411470006 8.710758467271349 -0.2475617532082059 1.0081524323583348 -0.10802309954921395
Ni 5.515175177340701 9.096110463372295 9.05943567089419 0.42151205157784827 0.6873499773874227 -0.3672833721412707
Ni 7.479715676268534 3.407150476374135 7.805099229710641 -0.2253793035738957 -0.4788885326147882 -0.4878174596733018
Ni 3.4888348190837917 1.3074605331610163 4.905207499463862 0.010115234057130967 0.038838313023436336 -0.41879310998478847
Ni 2.122306220104861 5.799160908911085 5.178271632078388 1.7426456430904633 -0.03954048129678351 -1.7663489002446744
Ni 4.589329472422843 3.2418676771340746 11.346261832255212 1.8512271862463086 -1.7373165175680658 -0.3720013464422303
Ni 7.485476601360103 5.764948447318893 7.241575758249447 0.7725121131780631 0.2701509513626315 -0.508870423688859
Ni 1.2976576686906844 2.0571334320528156 10.567091138531644 -0.285781715921353 0.3691487074847836 0.36391574122061837
Ni 1.0573899251135825 6.710660051988002 8.580705583329168 -0.7189593767625876 0.994624315964913 1.4400070035127714
Ni 6.4351763308350165 1.9558340685878313 1.5123877888457387 0.43860037451870265 1.3525576143498512 -1.551589795388786
Ni 0.7530839240548881 5.3771081032509755 6.753598456730989 -2.130137886079441 -1.3222144832816196 1.1844732878426827
Ni 6.6328503959931595 8.135820001495649 7.18929907976932 1.4907243273619812 -0.27181085556355766 -0.5004716581022025
Ni 5.094980734613356 5.0296871529706815 1.3661383427630502 0.30994982852712427 -0.16910916822725713 0.7871134080310057
Ni 6.309114281290947 4.263800037490514 5.99236561121593 -0.3668671105394585 -0.7499843643891922 -1.539321005323762
Ni 1.409772704424357 7.290385660678504 3.1192519616488172 -1.0671016571990333 -0.8452820459519379 0.6767583179145055
Ni 6.780144242044061 6.684169088381448 5.210216890892607 -0.5572066489004016 -0.024442706423396618 -1.0112668096176003
Ni 4.700924166535342 8.044630132384903 4.277141224984829 -0.9166635830187181 0.036989432740155655 1.4906484798187232
Ni 5.976383689994156 1.0096671650001943 6.705754903026972 -0.5020248615219354 1.0706916885431368 -0.7735706363495645
Ni 6.156384723661711 6.648832317214934 8.87884832372135 -1.5816776159131019 0.012335638747217466 0.6004939988341271
Ni 5.921246061779038 0.18065146069402163 13.270592003225355 -0.09071648994996635 1.0538771880889592 -0.1894270538490028
Ni 8.227725340335509 7.373584569178362 3.371726362149781 0.1781370827574803 1.794736964469064 -1.6840748846351061
Ni 4.527278734097842 5.942384940139233 6.353731716943687 0.7734551938176227 1.5423389662144793 -0.9147190576978376
Ni 7.790898549359923 8.11933632228203 9.642868713635556 1.3074067288448257 0.03970528900942194 0.30282298767435595
Ni 1.6541845973415232 3.526187914032355 3.841562324718594 0.8074819443850286 0.508966068726459 -0.6567093696834303
Ni 5.786737752705556 0.5858674981832863 3.1467501579649313 -1.0969922741108786 -1.7743167489414993 0.39751003223629605
P 1.8909121595317089 1.4050152953164805 3.323842853642709 1.1835654313164325 -0.20759626855886185 0.309913318862234
Ni 8.00822480253205 5.798844987212515 12.760977782080722 0.8215623337374948 0.32473829969020845 0.02032919847565531
P 1.6096117623991706 5.99902784232989 12.969444289970893 -1.2752460849518812 0.7842743959203138 -0.9350641970130927
Ni 8.283504103762432 1.0638198608609473 11.260503028815469 -0.945417772333275 0.6019459007893053 -0.25925487327541796
P 6.763428267463846 1.8743913130594339 4.445448509897964 0.039698861251518724 1.5443925063093984 0.52956651858563
P 2.5262771544291738 5.365976509283716 3.082641282691893 0.892591886781495 0.36961433426729245 -0.5966082906264757
P 0.9631802162370944 4.267758350537302 9.014109269782601 -0.5420952471802599 0.5803825727962327 -0.05867437391275702
Ni 5.682715887544071 1.2377812149970173 10.979483244485778 0.8824622545466609 0.15337838775556165 -0.02031505740826824
Ni 5.890898995086997 8.23973965669583 11.299669885986411 -0.26179563741940076 -1.0521622622803815 0.11318253226296637
Ni 8.384673381822122 3.282956081577494 9.830201918254332 1.7113959410475623 -1.881258442501076 1.0623998808479895
Ni 4.771997256898914 2.7023291668646032 2.9929529708308205 0.04886947200719326 0.9146676356346118 1.4637226019621568
Ni 7.710896025104418 -0.04574546195292703 4.706709250345037 -0.04796958590074319 -1.403663946107363 -0.39321114775062604
Ni 6.815415970507929 2.854687051907288 12.490809908096908 -0.0036244841264647257 -0.6439731530636845 -0.07896886249573498
Ni 1.6794955004857735 0.42077703950676687 0.7940617559038082 0.30177577735676414 -0.004747284876998275 0.5196343470735825
Ni 1.2594683104223772 2.1441605681941693 8.210922022697455 -0.14111833944128602 -0.11576083451310386 -0.11443260261998357
Ni 1.7606037506862733 2.3262522601610836 13.04651338833703 0.1308041019994715 1.299531182751491 0.3952862851120999
Ni 8.280976730173872 1.5534241591270406 6.171470913949891 0.6035345854326638 1.889411924846146 0.9130617246000727
Ni 3.714672374487978 7.687712947518183 9.16064397457547 -0.7310595024602313 -0.38267450988536034 -0.26657660374781184
Ni 0.4190506203422288 7.736048967399384 0.9012140334255337 -0.4035698652771308 -0.7868210736015675 0.28845694876067096
Ni 6.204702159913584 7.104995374505932 0.17790201273499678 0.6125401313653838 -0.4860619104347758 -0.06709679364849734
Ni 4.378823411213963 5.507574472945696 10.536220013492564 0.8194360314231114 0.3731107774563252 -0.3152771542773086
Ni 3.3104041020944237 0.42865742752315406 7.556472569661966 0.8101929155582887 0.21302026778791056 -0.13675466315595156
Ni 8.45097047944849 5.688467520820977 9.407365812618062 -0.41026758901228055 -0.33131132492203585 1.0243560387013906
Ni 4.624991457102591 5.478035794129407 3.7711573158293503 -0.017357517441841074 -0.04223139786538534 -0.04762248697396959
Ni 7.19672416886718 8.895351515745762 1.4889287443639878 1.4361346650415587 -0.015696841909966515 0.6592344500981291
Ni -0.031592169856993806 7.2546865087401 5.4376684345039 0.5427220821309814 -0.31774335642961404 -0.7867274854464967
Ni 0.3765377807108453 7.425423603187824 11.402767215588845 -0.30410082594551496 -0.9854516483267094 -0.6237527122517516
Ni 3.079874180285007 8.747360783595076 2.5663090795453165 -0.18749846936772227 0.5085729470530983 0.9332677672343024
Ni 2.405743734610078 8.465614379358673 4.872622963800771 0.8170888713471735 0.07796150427714316 -3.1492583874135054
Ni 0.7484119996419186 2.5044599735985202 1.8173702340119593 1.3846958896452926 0.45735657208028324 -2.697046078538323
Ni 6.89828037367989 4.033874083634245 3.1027552738946675 -1.2177266505791737 0.4276204784684313 0.2274295012347051
Ni 0.1534487440842172 0.4592776735663121 2.67230359695993 -1.3952366412756165 -2.2901237518491913 0.28333839658718296
P 2.8602807243349084 8.63652801828501 11.061188958369161 -0.5012337330792077 -0.11067159291565455 -0.4595610359307698
Ni 2.3588014869284506 6.498165542441065 10.775421985927725 -0.18162864085050656 -0.22424750396229767 0.347437283949621
P 4.547302594698378 8.145130399788798 1.0955616289340286 0.44797641641696395 -0.1797108550025034 -0.533007683056695
Ni 7.740323202144742 1.0576036368508506 9.031420849682767 -0.5170331620053096 0.709460950353849 -1.5019641619418587
P 4.666172779692649 8.48515506559669 6.354370993792558 -0.37831957535077426 -0.5476717128267728 0.2787592618569328
P 8.691340432986893 3.9578112887962007 5.719002282169228 -0.6938335282292373 -0.5870502146243955 0.18680221463164604
P 9.03905872133643 2.943080084804224 12.557868934525711 -0.12205515216224787 0.36634054861202714 -0.29819114532929936
Ni 3.5726748627954548 0.8176034975360669 12.484962569128964 0.10811103127732996 -0.23285478601533446 -0.4292729264701897
