# total energy = -340867.7393214479 ev
CRYSTAL
PRIMVEC
9.28727733934833 0.00000000000000 0.00000000000000

0.00000000000000 9.28727733934833 0.00000000000000

0.00000000000000 0.00000000000000 13.59286915851625

PRIMCOORD
 96 1
Ni 7.950856840967156 3.068377176321202 6.417220845817712 0.2439771211807411 0.02416425595102935 -0.186666203274414
Ni 3.54840868838293 7.918054176842675 3.680310318326736 -0.23082490006949924 -0.9510783130531619 -0.14559463004508474
Ni 8.508845760350766 6.112495983816486 9.411009110365715 0.7844240341243006 -0.05485114351192489 0.5484327593625136
Ni 4.237357507772004 9.084684827086374 6.045414907173023 0.07136791022002548 -0.1581783802473663 0.7098059923980936
Ni 7.545745796485321 7.627250943811608 3.564281574355509 -0.016688259288958354 -0.026061472973742214 1.1334947399122868
Ni 3.1494829707150545 0.7020912457771132 4.316931830106365 -1.2426655799126984 0.7116965245525873 -0.3432366156047121
Ni 1.1566282523778808 6.153109248317152 2.6251362853417834 0.42607421702723397 0.09277131559646602 1.4021215413209078
Ni 9.288391971737095 2.9875964366397945 10.910085288487974 -2.6814623651674525 -0.6515177981801618 1.8433148733777673
Ni 7.010798612575334 4.2907314915555235 10.134870663326915 1.0912283750439076 -0.3704761680469555 1.538407749480873
Ni 8.013861731516554 1.3983296492747113 0.2574554057174295 0.6247682980004595 1.8185361237711906 0.816804250227219
Ni 1.1719058238628102 6.871925952141201 0.41245820971084807 -0.006157792071279718 0.952677796329798 -1.5548625526027866
Ni 1.2463433530127852 4.1989453280384685 9.617838637711412 1.1669147101336288 1.1968986580902292 -0.8272750678515558
Ni 8.910594810378166 5.409031149697354 7.148326475227693 1.6222822768083416 -0.31913946544619226 0.06865333950233983
Ni 1.7368137649827566 8.503923503276594 12.046218376882303 0.16374224748838898 -1.0455231596973091 -0.33696260967054226
Ni 6.941097594949562 3.6252144732950065 1.0651847894005175 0.255725777076237 0.8737315595418823 1.4281236218116242
Ni 8.059183645708929 8.259937436115148 6.055500890536326 -0.5203336871334523 -0.1526425380308016 1.2208592826708846
Ni 8.762165541398142 3.262564861536027 3.3254815229491905 -1.463923405119053 -0.06395310581319308 -0.879769023985214
Ni 0.27927772165550757 4.32129592180288 1.163491550449226 0.5109848989287007 -0.9199648794778091 -1.2502475060250144
Ni 4.303102145183442 7.860370896299881 10.358759061981742 0.5752249398546931 0.10815191181759437 0.35212620478485807
Ni 7.497089749671009 1.6957825729946605 9.348183464272037 -0.2464286680450272 1.2363779471317737 0.22864023371335462
Ni 5.596049056683386 0.8365348035722412 10.35579549173199 0.8076680922539059 -0.24148109423176475 0.1753554062472851
Ni 1.5887002634376786 9.099042958098957 2.3888242955772965 1.2783902870078176 -1.4094576699710049 0.4790839364550459
Ni 3.4652504056619224 4.722367000572895 2.9329603118442376 0.023867293535900832 1.1951639347873093 0.15455003946615964
Ni 8.48636126152705 -0.0006649690688881096 2.2477849133027785 0.2698398478801159 1.280242766835524 -0.009958910984924784
P 5.776853775022962 7.843161571095277 5.984015786903105 2.4598147607218475 -1.4179186562541644 0.21884073112442956
P 5.4036723905807555 3.8198850969397498 6.372880596856923 1.3096991244234284 -1.0147185156116265 -1.4550916657600361
P 4.174185446227634 3.080292753351697 12.207429725883426 -0.9218667244862122 0.35907872484329123 1.6440325240012394
P 2.3679214201115637 5.220731598416538 1.0369496083497685 0.7191236702545938 -1.1291729726084812 0.08332405414063714
P 8.654284525976294 4.719395071773395 4.777594724945102 -0.505267279718633 1.7283004301123848 1.2913411907415309
P 4.084674665697696 0.2252963499235907 8.437706143440487 -0.9787981475659336 0.3619401055514863 0.8269526515151306
P 2.075121422418331 3.49064182234265 7.652309875957891 -1.1738417762707654 -1.1405511325384357 -0.8314585098052841
P 6.513297731539045 0.11489569611641717 12.685721730869698 -1.0520959278188204 -0.19987396021393963 -0.2929242405034052
Ni 6.015768988670261 0.1994387119124416 3.614928813465487 -0.9665419559064 -0.5064816117417084 0.6277289232906802
Ni 6.330412663039818 9.039427923836488 1.291949457896611 0.009501254622215894 -0.1546423420696498 0.35290704881494056
Ni 8.075835734263626 0.8343067857003661 4.760222872384275 0.6413334014479923 0.8816032489804752 -1.0394931514531454
Ni 1.1005888199523104 3.4792463328520675 5.544898447132992 -1.394953562817559 2.0612094385388438 1.1427982767013996
Ni 4.494568658091225 3.9594450159087673 0.8315902570320732 -1.0780640697478077 0.3251401631143174 -0.8863387067829315
Ni 6.565250761865303 2.4835573122446064 12.350331207296383 -2.4438273841546554 -0.4999201564741068 -1.5409662542366689
Ni 0.7456940849045264 1.553111416063667 6.691945944043486 -0.2550783733002252 -0.4757872679816451 -0.8269961031585563
Ni 6.241459119159786 9.206143842210937 8.210161343634525 -0.7165265989513788 0.18895268531574555 -1.207202096898766
Ni 5.722653223542083 2.8286539695315387 8.15717649677819 -1.7394991270416815 -2.8028588006997794 0.6803491205895573
Ni 0.4274302297660788 5.112869157549687 11.991711345243974 -0.30057455795981136 0.16464804713211 0.19775331432651105
Ni 8.525767179952918 8.507136901291053 13.366969539757068 0.017092436705912498 -2.602557523140434 -0.21299764208009123
Ni 5.620288850954307 5.482716409369955 11.840476389731673 -0.7076928027098328 -0.33907605646911926 0.12793809330558611
Ni 7.921787662397047 5.952262585135947 13.62685171108484 0.24083369045575298 -0.6040665466767339 -0.31545738860891476
Ni 5.9490398998439895 7.1574168624431636 0.23250049107912849 -1.1743356851880487 -0.7354964551856624 -1.6162000751700036
Ni 7.981950646031924 5.445715895816181 2.6604511580295913 -0.6655727336113312 -0.1470483317724758 0.39544183685335765
Ni 1.5429046980928844 6.626843986234939 10.366004067158272 -0.5212325447986379 -0.17831731708908646 0.2269808437330607
Ni 6.31696468522208 1.2961603095144025 6.0987127352810555 -1.1477952156953588 0.08174745368213664 0.5390644307737361
Ni 2.7884029088533113 6.26229976986628 6.604775557443153 -1.9658042848639565 0.4052140857487731 -1.7753315633592588
Ni 5.479010785648079 1.8634365063964502 1.3268854096624827 -0.6336164924197089 -0.24028630259271522 0.33505947911055844
Ni 1.7969860358951315 3.1016906407080964 12.501674823955417 0.655605080875658 -0.11018873974196508 0.042109013354908124
Ni 3.6693290414125834 4.400117045932118 5.339292982961588 -0.12161446508040347 0.3068447072392393 -0.3446784902575612
Ni 3.3557719785103437 1.7578587357942153 6.905191122685104 -0.304118823667644 0.9378327608971654 0.2770854736989357
Ni 0.4973829326120583 1.6296014335407965 9.012697281740486 1.6252835255285103 0.01006715442801492 0.6901131419548566
Ni 4.282521538246905 8.962408531541948 13.295959944731766 1.7074295002006465 -0.5225458642934226 0.13369787860749877
P 8.748188188762994 7.2126947381138615 1.7334982069158145 -0.16785318433296897 0.9176550003977101 -0.5479907867290885
P 1.1834034734058756 1.1996469217506425 11.199436920046036 0.8216739196146946 -0.017056955482286754 0.0061135690969056
P 8.987985693772645 7.321708801390519 11.24582965733398 -0.35800400372187374 0.07389864706167919 1.4490506017722786
P 0.7324207079037598 2.130148541596572 1.5265609471511343 0.04496370919488385 0.29735605102251367 0.09643462338066618
P 8.085234459092044 3.694971214585769 12.920674991936163 2.768563369852019 1.5886751302768574 -1.0755752418876832
P 1.0689470655151345 7.189875897300201 8.092609486153554 -0.18066473427534047 -0.8813610510626821 0.1304696014781882
P 0.9679386354421305 9.23160955711165 5.025188899414691 -0.4577630634900826 -1.4054601187758375 -0.13871204399263853
P 3.869599893388885 7.1475351991848255 12.391001124189788 -0.28558425519856623 -1.8699358183994053 -0.30092654198259144
Ni 0.7330838195171482 1.533635995149444 3.6937945165267165 2.1654704999424643 0.5339253097749579 -0.20975753787623874
Ni 6.966758342677744 5.933660168306577 5.798704881521286 0.6576498792198286 -1.2007208600497965 -1.6784832494799415
Ni 2.017456716430534 8.88561203390737 9.681548432622941 0.5480854033254238 0.3011918798288361 -1.1862378359422732
Ni 6.716512650482352 7.460544312714658 11.25034234547047 0.6660077642662207 0.9850035050456971 0.0099959348704473
Ni 3.6945811489308347 0.890540322225654 11.450605767624774 -1.812218923303911 -0.004723630727914446 -0.3018508535690737
Ni 3.5924303837255227 7.437001064256119 1.3665318685755616 -0.5160252895660855 -0.8249487337112245 -0.20775104896917124
Ni 1.9954180069267426 8.781631675034866 6.823660899709572 0.2640993458519129 -0.6007161421472621 0.901815462262292
Ni 3.5126248081814513 4.422573682923339 8.731964243700974 1.3042041627471281 -0.40240566976570047 0.6363233498279106
Ni 3.1333323951452723 6.692049961551468 8.731950312784726 0.5336052074313777 1.0197614773521728 0.5831110274709893
Ni 6.001903083365095 4.448234430651522 3.674669225974185 0.09157549551615196 -0.5650886227516397 -0.21966425546698945
Ni 6.875724448638063 4.666457590032302 7.937528669029148 0.632427357207614 -0.12303114292227198 -0.6068178841696259
Ni 3.2361239824979764 5.084895877724394 11.225127387062212 -0.3274958078306876 -0.007621006880367521 0.4283846103279655
Ni 3.010573161170928 2.3856601201335788 2.3289343579008737 -0.6506690770266214 -0.711642017165568 -0.2423341862606794
Ni 8.172850635012303 0.6072226348583262 11.43362862435763 0.9005592212576877 0.19789806743449143 -0.7020764849643198
Ni 4.963492586264822 3.3890297192322474 10.403370499445485 0.01925216336139265 -0.47571424865186457 -1.1629027607607585
Ni 2.910642055287743 1.9428334417305906 9.575116232490851 0.16486453401829027 0.7400136263297256 -1.4486029727118988
Ni 0.44924697333765784 6.667466538013104 5.381906727035418 0.12266861737653068 0.48225899174891773 -1.0513608494250086
Ni 4.91055510452373 2.2665229243836253 4.0610868383071645 0.14915252259967215 1.2455431585708099 0.6256172762643161
Ni 5.387605400508459 6.673280373727126 4.175144821993222 -0.33941415653482837 0.20592196618023245 -0.4586015002309779
Ni 3.398651338720629 1.6363439970046618 0.02322097992934274 -0.9863299371666046 1.879738149201808 1.2109183694080885
Ni 4.8988159857657045 5.703781475665258 7.273816168786577 -0.30247897407137586 0.9335744998414438 -1.094875741988508
Ni 8.145908242989336 8.547620143906741 9.37941936468253 0.9284693174043945 -0.5274389307196659 0.5653922700349876
Ni 6.856128293116359 6.867124429674509 7.884271704942109 -0.13891438981143175 2.597716907218681 1.0872231105392565
Ni 1.2098629269989234 0.464941543582267 0.2613430600782753 -0.2804729021139299 1.189498766081732 -0.29984462177232235
P 5.783169123721899 5.5509778989834695 1.574910513807999 0.45840506794945574 -0.4600675432535432 1.2575093297937505
P 8.405162594358213 0.6018898801187236 7.728158142559878 -1.2536287637924215 -0.5650474851010591 -1.7116988169999616
P 2.3385643359390036 6.245499084871606 4.430418646226269 1.5992037977223232 -0.5094448081350903 0.23810754977384155
P 6.900252148511434 2.090083226468314 2.982302688465685 0.001151082885307695 0.30346679190594184 0.27695151922423267
P 3.9032755615982184 0.35925046819455103 1.8558348697639793 -0.12108353227759791 -0.7075778743985234 1.0152335075748322
P 5.357236003088569 5.782268257804551 9.422889395741715 0.2813177666127284 0.21576826284669293 1.275958023417241
P 8.68146838721422 3.6022191742088756 8.63951868348153 -0.7373106255762657 0.38417474857997064 0.2888117609969284
P 2.5997132919175616 2.751244511582064 4.445180773810035 1.667547062183412 -0.3501963347519969 -1.490939785806897
