# total energy = -340860.13508009026 ev
CRYSTAL
PRIMVEC
9.29816553422822 0.00000000000000 0.00000000000000
0.00000000000000 9.29816553422822 0.00000000000000
0.00000000000000 0.00000000000000 13.60880513232093
PRIMCOORD
 96 1
Ni 2.177425758189674 1.9507271895349652 5.127675035625244 -0.1746956611760991 -0.16313161048758357 0.8170315357466769
Ni 7.990248192997129 5.504430185655627 6.9122653966809935 1.9986398433367385 0.6355255365169635 0.6501227176048481
Ni 2.5020619021546677 8.102477048403484 11.197025483248893 -1.0770947638560031 0.58653522266119 0.2882263208071036
Ni 1.74679052958239 3.696941232867546 3.5344511448266385 0.9596773675760826 0.8808067212211089 2.399523420030958
Ni 1.851776114204855 9.09095570535412 8.794077374317427 -0.06382583620670942 0.2913209005720273 0.3388829666217067
Ni 6.75434535689462 2.947137181503134 10.82668885673856 -1.7169333259260238 0.44282803944680504 1.701590010700734
Ni 0.24323907494156605 9.042019461277595 3.5176177463322174 0.5060681783533736 -0.0181293626108591 -0.7566934009782517
Ni 6.836708505294744 4.497141340263644 5.105602120973285 -0.848701356046132 -1.5605403197138543 -2.046527668156953
Ni 1.1368680772845232 0.9014654960742311 12.009225802806336 -0.6120799038995136 -0.10199977617326948 -0.5104835338122499
Ni 3.362458331829203 3.8258881895183605 6.505744030013299 0.09903992221399718 2.8161562891396343 -1.8358013386095415
Ni 4.865571842883479 7.6565928286722205 11.448856062945678 1.2717660968230806 -2.1812159357021788 0.9470727914381949
Ni 8.691525119559074 3.8667257316016004 2.655989309752848 -0.18775043747752826 0.18562439227346098 0.3994319318493572
Ni 0.2811086426548222 0.8459703261813322 0.5799061150134597 -1.3630217471059687 0.6516635797294067 0.13974922700790127
Ni 8.167322453341672 1.0380285799382472 8.590857602910987 0.4317116178186694 0.4968006370085186 1.1069655832735064
Ni 6.494973035307191 6.751435031149617 5.389821929744012 -0.24395089592849598 1.3620082182397897 -0.9083260096873002
Ni 7.14142797914537 0.6124552725308984 6.521039511963875 2.455394520166965 -0.1084982394134196 -0.24414989931317949
Ni 0.23604787388346538 2.576261261404271 6.895064720656452 1.329973044181116 -0.29667445157445677 0.6893086437756903
Ni 6.029683544554134 4.187419453471127 2.3661627072944635 0.8233729045836724 -2.2745184412117667 2.7140513548470677
Ni 7.4341900123951214 5.779386232318536 1.2113649778243505 0.6563985233112308 -3.195485793812161 0.5308646685717632
Ni 5.410974326029341 6.271249879554722 2.149061704882542 -0.8114216457590671 2.398935922958604 -0.6660746129484142
Ni 7.310868445762604 7.426519026006534 10.562024949267807 -1.079120021816148 -0.7608179646695865 1.04629680463854
Ni 1.4679106571546519 8.182236710514147 0.29773748151221446 0.6927734623958391 0.1760542320865226 -1.1889542064321716
Ni 1.4163988212846264 3.7836280281412367 1.0262729095248044 -0.3173476636530922 -0.6412135880406763 0.17117222140387295
Ni 0.8691181087442253 5.958812928488911 0.4186759283733442 -0.5531473912293635 -1.1476931428998558 -1.941286245117934
P 0.27039250712409946 6.922418993209887 11.75972162407249 -0.24576146677467353 0.4775268763805711 -0.06790951935777982
P 3.5162778807096773 4.6934721009848674 2.334291386028817 -0.9952285252078151 -1.4168817303492178 -1.900672842471946
P 6.227418328238603 2.0816825498947913 5.205490451367601 -0.6349948608244741 -0.0683661472792242 -0.7332950766589694
P 3.685839223476064 7.101864285710902 13.366730974773787 -1.2855749776817151 0.4525288116743368 -0.47677560003684344
P 2.0475489850069097 6.157254372737663 8.80310031394347 0.111106366460228 0.4881912980729528 -0.1157927161923038
P 1.8055735307322636 7.676704760258298 4.105150216540729 1.0844771723630031 0.21868415094190724 -0.3212241158893629
P 8.768179194453026 4.132318525787775 13.51742169102425 -0.24617335750111152 0.10975653730055292 0.9475247913739488
P 4.079160914656198 0.25603985913692057 11.36068435067046 -3.128203880736051 2.2186329428980565 -0.4039658151639688
Ni 5.811018590735472 4.846557094805102 7.218776626988689 -2.0691688025952364 0.7488332815038846 -0.647351068396982
Ni 0.5775666966190737 7.528417619742926 7.347448357946045 2.4008179704726653 -3.6558657260998006 0.7629866901861311
Ni 3.7305169078362574 0.7473660724176395 3.820549182991904 0.6335838394095604 -1.7322951530940747 0.5343806521448216
Ni 2.674970584436074 1.9777290616227905 10.268509764627174 1.7457667052179484 -0.45586558935705357 2.566844643119857
Ni 5.804277420878835 7.413194755103691 0.31633846123387255 -4.089821916978273 0.16230808614502368 -0.9419642665670358
Ni 3.161060071008851 4.983658542441117 -0.007865318043764339 0.7522898725939173 -0.38941080016792934 0.7875399540454631
Ni 2.8544716659290055 7.150856318779343 2.0249628116293144 2.7221966096620216 2.0671661703429107 -0.6738105481400911
Ni 6.010798970790231 0.44616130505778373 10.970329704043781 2.266281398013955 -0.47474828519416945 -2.4546455578160824
Ni 7.506678509225936 2.5942904039587797 0.9282665277911554 -0.30060386853585 -0.3714580723442506 -0.13515080900394144
Ni 5.988799511644296 5.899276775948159 9.402296402728762 1.973757478272762 0.7171799162646616 -2.2856209788828314
Ni 2.1360210280219443 5.80920544849817 11.64815665766995 -0.08240025677478713 -0.4727631364433406 -0.4272772361963997
Ni 8.94596941352717 1.5174512819769432 4.833031053714826 -1.1974159640462798 2.2423228303158282 -0.2148418943776816
Ni 8.961199808320508 6.824481417899602 3.755921355122193 -0.4391757874061985 -0.38485711935897593 1.3410151609278904
Ni 7.360316088931699 3.112532946206385 6.716122458899223 0.4108787402337182 -1.2726916939611437 2.0215954236916476
Ni 5.508465589404289 4.294329758314728 0.27622338659595735 -0.22603236377686234 -0.06841139869486283 -2.451979580948145
Ni 3.4159320805816424 2.313913526914602 2.4485779254203766 -0.10907776606597344 2.7377867507907947 -2.67259051659912
Ni 7.989058027836233 7.885736814805958 8.217377266706132 -2.450962709647856 0.3589871935707495 0.8415539463680732
Ni 4.433774343611256 5.56136285190692 3.91103427879861 0.05589603983667148 0.43573565137639797 3.6714895486799866
Ni 4.088728726769962 7.203558319810264 9.180608615364731 -1.349797535106211 -0.4693553963133723 1.976126492725571
Ni 2.652283061056496 1.885175124032496 -0.007023834082349665 -0.6975390021052826 -0.7813723917821703 0.9758403504891903
Ni 1.6325997612936207 4.087073653343092 9.709882500947389 -0.09769137860590271 0.3131127996361382 -0.09223061260164761
Ni 8.287212996971293 4.894544926019037 11.39135899805949 -0.29510145066038207 1.7022471846687586 1.6767549539349251
Ni 6.795712894401072 0.3578482606697127 12.968837375706057 0.6197189085020102 0.7625159211972996 1.6366776262980653
Ni 2.7667527743048503 2.3966300055968666 7.9952134132777415 -1.983944960328725 -0.6404821091912904 0.7327888264465122
P 8.069356983535428 1.4332006060169613 11.534360131590727 1.8074983778997904 -1.0802510500967977 0.32804730945878335
P 3.4537105262747674 4.009750110546136 11.411880978736157 -4.281718258303375 -1.0897723593236714 -0.377379322924692
P 0.6721560025978066 4.54158657049085 5.2971452563715 -0.7558302816470079 -0.8790704552562926 -0.8138983894343338
P 5.326444705109774 8.39774028812418 2.8268616938292843 -0.6572158770062035 0.39297203515662643 1.1223572352382283
P 8.981581386700851 7.179569053285956 1.5882019517095443 0.5044964629908796 2.2740160476540514 1.2811138565865678
P 6.262202764698849 5.846983894191294 12.283824799920978 3.250250291147551 2.2403261116007736 2.4626887398355333
P 2.15595629446695 0.14144090139062535 1.9186922205596946 1.0653988155753136 0.10039155114588516 -0.36215145023134404
P 0.9217076019747807 1.7039073911288598 9.231914031964664 -1.8151952323234157 0.6641002628308628 -0.5796114989581631
Ni 1.4464411934319281 5.7262286211869595 2.7199513889856832 -1.4467430366850247 -0.5176756806853149 0.46656729204527386
Ni 9.117966875607266 8.664727807108278 10.546755502180124 1.1346555929896072 1.5067721248534631 -0.5217341670254048
Ni 7.75926317013013 7.395900167609423 13.443022421220277 4.980588320515254 1.8874152061310914 -3.9563909188789155
Ni 5.1913423630174504 1.9522427904820434 9.473402262376567 -1.1086745955448132 -0.011176328331793654 -0.7960068538658936
Ni 4.381286200382684 2.3347879080568776 12.218896641311447 1.4409624254475055 -0.9020278353834142 -0.42505811705789376
Ni 4.534473474021433 3.2212935859485663 4.403999758625156 -0.03161891245686168 -0.7166579823229206 0.3425395895376875
Ni 3.9467085496799323 8.013000803533943 4.805908305477848 0.04937957887439238 -1.8698733405925863 -0.36873681675834563
Ni 5.109797453165442 4.984458184658594 11.012367639269769 -0.33551842102484797 -1.6296510584685868 0.37520571231214095
Ni 0.6259087879316817 0.011104798841077845 6.179078096559059 1.4528272952058916 1.8966704061807722 -0.4293387467111187
Ni 1.1856741470465741 1.917737298981382 2.481156837066838 -0.9433477771781238 -1.6668443796894326 0.42893662617669354
Ni 7.00962648574147 9.032228493196163 1.5931011550163883 1.8795455735750275 0.8902776368260216 1.0095675675383065
Ni 4.0001358076057745 4.178855843211868 9.150560664318238 0.2638049545399457 0.1636676854967117 -0.9522314528209986
Ni 4.657850829645867 0.09257625318706143 0.9622987426770542 -1.9611271911032613 -0.30732884596450943 -0.014517476889884676
Ni 4.914126862181903 2.4579607040442832 7.275063070750276 2.0316263255650884 -0.920836226339169 -1.4410339021153893
Ni 1.2812778828616647 4.701133789208136 7.256309601117378 -0.2070524802402499 1.0602635512312772 1.523611565008305
Ni 5.666580890662373 7.393901062065731 7.478813767396462 0.478642220931937 -0.9466292761428731 1.235824131510833
Ni 5.0897227142406445 9.276667961280477 6.47098655823248 -2.868756688944169 1.497994635771149 -0.47202008762972897
Ni 2.390837248602819 5.941220799704419 5.213642152903206 -0.24143944236055193 -0.2667455252255084 0.509272287112968
Ni 6.990518756009899 9.251442038768676 4.069182123635311 0.05347560332063694 0.29735502258124924 0.758937716927738
Ni 5.64118760117482 1.8051830077888447 2.6464224274556156 1.6413040693264829 -1.0283569323306676 0.8814883206691657
Ni 8.570630374074947 3.423696048623424 9.747306686541842 2.5304401363488935 -1.106945014448216 -2.33692811379724
Ni 9.130770449252216 5.875510665391518 9.266725433104336 0.32691371007497244 0.439482777123656 0.01557034363443125
Ni 3.1543746901441314 7.775544257604574 7.282602023191326 -0.6399264937981366 -0.4655493923037208 -1.9491965011039465
Ni 0.8448694234075035 3.3531787628403427 12.136087180975988 0.9852328474476838 -0.2646076529468991 -0.8017946641922643
P 5.3425026366165485 2.05515488423826 0.5688589647973626 0.2760315785131246 0.7742545497904665 -0.3894411391852325
P 6.698435488828473 3.8677113371254674 8.765145203109274 0.11226361999312277 -1.2037599039864366 1.2301862164987651
P 6.086764981450539 -0.02609623078570634 8.5816849628233 0.5402167992106245 0.5948730531029238 0.2911805183394211
P 7.119056593386656 5.823626902908713 3.5275109942321645 -0.8186639291437772 -1.2422230930586415 -1.7524885973228141
P 4.409264379829057 6.1154963122877914 6.190386525220633 -1.2237985678048666 0.10115979677047739 -0.643054240793841
P 2.9110324055675187 0.6447301341714119 6.877454925357854 0.04886381558023843 -0.7738043496269253 -1.2423012545947443
P 8.437815380651221 1.4989758274870983 2.7325801571226265 -2.20703906741287 0.08363592895410112 -1.09234860469128
P 8.241856546542776 8.013121679683097 5.851922149792481 -0.338577776676462 -0.008874162561178267 0.1565531859391175
