# total energy = -340862.2675672629 ev
CRYSTAL
PRIMVEC
9.37455088710560 0.00000000000000 0.00000000000000
0.00000000000000 9.37455088710560 0.00000000000000
0.00000000000000 0.00000000000000 13.72060281740371
PRIMCOORD
 96 1
Ni 0.9591571846616174 7.67327622639492 6.239320532952893 -1.4294983906719638 -0.6736516539647236 0.3814136408950657
Ni 0.6364045184070021 1.1542134671349034 6.706301603661766 -0.03771319828005763 -0.6871484028995779 0.41376506064257773
Ni 5.539947155538198 5.769783022188728 2.2537329914220203 -0.3550338653499563 -1.5763330637717368 -0.6369995499593287
Ni 2.573079883301544 5.11616120343134 3.9655288147750647 -0.6450992962483277 0.2982399962893638 -0.12072692026912756
Ni 7.511940203836875 6.267027955862396 6.849256006636324 -0.5428236407058522 1.7089575068093985 0.7857440384873048
Ni 0.09704910168099425 6.751120394495453 1.2099761087956833 -0.1582853381388758 -0.20506064662120166 -0.09264378887966626
Ni 1.2524775106243533 0.4690556588432197 4.566627836694219 -0.44430539532328 0.4921220005859267 -0.9509510434466786
Ni 4.329533255211227 2.387641890145198 0.34947107403455047 1.031117011574308 -0.5716523920120864 -0.22235928580064931
Ni 4.241506221404135 2.6590538904415686 9.287956388754933 1.4022948336739784 -0.39994306715782085 -0.5850954048908698
Ni 7.591295777977134 6.778194097757954 2.6578998832145557 -0.2407352172046757 0.42567158227217655 0.6517954773215807
Ni 9.067562569862712 4.426400490602992 10.802147926675291 -0.12889377235063607 -0.8812602638187597 -0.33006691099197344
Ni 3.283127124474785 2.8595192888367604 11.377673173490534 0.19989401481859767 -1.108148547838014 1.4124146957167998
Ni 5.56143362640996 5.244367562786589 5.570674121321957 -1.6884236485221051 -1.1562664863911636 -1.533301024381927
Ni 3.083186700935099 8.302205477841564 12.316299154026387 -1.0651010818292366 -0.01939126004241822 0.07430462425084622
Ni 5.970717148133477 2.803909452357136 5.638275883429486 -1.6058704111092215 -0.6350442260051709 1.301822806999145
Ni 0.13368297204429064 7.967112152662171 3.4502922428391405 1.5607022992130153 -0.5356754596968452 0.29285636337994725
Ni 8.173164783448101 2.05914824886359 11.58799591225294 -0.9013542063551574 0.5198343788995305 -0.05839489499912524
Ni 6.683717372868938 5.0885250271093705 11.26192559240255 -0.5430257294143294 -0.8943600344255114 -1.1268111572445239
Ni 8.172330448409886 0.18625920382317168 4.483275891466424 -0.6467044359519185 -0.5142036629763145 -0.4373608456846468
Ni 3.0143399984559425 9.17765729670302 8.020131800702934 -0.261476306406769 -1.8197926218861111 -1.4150557328840727
Ni 0.2543803160556118 1.945491192646638 0.3103407607423054 1.541139032369107 -0.6176843945704846 0.32790384190238364
Ni 3.012765073889426 8.459332327004573 3.5767689975365182 0.7444840033962533 0.4589347152006806 2.5750922278406296
Ni 4.3207305518305175 3.601449377930973 3.776802229131017 0.4159666962795868 -0.13907559797964436 0.05387798096537818
Ni 2.2160126105988476 2.004522740238039 2.9204304339018914 -0.2652784537616786 1.0684828538172761 -0.4579342989606242
P 6.256444087793366 1.8014793403202758 7.751193744413134 -0.2978198780328097 0.9361425176789362 -0.05240936683965168
P 7.42532872722945 4.395914450779705 5.084732083778342 1.0095997063278224 -0.7376860066378134 0.3828899683302761
P 7.192624247975623 5.465953824564888 9.1794815843259 -0.16862580083293538 0.7727023748119982 0.39676801186394894
P 6.64618167070029 6.767694600647843 12.388565692707122 -2.3121586201620437 4.048365192495383 -1.6027910008529493
P 4.326824009974779 6.599046428316685 3.875782488316192 -0.09172153417571301 -0.012140234906959736 -0.15718670575805832
P 5.5503716562403795 7.594501874416115 6.795539829456918 0.3133688815110023 0.06800233618190224 0.11627711202789007
P 0.09126031644394642 1.6911971224601452 2.8675785903238693 -0.9494055533364295 -0.422833084382117 -0.21011055034028334
P 6.020589759406504 3.2892112080680547 2.4436801436051185 -0.5547275912322899 0.5044069886008669 -1.0376483849349227
Ni 3.5668010374676067 6.572947678357266 6.038835448000619 -0.881098798540231 0.36193907711022183 0.509026232540433
Ni 6.311013349112969 7.7988577114726425 10.196959725613787 0.8446256433148615 -1.2104098052027863 -0.3264123449585217
Ni 8.03093409581006 4.6990874298341625 1.890246026200571 0.5100297341042829 -0.4580556550298369 1.0127660198709463
Ni 8.2141503203815 8.700942629700013 1.664103732640563 -0.29520095235272387 2.3521133061781105 -0.4083845130569547
Ni 0.01760540676141834 3.5427553141752544 4.162213456755517 0.8929125033457073 1.1000539437553376 -0.5308374148782535
Ni 3.610139586699788 4.377137225144391 1.4479490857065482 -0.5108388602691396 0.529936500330539 0.5360397850147993
Ni 7.778561808576757 2.4091846083229083 1.4189301631133797 -0.5572426443446596 -0.32928015342461997 1.0548693767988995
Ni 3.6639776330420806 0.49130053089016834 1.8132875247487543 0.16855458127536777 -0.01727061415498961 -0.04366478787780222
Ni 5.982575955137308 0.9138462299008935 9.863494759941561 -0.29718018756628173 -0.023123216281024695 0.7882621769234683
Ni 5.477278282162223 8.117283084989733 2.4931018389754707 -0.41525604336580746 0.7820545054508596 0.5865799598561963
Ni 4.838702617745665 0.3546298894449917 6.403227057392717 0.4729523696360112 -0.14923274101830428 0.720575829320088
Ni 8.662544468840178 6.176357298675795 4.912099727275936 1.6316040684298996 -0.4035405547010922 -1.0611590664623531
Ni 7.727639247592719 5.592360270129833 13.49989340142272 1.9867520907602172 0.5317429574116583 1.6127586535886222
Ni 5.754699369643933 2.954408493969389 11.788961911671061 -0.21385999008038653 -1.4057717364789855 -0.21711500668257447
Ni 5.444467353693126 8.312704974951675 13.593728907023939 -0.3321729015913828 -0.5799948504395108 0.16694738468924797
Ni 8.351459368749174 4.326364656976211 7.850421491744476 -1.9440787202614067 0.25312690600080917 -0.7126709726507146
Ni 2.3573808395456997 4.976442895458935 11.137685605571665 -1.0282468891153644 1.1541242432371799 -0.6511066787846722
Ni 4.447221368354382 6.794008965280058 11.270171447454382 0.2824858187789006 -2.4059992575632885 0.5340893461566479
Ni 0.11206338254845304 9.147283751491626 8.740778846681893 0.09171922018286785 -1.1936127882501055 -1.245111727460346
Ni 0.773718254050173 9.401080970475588 12.122728737885202 -0.05219545105663269 -0.5152012510028934 -0.3677088897144635
Ni 1.7620031060964565 6.359789137920028 13.389264325175915 1.270327050383709 0.7476366900926221 -1.4267779064170074
Ni -0.06750895405271666 6.0639939304956245 8.881730845564737 -0.8311304370419041 0.8950868852892068 1.1082177105130526
Ni 9.072943562131643 6.594059167189382 11.564080495219363 0.6466509570061637 1.2752630542327454 -0.020401703584803574
Ni 4.571002939641798 0.7322996128609832 11.97086944892413 0.7911245860729278 0.5369329862530301 0.23087812190493787
P 3.7681195200029944 3.9895464144144435 6.18844484472381 0.8763335159411038 -0.6581653854036665 -1.2764550176583178
P 1.6761978408742721 7.351326021705149 10.702907054972561 -0.6835344602960745 -0.6418725617809139 0.39230329122437596
P 2.592185218221549 8.77452348042971 5.78453762799373 3.3598463916108394 1.4982260350556649 0.6979485788388754
P 0.6653812555207103 5.809109263596687 3.0565657884854716 -0.24414784243065052 -0.9930659703388575 0.16328690511852526
P 8.334341438639296 3.6533937649730492 13.346812608467497 0.5908338500365438 -2.0826033308335874 -0.4662736720642551
P 4.128177274471874 6.477289760043361 0.4379340244627316 0.014955592868567793 -0.04827580428725234 -0.37885719302179915
P 6.918971729992363 0.5876531034325186 12.48373144709399 -3.35071794694701 2.7881284364681402 -0.932377394209549
P 1.2278599397215395 4.092085253155868 9.141159357329094 1.100228264549673 1.9711370099307792 1.5723936195080148
Ni 3.8945634637719033 1.3948113183232962 4.536799890350513 -0.027109197511966214 -0.8327458611581401 -0.3905235736161339
Ni 8.099733925534261 9.020492949336044 10.786136193582372 0.8064912983369853 0.8697432643180956 -0.6821692045174316
Ni 6.9414237796162155 9.178107275150595 7.998974376570962 0.539921893678025 -1.3116629330180185 -0.5014404497733752
Ni 1.0894259452349235 4.522752125690244 0.8938756239244028 -0.7493809264772384 -0.8790899956403182 0.4333473536498795
Ni 0.9494076516308 2.6300677787768696 11.877335803864824 1.4754550599077363 0.42666582786464585 -0.1256420981825578
Ni 3.3241407850611564 4.683741289861616 8.106104870387862 -1.6129293748385318 -0.17034201219309372 1.3635742771753292
Ni 7.010542344074117 3.133781152634447 9.681531912837645 -0.8512503477202307 0.4849895033062034 -0.9845057394736721
Ni 6.469527631822672 7.067042762897902 4.769377813165959 -0.22407626849175602 2.3871867528424757 -0.8247646427248764
Ni 7.386958690022589 2.2280120358675455 3.913966909413428 -0.194374113441633 0.7790776822107228 -1.3151580906554705
Ni 4.304934433410395 4.7010842091952805 12.81511151262578 -1.5849467735826768 0.8614596841530647 -0.9746648421238505
Ni 2.1638526088839742 2.730722332769068 5.378585821692476 0.23653891973514105 0.37409808107025894 -1.0587100907012283
Ni 2.498120973576144 1.0431531615425056 13.529447610877483 -0.41476136311757605 -1.9691233219348603 -0.11074461224543508
Ni 5.54412820528026 5.23435554232802 7.77346205283756 0.4281488401680756 -0.2350703056094145 1.742597049240715
Ni 0.9102351528590945 3.636388329475066 7.06230955210246 1.9933734527314766 -2.035298889320669 -0.34587251056566237
Ni 7.90311209304545 8.407209823493666 13.034284764978953 2.3890533737375694 -2.855833038903965 1.7315937561516759
Ni 2.707435948107 1.9610529472919813 7.620587500004146 0.3287188816045113 1.1865579382858533 -0.05718261985857894
Ni 5.9335564280044775 0.9337427769245539 1.405772043342173 0.37907959344525033 -0.2845948947021034 0.43884694331187
Ni 2.7222852368770143 7.567568789418481 1.6772749767831576 -1.1124962832837486 -0.6244705642543825 -2.0574535710408375
Ni 2.797562881336114 0.6103367044658541 10.095893628833078 -1.9101381016499037 2.226546027097546 1.3986135281676493
Ni 6.043173052744234 3.963747650086742 0.2338059889952897 1.8127814806756004 -0.3323477366063502 1.6772938571575307
Ni 4.45809584750414 7.17538444870286 8.65783750678751 -0.37477608097389004 -0.8372476056832355 -1.0913080792419076
Ni 9.205884069737433 2.5813013645207996 8.898551602408194 -1.1251309413286237 -1.1276966451732706 -1.1378591875285693
Ni 1.948350430698945 6.800993005768481 8.445772038995846 1.71482630688535 0.9396924398137236 -0.05735205555690767
Ni 8.349378218429134 2.743818580503733 6.2503928151285635 -1.3645302133306951 -1.4477300831886424 -0.3602907428735215
P 4.302356431887824 8.634327070356756 10.133790251214885 1.2001207645719525 0.5561828356215777 0.6001327588399664
P 2.4326678585557904 3.1116665868462756 13.566108667438654 -0.6530146944406624 1.6964480614884785 -0.2730197882699943
P 0.534712201620081 1.240206223376911 10.145110021536723 1.0516467560965437 -2.0685386252104054 2.9094747354888213
P 5.777292037532654 0.5976210635014303 3.862829671211692 0.7910852481945602 -0.5404448560610305 -0.2646901853583764
P 1.1224056156218618 5.553409010761519 6.601393815884873 0.08311990854963104 2.603192585621272 -0.496113638243823
P 0.9055347529921216 8.639633066217757 0.4774918172801741 0.5081821393725829 0.3431497123178606 -0.3550896582885562
P 4.478232383033174 4.508268444408885 10.396512042742438 0.010230419478756575 0.4167611671564242 0.3875572918989584
P 8.487052874285466 8.778451417295011 6.422806744592876 -0.329378112455065 0.043948894777124305 1.020816143868932
