# total energy = -381163.41205806745 ev
CRYSTAL
PRIMVEC
9.29239835075250 0.00000000000000 0.00000000000000
0.00000000000000 9.29239835075250 0.00000000000000
0.00000000000000 0.00000000000000 13.60036427635441
PRIMCOORD
 96 1
Ni -0.19190475216775738 8.12019017209402 1.5468098410026845 -1.5537428371760467 -0.4126931677346376 -0.2952644586008076
Ni 7.6408232186043445 3.89263212924948 0.33925988818376707 0.32917833773943306 -1.1121324721864267 3.089553515353705
Ni 4.157530528906955 7.146774275727541 1.8184099183474993 1.826245062379674 0.22677207015636427 0.6925567183993427
Ni 3.5068117499118294 4.4913134775054235 12.11720381196729 -1.4050682826540577 0.0911890587110107 -0.09005185978277395
Ni 1.6125098850304058 6.096463783045574 2.1813356866395788 0.08674773511020545 0.4550618625088356 0.3070730211999615
Ni 9.093169325738224 4.4386534560770405 7.339872171842961 -0.6123629823575711 3.3560270178647498 0.45102960142099097
Ni 7.514855466622138 5.138798501876043 9.91870506558213 -0.6107930667672901 -0.32760096594998417 1.2116213090123842
Ni 4.318381944281106 6.616559318487006 7.059786276328321 -0.50423343913748 0.27351009764285156 2.641900286604115
Ni 3.7985930579851006 9.240044973999565 3.29793907836376 -1.5447843424311782 -0.0024978267211892466 -1.4851450335019907
Ni 0.9541062926029041 8.567935094011297 10.974867910742583 0.4325688236126421 1.3734146603045185 1.0953747931121134
Ni 0.20246649212814208 1.779763762865145 0.7151113825755254 -0.7087189299815021 0.7649895795487729 -2.459907834656286
Ni 6.455029558033577 1.1659636824997994 6.923428693755136 -0.9523409818156695 -0.39048089330365654 0.19912448364242483
Ni 0.31258698797059775 3.158318934731196 2.7111919573039467 0.9225850907094756 -0.25807088026964586 -0.8523093851123644
Ni 6.522826896368055 3.435752779757807 6.330071889751613 -0.33996360128039516 1.2651773878619694 1.0367814089489369
Ni 5.265230873775564 3.693235845534949 1.0976552622562765 1.7259591835737176 -1.0569864231419022 -0.026693707241102416
Ni 4.330982436438664 2.8047989320452236 10.727165094224905 1.7213857052704225 -0.735569988736075 1.0512693181524668
Ni 8.601935979560345 4.197376333015815 11.964920917108246 0.8985257357674267 -0.1663262061654813 -1.316848590984016
Ni 6.331988911530451 7.582225354632686 6.684945794876638 0.8542171436580385 0.7901036010075811 -1.2968063276211603
Ni 3.83166470369952 4.670777566767178 9.348713997220331 0.5012928684519173 -0.28176668122468895 -0.9733502370774851
Ni 6.073437219943485 3.2334665601575825 12.533782959070972 -1.4063682324124038 0.5701385264707214 0.4438209994876937
Ni 6.7057012958228945 5.459274736042635 7.870517367126928 -1.5083950051688668 -1.0990990360412363 -0.7803861166095012
Ni 8.659288662153601 0.7014850096405367 8.300791650913359 -0.46804516214238107 -0.6694972654767181 0.40609777390530705
Ni 5.606587127026252 5.532870530945193 5.354722245289271 2.1208973413177796 -1.731108331874825 0.2438256832045414
Ni 6.086381530839858 0.2728313201256972 1.8977270429118631 1.2998384295792644 -1.3778235880054917 2.1984865498571686
P 5.187945996729532 0.4462441995843524 4.660055997555237 0.169492776818921 0.0327018611083953 1.633548336640464
Ni 1.7934793428242581 2.59831254839248 12.250256088448703 -0.32633855429779285 0.3690317222909451 0.1445098816213382
P 2.674138518898145 3.3346329009535607 2.840871093185658 -0.41329146344026885 0.8135913997168762 0.329802087366361
Ni 0.6830832731953935 4.377946217680777 10.07154550434195 0.07632294023245564 -0.5566420346461833 -2.2982402103087387
P 0.7656787558963256 2.75304027325643 8.304722335413837 0.8253742512844172 -1.3152622203335025 0.7626956413082735
P 6.75968083781645 7.513898349592471 0.7646054838873301 0.4276731860832377 0.17945580156890387 -0.39445504746005616
P 5.204876746516458 5.4196891190874705 10.852628268976908 0.8374023860935449 -0.02703566396155344 0.6144278353063999
Ni 6.404488203428147 0.9711020891782549 13.346676390964758 1.100522141641008 0.4944735315372387 -0.5177489571254116
Ni 5.464208999564511 7.391378077396736 9.744511624662387 -0.12173813514246129 -0.29983767979378684 -0.18474738898514634
Ni 3.22554943676655 5.378895490347291 5.643647999350731 -1.4705380822220933 -1.1249473645629078 -1.0900922045569355
Ni 2.2456102767609805 8.126128014637295 1.3593682277606467 -0.8843440449504059 1.9762362788305579 0.5959943111915607
Ni 0.6153621325273558 7.162255411372448 9.383748197465485 0.5937181135628743 -1.0064981845843635 -0.6765318037259962
Ni 5.5680794282792565 9.821414584136384 11.112504127328217 0.7705732442841374 -0.21233095503036978 1.2716218579357326
Ni 7.545613305148333 -0.1855682657354273 10.162369405778515 0.4083585449150257 0.3686504276921264 1.1797576275345683
Ni 8.346850352556542 4.430085864801768 4.91473647599114 -0.016281253658526798 0.05592689307460691 0.7771125880645521
Ni 0.8048452856860719 7.586156039133163 13.198215459545542 1.798040317810684 -2.2122231827169707 -1.1952372112274061
Ni 0.9737968846986768 0.7217052684420476 6.627512268417769 1.0494245516342442 1.060115198578871 0.5817665976279529
Ni 8.509002703699174 2.3348637628770237 6.670203404900261 0.5596484255726748 -0.3999839476980854 -1.6202487913180803
Ni 6.391246535784694 6.110978509262467 2.340187377889609 -0.1421210696741875 -0.519043507567119 -0.20682288072794705
Ni 6.920058340874939 1.751440532705676 4.726901794299056 -0.4551608499805452 0.9098259912715944 -1.9876735741332219
Ni 1.867186646506971 0.4274112958559416 8.992424859827167 -1.5399177583674963 -0.8622037614079407 -0.9817160925436769
Ni 1.6016749485586403 3.5677048362750186 6.3859284962111165 1.3004048436056959 -1.1529428213345694 -0.5611427507300143
Ni 4.322860880284014 5.380131379327347 3.2510041035565216 -0.6933025954264318 -1.541954843402183 1.489236429962545
Ni 7.850812836433636 3.0968311348738444 8.696127446157604 -0.5740157500379405 -0.09462585230670155 1.2281177640055108
Ni 2.2849264141641017 8.117151557834786 5.611387580011941 1.2752885081540424 2.8016167007625623 1.2324868396074837
Ni 4.414493220376706 3.270784831916253 5.190048866475296 -0.6685369584459777 -0.4380496442215553 -0.006491521261614628
Ni 2.8143701023418948 2.1087518339169313 1.0429806488664195 -2.137185794065158 0.26122228141443393 2.4040745297367496
Ni 7.5532516565889765 2.0388265363611553 2.2577554413995715 -0.09692030476783309 0.48037128780790167 0.21009126706657366
Ni 2.4741753988844915 1.3724407737541968 5.194088272036424 2.0368533782919824 0.10777293121162083 -2.049379535783451
Ni 1.9264442707612146 0.37039871504215977 13.136305784803268 0.030080621435464323 0.03551644773905496 0.24570053162975106
Ni 7.849716333428774 7.352368589139042 8.688620117533642 -0.72654618797091 -0.48246262311929167 -0.9717630950960231
Ni 8.248601824841298 6.887627870646414 11.288968630403792 1.1109903881621834 -0.7535111465955281 -1.330686782418689
P 6.597658580250668 3.979004971878176 3.852071739707791 -1.5694499634986583 -0.3213171898238014 -0.9443479363078638
Ni 0.9858862949471904 6.32879232649933 5.877003352821751 -2.0248388703296096 -2.465702586961192 0.06910328255556486
P 7.987745618464456 9.167787284458873 3.101181835779574 0.5455240703561507 0.6806712798156666 1.288493951100723
Ni 4.691527492274427 2.472893047912705 2.8857663865558867 0.34825952274060024 -1.090174736968413 1.144733031830267
P 2.27625660650702 6.704669839606457 4.230665420851537 2.3204177748470425 -2.4468057500566895 -2.841416349258003
P 4.295401843170749 8.315191151390758 12.58644390973919 0.3114701218263926 1.3892799094715493 -2.9680457510544946
P 8.109048586476828 6.201913919479187 6.453005673673758 0.13978085157678508 1.2043075489597905 -0.7641578276760967
Ni 3.426999340515609 4.795927587694911 1.2325818154841333 -1.721797853107177 0.023681145667023732 -0.7518095905233891
Ni 0.9299367645042232 0.8831337417535022 2.5723588798113126 0.6048486762583971 -1.0284723748626095 0.9684990796327708
Ni 0.8234644642525182 7.9698577516478615 3.62121975835126 -1.3929493879033366 1.19625305408643 0.06359289426029693
Ni 8.428604873207137 5.913236272453576 -0.17708058908593288 -0.5562242303824743 2.0852759925697444 1.425323433358668
Ni 2.4046125048642204 2.338320535061841 9.91002782400637 -1.260007670735572 1.5293844629363402 -0.9323753373270199
Ni 3.5442136532556168 1.767432750259628 7.218284856441192 -0.3552524091186656 2.0373555147393816 0.9781453444732833
Ni 3.300501921827665 0.4577240285013498 11.210481317011752 -2.4453163099953565 -0.09615231625355698 2.5786686323379784
Ni 1.1583625006525402 4.758962427073399 4.141650749372993 2.0230411549992384 -0.840905514150797 -0.17272465349265737
Ni 9.291682831609858 1.703528926832243 10.438918614482558 0.2662583011764447 0.20935567445212977 0.4137946283289325
Ni 5.3043239936183735 5.385390876791342 13.159359295860561 1.5295042763436562 1.4543645577860245 0.09121194152914613
Ni 3.3375321292376006 6.749487076830578 13.344501040511894 -2.1574969948186844 -1.8240375132053943 -0.7650934521164887
Ni 7.711110919695624 7.122465361653666 4.286249760039496 -0.004951173357688248 -0.0042888571833410005 0.2886312695550061
Ni 2.503427868878589 6.3609811943708525 10.453321831919297 2.589197299783444 1.1907089843397491 -0.8628838181941011
Ni 4.998195222498443 7.387308006921064 4.426347532947059 -0.5954027003541488 2.2630286954046124 -0.47713709714132013
Ni 6.837690521933491 2.528786823965594 10.713768243529069 1.2777493109897091 -0.792278497171713 -2.006184488453216
Ni 0.9769098381446815 4.5244780472033055 0.6234790424828336 -0.21111456612476542 -0.9834263903665644 -1.263960998956365
Ni 4.219817475022087 0.4040102491004983 9.357512969214426 1.2211037945815229 -0.3025144552950016 -4.230807844606752
Ni 4.35246646141527 9.348431508310604 0.6760043241351954 -2.342740863824275 0.7117461468435999 1.4637719671428533
Ni 4.066093329179536 -0.3441885762666353 6.84158124912108 1.1064583046197847 -0.14392109899740377 -0.27941772137653814
Ni 4.149446142345689 1.996518246690531 13.071105671806576 1.1409355124610479 0.3882296353756346 -2.532068673091252
Ni 0.4926002579746174 7.9667076286084715 7.189900296452638 -1.3494463224143793 -0.009661177238847877 1.3379478348564766
Ni 2.069537912895619 5.686511045202628 7.933432479370269 0.18615841040006006 0.25263633951763587 0.36518612329260974
Ni 6.198680164854682 7.442523437894675 12.196235659902426 0.25402473522473024 0.40696063612623457 0.04697302631542878
Ni 8.421161662131764 8.789280022619746 12.44203446399895 -1.408436170685026 2.585835839510379 1.0955840809094421
Ni 8.616060425046694 5.205620138384161 2.5077980838208456 -0.21551886584004817 0.6493791545706042 -0.3850363252493175
P 2.8207818572008296 7.8576427492181535 8.753004357955529 0.7452666471985487 -0.9829767044236556 -0.8039070825495768
Ni 5.507427944273071 2.57016587380159 8.718975595211443 -0.7374530646914009 0.39794429156023725 -0.9734710789260654
P 1.3931535296680608 5.365914009857534 11.734462004201763 -1.5961536980420896 -1.1424329229421808 4.006393476049288
Ni 8.140707787642611 9.3541927952853 5.620187481245871 0.8158125757379111 -1.436816521599932 -0.4332136562854926
P 6.33738779496964 8.966904217008938 8.327530527154787 -0.6774234623023301 -0.10269371691650056 1.492839573932771
P 4.563004330746994 4.321996687237809 7.14478849020094 0.5111733607904229 -0.5912123164218851 0.8062228751669471
P 8.252625433325239 2.0770833403528006 12.366199201094938 -0.026988869884018035 -0.9297620680738891 1.1050704231333226
Ni 0.30521811608199567 1.8679579155697124 4.686250339253573 -0.49657643681285446 0.3874678175089456 -0.7618464059341008
