# total energy = -381167.2198222512 ev
CRYSTAL
PRIMVEC
9.28622464011737 0.00000000000000 0.00000000000000
0.00000000000000 9.28622464011737 0.00000000000000
0.00000000000000 0.00000000000000 13.59132842678019
PRIMCOORD
 96 1
Ni 2.1122910412875777 4.909515424510351 8.303757677067338 -1.1817893132526163 -0.8646424527564205 -2.927024828557443
Ni 0.6362308092592369 2.0480117957430206 1.4391994927529053 0.560644470937357 -0.15875970667213304 -1.2025327164475548
Ni 5.002498389785942 8.967576930502872 8.878317741226033 -1.0373424236587296 -0.4278174249705858 -0.5818763837329398
Ni 7.5869382262869625 9.064302244226088 2.221719910038958 -0.4523115534572081 -0.28313527943744143 1.0942314235362895
Ni 7.584356655893812 3.4423105361039816 12.233486347224536 -1.6829137744474691 -1.0420452284510378 1.9334268969745156
Ni 5.628064898903115 5.446333486694653 2.597465623517106 -1.6540857944721834 0.7347045554119863 0.3150928061806444
Ni 6.852453590762377 5.465323815665848 4.94781459995089 -0.6700356544786912 1.2269443125226998 -0.28500524276664463
Ni 3.2889671119957375 0.698602664304682 12.672893772322261 0.09807370164598593 -0.8465907374610323 -0.5953397083266972
Ni 4.481439050469181 1.2470749381559039 10.466804435253628 0.7320974568064423 -0.602419240881298 0.9066141692025159
Ni 8.096269064141318 7.7879664128730015 5.809599443153539 -0.640891171704251 -0.36130607151191324 0.6219223439112321
Ni 0.08027941024742756 1.4218509682619576 12.743827526297506 1.7878677481530565 1.4882311286264822 0.6995244079664276
Ni 0.8493357307240248 8.612016683080807 1.8675433100578265 -0.0303888967045025 1.6706318717563229 0.26613823065881265
Ni 1.1441557127340138 3.383695887465258 3.301048489986704 -1.3294115152506911 1.7964984272448608 0.19147622306854764
Ni 7.243570791549093 8.230129989383268 8.545656394640188 0.9071666992718764 -1.0440823134857244 0.36254791433881434
Ni 9.110194765387776 3.9324188893762466 8.725278905279284 0.5085654908539307 0.06288995465600136 -0.9134304207934011
Ni 2.651068496827832 2.6551915804773243 0.2227022344191796 0.6117603157765658 -0.15829433699994028 -0.24142915794790681
Ni 5.497714166497894 6.684335783576787 7.887727393364279 -0.2577628621109238 -0.8022636334088827 -1.5838823368739043
Ni 1.0163958369463784 1.4534334175680883 5.73560866409403 -0.33553796140887376 -1.3817362927963364 -2.401014145643871
Ni -0.0941298139934123 2.5938189231811704 10.606862986684028 0.05167865932121423 0.14475413642166038 -0.54092770923472
Ni 7.274038893922929 3.934461858752121 2.602834918485881 0.9041389681891461 -0.6329775732841292 -0.8913760120965228
Ni 4.075027438036715 5.481063966084517 0.558190307723279 -0.24125252316072643 0.4034240837278858 -0.47840259411730507
Ni 2.6092526281934574 2.849078660472239 4.952530144719385 1.510732909273424 -1.1015588104356384 -0.7132399577803071
Ni 6.040623991912075 1.6937423335175308 12.292092638261268 0.5042771478912218 0.32187511920980044 -0.779084109968626
Ni 2.472680125416255 7.0122695133023685 12.910986995121323 -1.1920649841470115 0.20038946639777747 0.3717306092793469
P 5.151690871571388 3.0170850329645997 2.854477671359209 0.22329336757914445 0.03990069284967967 -1.168481797510433
Ni 9.161835459475219 8.998583633893984 4.108142114374751 0.5678163060954479 -1.6183914263943675 -0.06268220952056947
P 2.5472392214112345 0.3139607478170448 9.00258321075848 1.1335312495771768 -0.08327623162183723 2.291088686865622
Ni 5.627405576968173 6.737276549085241 10.080035973370196 -1.484859898161404 -0.04130322962416112 0.8703220196397012
P 2.610227681759216 4.341124199244353 12.389038964126055 -1.1821798638228156 -0.048521601749471274 1.987087362612449
P 3.6526992369213 6.535579754339825 2.5225777951771 2.6922743681812924 0.6387833813326289 -0.9027153483687421
P 8.35776914425324 2.2658666210067167 6.812353816403737 -1.4052024942390768 0.3527162729603732 -0.06750996992651598
Ni 4.579278711124692 8.2170364129288 6.362250518000867 0.11369135357858486 1.248744439116927 -0.8693707114700253
Ni 2.2291210309142855 5.013558283088972 4.890539953498252 1.136668766764894 1.4577985231682378 1.0906534763770444
Ni 5.706598498956614 3.7141368977885043 0.39150629359057504 0.9036576576773534 -0.007381894286367931 1.235889694641446
Ni 4.498776431490805 3.3717445166163933 12.016133906702818 -0.43565234763397226 -0.608223506267901 -0.7091395624586885
Ni 4.839506578488909 1.3743890751706211 0.7356881302114635 -0.2534660345077828 0.6890805869252842 1.8641809181934992
Ni 8.623847333012007 6.796448371190112 3.171903109513248 -0.7895760106388854 0.5989747339761232 0.08722801718073366
Ni 2.1147240320897556 9.230442085606855 7.0136689473248435 1.3496005886040565 -2.1130454493735282 -0.7556510757566663
Ni 0.8620448574868507 3.40315981388268 6.595436899808056 0.2600552576895263 3.2660731171124198 -0.22536182007239897
Ni 2.9544308766963066 6.804480955327072 7.068822620116347 0.6806381125848858 -0.8906995548547886 -0.27369778817362544
Ni 7.024276601497848 4.534268381284405 7.422224748979533 -0.0861736077742903 -0.3225304934056123 0.05649125021850916
Ni 5.409597182826657 0.8879051352956461 3.5864661697554525 -0.1562071154536084 0.563845494373158 -1.022555238047226
Ni 5.794910493341002 4.28771912251411 9.651160984027547 -3.0532102008379804 1.5285511684017674 -0.2766098196140978
Ni 1.4806977725115757 4.474344375000235 1.050437278483107 -1.307726831188406 0.6017253001380669 -1.529296016987592
Ni 7.89525945000415 1.3763484685265737 8.881334835545223 -0.9506471390530145 1.1854760180755841 -0.06938327568982888
Ni 5.433741366359718 7.942526332382335 2.0920312854360086 -0.7663347807227576 -0.06012756141951581 -0.9656726659275692
Ni 0.32718990314827506 4.220644723414379 12.255722211636042 2.11411991338463 0.2417451465264288 0.9549213409483359
Ni 3.13037697108127 8.762407087818469 1.1392758017930047 0.29584218548114855 -0.4171884845018299 0.7568093577308257
Ni 7.749939323808431 4.734572242364453 10.453049679619333 1.8429199519321937 0.7333675817681177 0.2945481492600734
Ni 0.7232464467123885 6.337690311613082 11.473704179091964 -0.35372954471623597 0.6875911468639513 -0.26286675899639245
Ni 8.457586770713574 1.8475779275208721 3.19514467203115 -2.38727545590154 0.20032647437032597 -0.23703488553495305
Ni 4.475124417852841 4.236329156486433 4.539911619874037 0.9429736816681566 0.9980467113829005 0.6023148540929498
Ni 4.600024136514253 4.478718186709493 7.027368914234968 -0.670079363232433 0.02123525522969246 0.20372650119081043
Ni 2.0020728434591546 4.24103727227538 10.360737179748005 -0.9445708509519475 0.13681714096277084 1.3539210703562812
Ni 7.937697495675723 3.492381858261776 4.837982709058996 2.3600922106185287 -0.18776277877270242 0.8254493274967268
Ni 1.2002352221017658 7.373187912223887 5.3561521753313395 -0.03511227032210082 -0.5508243995231417 -0.5419659206912473
P 5.9552835893471405 9.206678637275662 13.30421124023252 0.8299472153670804 -0.7387627846417599 0.7980225987443417
Ni 3.045157289434001 1.7459773459688646 2.7197466268876243 0.9419722369868357 0.23027699798582923 -1.0958504471969515
P 3.9310723868330566 5.419709881237234 9.102044246200482 0.8398361923460181 0.6190913022203403 0.4102231089275903
Ni 0.2546849199984931 6.783791247284126 0.7542382921444029 0.5876127719960847 -2.2384306943502743 -1.355826000688478
P 1.093582934456687 1.2291339525459526 3.477191452329706 2.2431126732069755 -0.16949946168714036 -0.2546068329804454
P 8.598495940302293 4.380358497485577 0.6682664263178345 -0.9684327451712095 0.1672541172963894 -0.02141497534066634
P 0.2933518299266902 8.6552904889516 13.181725939924414 2.6431503569611317 -0.25574968833563694 0.24448465694477897
Ni 1.2777751961406345 1.9466619422507798 8.319700267178707 -0.23748559991912646 -0.09506473961633304 1.306196767697125
Ni 7.759299838039709 8.044776949644849 0.16440053154394252 -2.3574851120129847 2.8463582666443106 -2.2662068360222776
Ni 3.1791946529402324 4.301462734679083 2.494402461616461 1.4128656672112891 -0.44271465379739233 0.757789719366224
Ni 3.5437346793917093 8.15930395561148 10.988153504772788 0.08797260865624204 0.5452918997406867 -0.8187852852129899
Ni 7.660680134531591 1.517006910055525 0.6080517612088242 -1.220564377138285 0.4885371114481457 0.39969187037896325
Ni 7.275348251568376 6.34590862023876 1.186011512133462 -1.0082377929832893 -3.8923619655224644 1.1244711962574376
Ni 5.967550691826823 2.590865903810588 5.397347724173403 -1.3897236818771872 -0.4835759107881285 1.0780239605384918
Ni 7.730921136163928 7.025010213228277 10.7099800086864 2.1298437518777904 0.7276443061310952 -0.1438557929771071
Ni 0.8001670295813897 7.174276984809208 7.648505894296268 -1.6714523107750892 0.43038030060175564 0.8823252147481643
Ni 0.24474494536242064 8.965821834084508 9.27050935817997 0.8112480962956803 -0.9288606393055422 0.5031126952694754
Ni 2.0648198619718054 6.918822236804988 9.584332669875364 0.42473930026589435 0.4864594029835106 0.5579018751952134
Ni 2.158582870100004 1.9071676297253537 10.99716485696528 -0.4657327119591205 -0.1948834489778837 0.44686261452749493
Ni 8.231448633253152 0.5307411569135194 11.110136420338916 -1.1091314805765735 -0.8755557572348147 -0.7779875344703375
Ni 6.240212813710567 8.780208780061884 10.977987874882924 -1.402931438816713 0.3534618928771461 0.9916346372089695
Ni 6.262945491129387 8.120821841549555 4.243266894762414 0.35826548491337656 -1.4364154295067713 0.8430696116816512
Ni 1.115396275656364 8.996048494623011 11.269005147986457 2.074186824635118 -1.1533053468803105 1.005869806971745
Ni 4.65154410968403 7.67302152680676 12.966113737861962 0.749579929861922 -0.9760892332752028 0.28286042850949994
Ni 3.281946726322278 2.0196795249894173 6.942966420338048 1.112550790670768 0.7328299640970928 0.7419609798640835
Ni 2.6791964706438485 9.087963544088488 4.170349603247683 0.20654134493178622 -0.14910161475707873 0.5349064427413046
Ni 5.707118527525018 2.586909972200941 8.115789636527799 -0.059099634375633696 -1.5543151647397488 -0.24118567447853298
Ni 6.33537804172857 5.753596080826161 12.286207029213863 0.1085226648934518 -0.2901621043772358 0.5184544678328684
Ni 4.044382897398599 5.617961486716973 11.571561483573905 -0.08409152843428097 1.360171165031051 -1.2475820433777094
Ni 3.414925460242829 2.7172142734839833 9.272357316842692 0.3765637690019321 1.7144105595041699 -1.6678005729551149
Ni 8.802505004932222 5.641437062090656 6.487861561454061 0.9693809680170917 -0.689278047648071 -0.9530146108439264
Ni 7.456011747966722 0.7099374298510104 5.0904277917235765 0.13143967870094136 1.3381697210592953 -0.16529622223907015
P 0.3277600773286327 5.363583940747304 4.324624435666837 -1.7180147319156607 -0.4123272997547866 0.2448752075149783
Ni 6.359466507915017 0.40299335321765056 6.977284591362964 -0.37488509574792855 0.5321669323229544 0.5624270167590765
P 4.899124139366698 6.22804785969968 5.595386675113561 0.1279280660032571 -0.4014116812835474 0.2501662807105885
Ni 1.6763770938225986 6.357488542110192 2.50965229938492 -1.352599266221064 0.238778350588621 1.5001690177146487
P 6.574758335234433 2.509973602750398 10.300487226986139 0.6746227596287414 -1.4734830237830299 0.2884152968894581
P 4.339155519663965 0.8920300761900252 5.4723711313901715 0.16374301881933737 -0.11440534892647394 -0.2008126699781251
P 8.381263292075795 6.002559757949761 8.736845826436506 -0.2988084671983241 0.8856882176831262 -0.3972804327239932
Ni 9.126594237741385 0.27798405710789686 7.21608449584159 -2.1133372695823347 -1.3154517106364894 -1.829186147285869
