# total energy = -340896.03275674104 ev
CRYSTAL
PRIMVEC
9.04892558697779 0.00000000000000 0.00000000000000
0.00000000000000 9.04892558697779 0.00000000000000
0.00000000000000 0.00000000000000 13.24401727596497
PRIMCOORD
 96 1
Ni 6.423823163702457 2.0125534226597535 11.602632719494476 0.799844739554745 0.34673742966911897 -0.6299770958949086
Ni 4.641383916514079 0.4567300363443527 6.137847256440385 -0.2349255525014341 -0.5428915178293102 -0.7626473045688413
Ni 2.621509913124623 1.696510650637998 4.793023095369629 1.658357425264344 -1.034452246595128 -0.2818790384328371
Ni 3.343270308875618 4.28150814936911 4.803684539394025 0.6513753590650266 0.387424622975836 -0.2173170953910515
Ni 5.093893534005115 4.433321972486815 2.6076541983986394 -0.3148524080350642 0.5388314888273236 0.5833902492743049
Ni 7.393605558489823 6.312458037570873 2.620712702788051 -0.327678613265455 -1.021295654608512 0.016976222843022377
Ni 4.9817863959825095 4.569634986222591 11.573019205902355 0.19624304832957173 -0.0952989671143262 -0.7724372940760696
Ni 5.522776407014996 7.838839839878657 12.503027953545919 1.1776030430854105 0.360279944240244 -0.004293742279347444
Ni 1.9740592935816867 6.449712139558675 0.3688966409761695 0.14900674105042724 -0.14980815390580007 -0.5405122189638563
Ni 2.6519595474329667 1.55147447271998 0.37816274068842615 0.9794743476973519 -1.2811963889980449 -0.20960455723814223
Ni 0.7436542709988514 9.23696217214589 4.674713823809153 -1.66280466240242 -1.2406014982948181 0.27885027890884234
Ni 8.473323349179735 2.4479605709553156 1.455159519480412 0.4360665523532554 -0.2025777322983479 0.2969482740611337
Ni 6.953556311412633 0.8089567467639603 4.719650787843398 -1.284697203062452 -0.42001644086892825 0.7300976527675942
Ni 0.7420725188214075 7.309993486867508 2.2637597385796626 -0.32744310021588124 0.11553740564838812 1.0163869044529852
Ni 7.4287696829837975 3.7915088335305356 3.7964902670184237 0.8119217253239372 0.5302481180336868 -0.2516917162161794
Ni 7.750829990463219 4.011424869963127 12.758266470668739 -0.28739508315505985 -0.039030374429584395 -0.8018764252727931
Ni 8.047046566713925 8.918657168749071 6.6944131829364535 -0.04961792013744358 -0.48566287522414425 0.4335617836535307
Ni 6.890684377036891 0.7795169725414448 0.44238567964135533 -1.0611624088964626 -0.8132918661985864 0.23714724274310128
Ni 2.0400893029570164 6.449766433111677 9.080614837352558 0.4737620100215002 0.17515537442133705 0.39239122295249196
Ni 9.209634417135133 4.82548430581668 1.339764906823565 0.06461387932564357 0.37284518249976434 0.7983504143974057
Ni 6.604231591400956 1.9758238340542358 6.927521647855862 -0.7291219191178863 -0.6334624833403477 0.42528874501146113
Ni 3.1871491972197927 4.143819698957295 0.1180893826708214 -0.19780833593416255 0.5340664633385125 0.4139643211375774
Ni 5.875983116066281 5.712324249468748 4.87999684281529 0.7332858206875886 -0.7631756662684857 -0.4983476697806643
Ni 5.4013579246526335 2.890842131714084 9.59968744593089 -0.2028492407921797 -0.4369142450655314 -1.1763012935548516
P 0.22626204788591808 5.783249727539713 12.524986076164826 -0.5353224472328006 -1.2300710310771394 -0.21393378074111544
P 3.9440103749862603 6.26217315856598 12.586226489272875 -0.22039881964016883 -1.4042545285035106 -0.246008292678157
P 2.3458162999084857 8.418740230562223 1.2862785179766836 -0.19156492612761203 1.164905135902768 -0.05037382446686164
P 6.2111010230425645 7.821076799121666 5.902196043455407 0.7623608836766742 -0.25365963857582763 0.842725083858039
P 4.79771315345641 1.0618733096034167 12.638196278205914 -0.8050661358546846 -0.5683240989698018 0.5863449610272548
P 4.173816886990626 6.0362214888247205 8.179386197262541 -0.44821810011412483 0.33615682593979523 0.5958325888027158
P 4.684637780405278 0.9024583890655006 3.7769952619206837 -0.14661612933106363 0.8081229204031373 0.7545478153901586
P 0.26865264428439245 5.625481711442841 3.6698243127584647 -0.44394107000532573 -0.2904151009283063 -0.9347376669116095
Ni 1.3211069273345983 1.032247127515596 2.6032175102258663 0.8476394904405209 0.194626081551439 -1.139019783495574
Ni 1.9580879400737445 6.388179446156971 4.791221454302531 0.42348537325413516 0.5190571344138738 -0.10298219469119684
Ni 6.057947958950822 5.4791153414762865 9.313815601312069 -0.010897106528478006 -0.004651382729082312 0.5374726608065841
Ni 8.636059225376243 2.4467751617147826 10.321181803272175 0.8936725214401835 0.07432904973087844 -0.19192590901145656
Ni 2.355616286225257 5.232079675319444 6.969134036661315 -0.00793262458351537 -0.6627782015853295 0.25516656213865735
Ni 0.6683482080932152 -0.06498757315770035 9.125657673815157 0.3780028154413038 -0.008839966889133162 0.17117530672766648
Ni 1.567853027875434 0.905109724237074 11.441532889028412 -0.7479441940307119 0.5913601548536589 -0.6184215298468253
Ni 4.112827129118937 6.904266814212768 1.57636897166372 0.13671506816726778 -0.09534113320617128 0.10789171617767224
Ni 5.452493402654549 7.970429314503304 8.262571159601245 0.22485454141867725 -0.219561411340538 -0.9187960559806886
Ni 5.194571879120904 2.8637586976918343 4.942508629956121 0.27704099361424545 -0.6894901636588772 -0.34996133592305534
Ni 0.9217597471575353 7.34657829266502 6.9805374925767305 -0.7435612344716678 0.854370381406451 -0.24981301113622784
Ni 5.146630671820576 4.389606613395104 7.0346654502415795 -0.5746541549528877 0.06217338820495098 0.633270936154832
Ni 8.048494394793966 7.2735987085054985 8.897913411932297 0.41142844208960105 0.9917333675703631 1.4422448917043549
Ni 4.76739020410507 0.456091182204035 10.467051387228766 -0.7389689871152951 -0.8288403554561468 -0.42783722246492767
Ni 8.059344056468767 7.148461117762532 4.885744720293049 0.3330661028296135 0.6584420361038208 -0.15093121176664973
Ni 7.094475228228037 6.0179245614632135 7.335291567888558 -0.27047953834664384 -0.47308349589723686 -2.8444201690813333
Ni 2.474401531267048 5.111493694103102 2.4532822440420126 -0.3245670642196668 -0.07052613104502048 0.35368172219743604
Ni 2.277768380146601 5.300534796728839 11.288895613690185 0.26046637708501597 -1.1344283074701496 0.4016752193575792
Ni 1.2237042932499 3.2979170942683615 3.7243368497570746 -1.6698019196558596 1.0007682240791216 -0.30627160834458866
Ni 3.7315144574638732 2.5013220846302935 2.569855931691542 -0.24103012273727523 0.19992615360811375 0.29789058336974505
Ni 1.1347895512844368 3.2709151005756136 8.224971969255154 -0.7581563586770234 0.619750533070894 -0.475691108723413
Ni 3.5307730941663125 2.658112816773137 6.9982317614999205 -0.1257770810985253 0.09676449591625916 -0.38022347724170646
Ni 4.191299411057111 6.752181523330054 6.1575938216670325 -0.5493311028070669 1.213246503320633 -0.40476362847491587
Ni 0.9902420153434325 7.286792041884865 11.198981870349494 0.28530914716030864 0.7488973019726005 -0.1503408864808185
P 0.2175379788111264 5.637534880209175 8.054971615667045 -0.0803631717401003 -1.205747880950743 0.3757032207738497
P 8.629326824804057 1.4887111254502414 8.014749141818431 -0.1306169256893299 1.4491699009589623 0.01000699061404083
P 1.7448681085113378 3.260499787324825 10.369482252914864 0.22060939298907814 0.16108912613625806 0.8934354657287129
P 4.027341929918069 6.1280861805032645 3.7107752251098485 -0.1362054755207009 0.14965723015023258 0.21995581856547927
P 6.996574903240825 3.96314885241929 10.623383338848747 -0.17660033439797973 0.7587099171876481 -0.20813131512672542
P 6.394016003104633 7.888988985001047 10.255888376432567 0.2730095038573492 -0.686840898961488 0.6746713534784897
P 2.376428814875834 8.427400052265963 5.76835248148865 1.1718021201329174 0.13415990584558185 -0.09467778859055953
P 6.919450911202188 3.9697636169599733 1.5806735455241891 -0.1613845458894898 0.46720775384275015 -0.17974865021897432
Ni 5.19839052568201 2.9826434809141276 0.33184853019304317 0.6554449011487099 -0.29207449090860016 0.8461896453678718
Ni 1.4427697306854688 1.1109456325912763 6.904609768489227 -0.23596710639207105 0.3285188497785632 0.3223443455367352
Ni 7.003814043641025 0.7654232710748043 9.25646894084678 -0.4484027053211051 0.05067464353673208 -0.1919055972964824
Ni 2.876906786443698 1.7794440528477955 9.112876971438602 -0.21554740508513848 -1.1375642819959697 0.6624017920825173
Ni 6.257567255486352 1.95106597388555 2.6279436991553013 0.23918818443253 0.18228967147327316 -0.5085294954096725
Ni 4.426671012244131 6.843792845094592 10.388990831400854 -1.1510234928246692 0.6321944152612016 0.12403515870675412
Ni 8.064818656396417 7.275598521041054 0.36246918919334137 -0.4719586382641743 -0.05761019431430078 0.17630697152727698
Ni 7.569552865916697 3.679636967570936 8.312554709386982 0.6964966768836972 0.37551193069865 0.24317853653884572
Ni 3.1915831707149156 8.358175772189044 12.399565254053702 -0.3476643123587625 0.47031081824810617 -0.10383220139631795
Ni -0.08158149274006003 5.12260577461741 10.215786253293105 0.6006027564978494 -0.9792576037008554 -0.35108516511485344
Ni 8.635145283900718 2.5003267028252663 5.58464481555276 0.8215589913033851 -0.0254858029759303 0.7773907814266031
Ni 3.6625616451519636 2.5229037719483918 11.375472113306383 -0.6135233212142595 0.37656556877414504 0.32807456315229305
Ni 0.9436852936446428 3.0449905776108546 12.850551032490495 0.17154605980352391 0.044997390646296695 -1.3770381159897187
Ni 3.0247662291177946 8.517753573385965 7.954833491403622 0.47258624454584414 0.021783671533994745 -0.24385859332500584
Ni 5.628612639665929 7.935192798605327 3.7686376743286516 -0.6016108860473897 -0.12630338591564053 -0.698351727814565
Ni 2.969911642735275 8.277504601354309 3.4470071908104916 0.4159399568067095 0.14010661034732 0.6802917849890606
Ni 3.4980250327809053 4.290032237190346 9.264269114627997 -0.36358612579534155 -0.12273598027935635 -0.018177699350291274
Ni 7.273725393462503 6.165105334724791 11.534731392325694 -0.893643725084777 0.17255290380148347 -0.29159832260313007
Ni 0.2601728961981075 9.23298064492578 0.5174130356415838 1.2983821567487124 -0.07378294741942132 -0.27839056566360443
Ni 4.5155948031350945 0.3183547724870693 1.6036912973191768 0.058613695878150664 -0.17507438467175654 -0.5374235527362035
Ni 5.8150476517475935 5.506280215828039 0.4049557042021184 0.4977416607655492 0.8044375011317499 0.4535335987897673
Ni 8.199113759745638 -0.44026370661154657 11.25949384495477 -0.6927631779831941 0.5407047945906366 0.1985506134168258
Ni -0.020839675427077316 5.1272207266225385 5.896342293549295 -0.01669263016433254 -1.21253610751717 -0.22349622761856994
Ni 7.912905295098209 8.881846139814051 2.6487770403345285 -0.4003616427524782 -0.9882459232423949 -0.6354504603046539
P 8.487855923533138 1.6591566861729632 3.527000597125258 0.020238952754694176 1.017396576664422 0.24470885714044308
P 1.8432751733265638 3.061314839213307 1.657555026359419 -0.46049691748147786 0.9316063203714794 -0.9325450301356649
P 4.813566870932849 1.172405934588979 8.218402449341973 0.6955358556323247 0.311588906792444 0.2252296653699089
P 8.43377049581814 1.4534836584777655 12.260476934867 0.7084042269545606 0.6473976053642011 0.8224647909471062
P 6.161811525842699 7.801214407648615 1.4281023273421123 1.1781028655399646 -0.17514997510469835 0.36100550955235894
P 1.7020033484166504 3.3695664863793464 5.879972787319342 -0.2568861159329254 -0.24429799485526962 1.2440912566156315
P 6.9162294937240985 3.945593936948804 5.984004664225524 0.6664014001602137 0.5994745564306772 -0.24187498723607376
P 2.6109769638423317 8.445126897320954 10.091305614541456 -0.1379178302261173 0.3327871381366139 0.9326093077146971
