# total energy = -340893.8011772731 ev
CRYSTAL
PRIMVEC
9.06515614123946 0.00000000000000 0.00000000000000

0.00000000000000 9.06515614123946 0.00000000000000

0.00000000000000 0.00000000000000 13.26777233273473

PRIMCOORD
 96 1
Ni 6.165375696593044 2.258973392795236 11.538649855835372 0.7045218611810189 -0.7780209588114343 -0.5020757693645288
Ni 4.79067200067374 0.2562075945280665 6.368238474744876 -0.9848451250909619 0.3153943965814633 -1.0485714596053295
Ni 2.6315784955230916 1.3058810323689578 4.684239818348673 1.2626841891264704 1.2222643905485273 0.7966781689013054
Ni 3.4105654718413683 4.220872561774824 4.845257836891918 0.196701476023229 1.0384166305595148 -0.6122796786151455
Ni 4.76233432334782 4.5956261064496555 2.428042176288305 0.2886328122169029 0.31302023992233186 0.8705655031090748
Ni 7.2721949706766935 6.040965497098187 2.706028807852687 -0.031715071715093766 -0.5108344893937654 -0.6274720700848677
Ni 4.920013644975154 4.453874263728795 11.57648962956981 1.5717577856962286 0.7061899929120612 0.45093035683896526
Ni 5.71693149965257 7.833491293346655 12.416790600811094 -0.7736089457866677 0.17211504493311647 0.44448023033824735
Ni 1.834742227248726 6.437656719037484 0.2184339964316574 0.5788568801803257 0.4813431648028679 1.0671965309056843
Ni 2.6871932269352854 1.4838119122643998 0.3748360375934697 0.44461855568832465 0.19086635739869065 0.10233273403265603
Ni 0.7333575141237731 9.04048960521941 4.5257165307075695 -1.0775421358060666 -0.4731169202383335 0.39062796040448206
Ni 8.456049939551024 2.4577994570272885 1.4187231864269603 0.6262597949443215 0.157827938886483 0.1297664047635765
Ni 6.834828394239187 0.6753441424619192 4.95803381531189 0.2110788277908236 -0.16296063212735806 -1.3860413479295937
Ni 0.7434343414159972 7.239524148833247 2.309110050500439 -0.08906918415453047 0.26413482707553865 0.8804711922585611
Ni 7.759836901704588 3.7565099510837694 3.834704172797755 -0.8354378061680062 0.5727772496451491 -0.2256752375477597
Ni 7.461430099972462 3.9960295001258204 12.69159264310977 0.2705289035273406 -0.48991959361796916 0.14884501866158237
Ni 8.263379116171274 8.81294512711387 6.860764711768677 -0.4325001751582358 -0.017242589130531595 -0.31297961649238354
Ni 6.813824428031844 0.7798608573464972 0.5027771153091983 -0.6233984142361264 -1.321335680221092 -0.7701832079345704
Ni 1.9767025685551567 6.203494677129029 9.558394652685196 0.1758112628377811 1.052058903933298 -1.2412393889891333
Ni 9.07177345821101 4.966037441451063 1.4550100989566865 -0.13292500499721624 -0.6147983312719412 -0.2610235351400666
Ni 6.448933772970128 2.0950391136007602 6.709711112584566 -0.23146073388128527 0.7380469895216579 1.1544898541067148
Ni 3.3966232620757686 4.048534883066232 0.386976094367261 -0.36070623314438527 0.13645435830671337 0.2968685698631339
Ni 5.95675926399503 5.699181924411318 4.729204804616116 -0.4902921464660394 -0.21270299365780787 0.7730062792056622
Ni 5.799524135006521 3.084228924798571 8.89580246501994 -1.2326038248013225 -0.0037802929780386507 1.0139304724926925
P 0.1485280467519294 5.534785322266227 12.40397337689199 0.07619849883944942 0.7238789255513921 0.456714053400278
P 3.9748623611123777 6.144970030674731 12.726659385656108 0.5935648758144616 0.34213772611357846 0.39935762696799604
P 2.4783411002840174 8.428863537023695 1.3824888518014218 -0.5491593531158929 -0.022258811398200375 -0.5629870030276046
P 6.461860685275555 7.832167780586071 6.018884590370588 -0.8233057987911628 -0.9333500425354636 0.02641551387905128
P 4.635585313632206 0.8599669204386131 12.67962482429797 0.6876839636880737 0.2023717869351289 0.2441434715552763
P 4.047156979370282 6.1042765458647334 8.352128805408709 -0.2847684441654902 -0.24305049560141367 -0.7194748829464255
P 4.805421009313941 1.0285869787149087 4.106826555014044 -0.4272389267592964 -0.1189304904903371 -0.7294440783439954
P 0.014201473224179719 5.609926399474976 3.9654055904833307 0.3600426314184573 0.5798845501138916 -1.9412831597941407
Ni 1.4301280590577152 1.0219240891325188 2.482055094653956 -0.2234031536841314 0.2975236869486295 0.2699583757358512
Ni 1.7204034159525567 6.649763236654845 4.8578883185995965 0.7931467587092793 -1.0409309123409363 -1.1782293638155
Ni 6.270567765591754 5.858873710647211 9.12517538506938 -0.6874340524607967 -0.949760879793319 0.7951195661649338
Ni 8.378361553535948 2.1976113525459877 10.080521343251007 0.5682132844235505 1.2810570352067034 0.6123115602943455
Ni 2.4257631960964505 5.0728249778871914 7.028323240289739 -0.09405249630173479 1.2973879111562432 0.863809415332164
Ni 0.45338742644969465 0.20210402460347068 9.044454704407622 0.16468404257636798 0.24700125271904558 0.31156936640841826
Ni 1.5040362750648244 1.17375638520796 11.412114783798865 -1.0834052794550633 0.6887617701332848 -0.32403561719622903
Ni 4.232530352255033 6.956301483224255 1.58949259316582 -0.4634356883948277 0.04327680841076417 -0.2611826864257502
Ni 5.359265773838699 7.802252766134524 8.133926876967948 0.6616602859308024 1.1164416410847418 0.4307106873579808
Ni 5.418669740414755 3.1316668855940084 4.5589793072309215 0.39535827600061585 -0.03550384933356466 0.9773758132971102
Ni 0.935496892835232 7.267218200090664 6.906153947331979 -0.6826664558688242 -0.057134026008830635 1.3006560403845535
Ni 5.389498068746549 4.726064634614294 6.984513154883243 -0.5462146686652721 0.5860482557224422 0.18092364436368197
Ni 8.293974017314902 7.26145276094182 9.191116235560894 0.0013799110666621397 -0.07356286098881525 0.13820502244923294
Ni 4.61568729644398 0.2280630050226977 10.534517948176806 -0.5662864997144827 0.2508666492117228 -0.9926962457042645
Ni 7.99497798044964 7.550894123494376 4.48648344251216 0.40776436297445257 -0.9585851629531685 0.43339543327899555
Ni 7.555571743935891 6.168140569140838 7.013277801051789 -0.25206401195393363 0.605098587485674 -0.42251401047980136
Ni 2.1833881229476613 5.089840275500995 2.547943367241283 0.34167415621359865 0.20390879240494558 0.567882383446693
Ni 2.494522403555536 5.087021012017835 11.63590266130176 -1.2293089561001345 -0.17422566351821606 -0.6318786837929956
Ni 0.9877303210988114 3.2990368588724652 3.975396298794558 1.781610711499751 0.2907210622044993 -1.1225791214410472
Ni 3.5340600905908897 2.569590959517129 2.798425409306441 0.47048668170433805 -0.19704471829526066 -0.21273847488143363
Ni 1.2032000115529975 3.1560702852617553 8.287939343035994 -1.0640767543297804 0.8734132569705152 -0.2414834082246099
Ni 3.7960430959392832 3.1060306247246228 7.286010268259772 -0.43899092508890203 -1.5377737154413003 -0.3996383914332085
Ni 4.02498360805256 6.8674357599913725 6.2345528077388614 0.12004377815917391 -0.12057471096197944 -0.9916726895357567
Ni 0.7193908284372587 7.6112136708157685 11.39190764479464 -0.42194168291609907 -0.8046323907513755 0.07903853939140582
P 0.4315875395548221 5.552571158131056 8.16754772714913 -0.5794297219646601 -0.4628571901835383 -0.16473392197769693
P 8.358971185077808 1.6592498742888797 7.799167893583657 0.8250150681727857 0.9167150050819438 0.9955118607761887
P 1.9494255144688828 3.3943207124785886 10.45584055365365 -0.6259941999877606 -1.5513098022545218 -0.137007402596706
P 3.7934504613534825 6.208979096445146 3.815426212272707 0.9286284686900782 -1.1074849461120861 0.08923322053622053
P 6.939086752180774 4.134046498618184 10.4154262756452 0.07203922525543723 0.30715375383922583 0.5690221534780909
P 6.317298644227429 7.953287328491257 10.212111146214236 0.29143557177302065 -1.5836267692196728 -0.32186766301063274
P 2.458488408875264 8.5065065972593 5.855744418832462 0.438206995735026 -0.08811196244758372 -0.3729480266262158
P 6.786783067998823 4.017423268036624 1.7370434161123323 0.42377925034547015 -0.09904892107506166 0.03368787917074843
Ni 5.343945660377149 2.6417858610601956 0.6991719047303707 -0.7967439891422343 0.8172721910025732 -0.7212299179643192
Ni 1.5319206945960238 1.0510866956448295 6.951343749465604 -0.16611948947131389 0.916073771953519 0.10085666370776179
Ni 6.788614229489494 0.791979157746142 9.099475668108733 -0.9884482690611881 -0.9352549728676602 -0.46698689608119576
Ni 2.704906541552959 1.6330515737540403 9.267485641393336 1.1233224273649751 -0.8820650191082422 -0.15301663354076875
Ni 6.338746803073598 1.9450923699513558 2.7394629158224424 0.5870702692290534 -0.38246779319119295 0.025047686997247187
Ni 4.0697020220796745 6.73651677856433 10.510769052764637 1.0970349544233557 0.9988077579186411 0.37285700957430623
Ni 8.326137190428263 7.203444828373502 0.24792113552498807 -0.7417828024150064 0.17679805223108258 0.4221311732190859
Ni 7.736729819329743 3.975306553751204 8.191535942676913 1.8504268018322003 0.13006825227471147 -0.411640300990091
Ni 2.8886481863767166 8.41384257370666 12.254644876874584 0.8505576925285804 -0.2935433621446428 0.53922821004511
Ni 0.17533824530964134 4.787762085631634 10.318717379532474 -0.7620001579031457 -0.7233266525923479 0.0028616378185112004
Ni 8.79704484367508 2.243997755257674 5.70096232102898 -0.14315311048312765 0.10510078369609642 0.7034365985366401
Ni 3.7335660415150227 2.452541666608532 11.479117164045613 -0.8933704168187323 0.09457571579505647 0.08587998779327145
Ni 0.8260369484414332 3.5010901186029275 12.754986184794953 0.8048887297365557 -1.1201406872028838 -0.23461239213638949
Ni 2.8605552682599455 8.34317968350975 8.049875658030587 0.8881338510101415 -0.2137556032920383 0.24289854340458167
Ni 5.713241981203545 7.738878261276717 3.538368759187502 -0.9326756421762582 1.3745806555881617 0.13621755970555896
Ni 3.0337903974020843 8.182626707463887 3.501683886314011 0.46087769785966437 0.9903046055436363 0.030089106075896568
Ni 3.7405734070214005 4.320163214286276 9.478589552768772 -0.3731277467371897 -0.47843704689966643 -0.10041597662591739
Ni 7.307884489432978 6.2027603995015825 11.422197956700217 0.014428516720504183 -0.24578512092375732 -0.4567477348516908
Ni 0.6177124138632197 0.13844578036616872 0.3391981902257832 -0.4925793998383194 -0.15833393198862408 -0.6726718065499576
Ni 4.62685556850589 0.3828931481524196 1.7010746905544998 -0.2207618594065424 -0.27901328684926785 0.3252746318096527
Ni 5.938783059856418 5.583845945966764 0.46235558517603265 0.15383707255953508 0.8978353945686215 -0.36089495211642364
Ni 7.878472596894707 0.011945155922061544 11.192772458746587 0.3962396501643047 -0.06433260063979888 0.5963696922531084
Ni 0.20835535610825448 4.78851449357087 5.945527535841858 0.24135202485306825 -0.5882516911316643 0.5062026470487089
Ni 8.025953618140832 9.020301503042562 2.3893267084944667 0.41726973136172657 -0.4963308964609517 0.3539766277300356
P 8.51485560583805 1.6577813190339856 3.5945845104354945 -0.3312753294777779 -0.6713726281225599 0.25656267115523557
P 1.7389688552243046 3.060605128537744 1.6837067583764034 -0.5071992066340233 1.0750499655118326 -0.8890648474648429
P 4.726454436317753 1.3497654520537874 8.26531815301709 -0.3412185567334188 -0.9808534874330656 0.4279475227905469
P 8.2270278410347 1.7209019995267492 12.502101876417779 1.3709440872768388 0.7499190583688956 -0.4753252407435621
P 6.480163235026365 7.682810272069803 1.4389430166494377 -0.5491377558493382 0.2802463879254206 -0.5122012878343049
P 1.9478663076550446 3.230214195322119 6.003680510904487 -0.5738275452865342 -1.7676650479529363 0.4632109739785313
P 7.152571173494085 4.0960544302647195 5.999128896129903 -0.5552456685192888 0.013666184633182915 -0.948372741196541
P 2.1944113525152615 8.490307163675991 10.074683382855008 0.7174959048431837 0.19054316973131702 1.232837023858051
