# total energy = -340897.8737982916 ev
CRYSTAL
PRIMVEC
8.99574629298622 0.00000000000000 0.00000000000000

0.00000000000000 8.99574629298622 0.00000000000000

0.00000000000000 0.00000000000000 13.16618400376169

PRIMCOORD
 96 1
Ni 6.357338935495269 1.883898199687783 11.376820576136693 0.9417516363355974 0.5551577367911729 -0.02897504707611139
Ni 4.459812180063186 0.3801701367428547 5.9531033780744265 -0.06664479371274329 -0.9796273283354483 -0.3318877662507962
Ni 2.586870799449038 1.615321196188237 4.82913254711416 0.6246569692335758 0.113737633435488 -0.2526941893387648
Ni 3.501126494105585 4.365869600764359 5.127214699119137 0.1543520645227406 -0.45372797418876054 -0.5144314627164044
Ni 5.034559411125268 4.6627382265845805 2.715538758869413 -0.5678885540942801 -0.6263567255335019 -0.2943262630572544
Ni 7.0753434274339 6.147324240837565 2.568735374775436 0.5679906268897832 0.08543724382889802 0.5950453170147301
Ni 5.116951452090311 4.41885454685936 11.546559515165105 -0.007160522304181217 -0.07589330889420479 0.212701193885595
Ni 5.737774896038401 7.780690904235746 12.231793402667492 -0.5787854035124419 0.7780312432240793 0.42586055835453107
Ni 2.0090650146225597 6.491024722238529 0.4283171704422876 -0.594523125962673 0.1340632323667175 -0.8801307782000067
Ni 2.781205908191023 1.523789476915465 0.34459555816436777 0.17238552498568374 0.05126985391856977 0.2609741699593699
Ni 0.6726443404633461 9.078507232440447 4.5732080608782155 -1.0800525609327463 -0.6221059206769479 -0.10173032456196673
Ni 8.535847828665439 2.4885293001772992 1.50912101289127 0.3096767773713957 0.3775330748937369 -0.32964370741162585
Ni 6.596562818602967 0.7343353698912397 4.664805449099459 0.5512640581637215 0.03966312291757686 0.14587436606903265
Ni 0.7741775305456973 7.350604270483291 2.4298716364239787 -0.22288250529397097 -0.015867306049559767 0.14311737214918577
Ni 7.384563213014467 3.9324185578710673 3.7566812551658915 1.4708219320110991 -0.3773284150820985 -0.1348363630873162
Ni 7.666435929642775 3.9569049794789777 12.666435482379626 -0.43909171233282446 -0.7164204123908178 -0.3945522351595528
Ni 8.067196430242479 9.103605364801235 6.6287657914435245 -0.9497007159793451 -0.9831402265847132 0.3145402761112841
Ni 6.969814326815827 0.8740644990430936 0.49285355444570716 -0.6491503263892497 -1.2917818778233752 -0.48904001922649326
Ni 1.8936046100165616 6.340444923820157 9.27103419616289 0.18642374824630475 0.7101541197661317 -0.725396647747499
Ni -0.08450963965957048 5.043843021374849 1.310009162829006 0.4920662076473267 -0.520209245740446 0.18879996178796518
Ni 6.333239330981092 1.8642245023856157 6.856922207797287 -0.06339671908909082 0.626244882545986 0.6938864929543599
Ni 3.6359097619054817 4.266106773566813 0.48861925663129013 -0.7323419687170807 0.10961795484015961 0.11020030970619085
Ni 5.925579092918761 5.5773627468421285 4.843707455376149 -0.2405719521539341 0.2655340214159104 0.18858476045336553
Ni 5.249575740762397 2.7432618500197647 9.37920804621253 0.2963839169172315 -0.13117228397216765 -0.7254992347636344
P 0.2979283247421211 5.6088028803908605 12.387194021563337 0.31129245859794774 -0.3856780725983745 -0.16581558507764993
P 4.0878110805951815 6.137932681631592 12.53927610962481 -0.054581434790306 0.26173933026016855 0.5800663271073946
P 2.394586720878473 8.535766866948146 1.3993810033993317 0.6265462158364887 -0.6896644844532122 -0.8829183682474729
P 6.426057441984184 7.722461438009441 5.701537330952749 -1.199489558745857 0.24767796707109604 1.0164175005806044
P 4.803386721015028 0.9246457817091321 12.457106263595001 -0.1757621547674005 -0.011558651371876867 0.9413397456091593
P 4.085382229076396 5.988495343001687 8.151974143143754 -1.1580274349463282 -0.44006384643810664 0.464032184328246
P 4.534081062059845 1.0912110214196624 3.7016992533776674 0.522390569662481 -0.25067278803336185 0.8158457429686916
P 0.12983380814939208 5.405984782825855 3.4495142989060175 0.35197965190466474 0.6674077299375409 0.07274833550731986
Ni 1.3739743169381926 1.1192957415739224 2.5065387844017795 -0.16354298699338932 0.2713701684817133 -0.17983195396139995
Ni 1.6579340467233838 6.442627606790124 4.6176443492017265 1.3973745135542255 0.35082882612967325 0.45533105700982224
Ni 5.899599377414115 5.389603528693598 9.326529855068605 -0.1962931848412168 1.2033415855020952 -0.5879526718340068
Ni 8.531907691757185 2.2819060018995296 10.183858667572627 0.7497591357522637 0.811165563884203 0.27674480253006534
Ni 2.132504646255088 5.293358038325108 6.9019639098512195 0.8467393472237545 0.2946859603895183 0.46080596408146446
Ni 0.45638569825308895 -0.0018891067368336245 9.092961597701132 0.3422433984535074 0.22143883086890895 -0.13828112710280702
Ni 1.602862087471501 1.102149849000566 11.368815261445702 -1.0089217064241915 -0.0276918094883136 -0.136329659803391
Ni 4.053411346492078 6.875727815575147 1.5537417140152803 0.9089356182468411 0.6093056835884861 0.5445095130487074
Ni 5.438648337880346 7.727912860307161 7.957365563712246 0.9756513744068359 0.5814850618317922 0.3984189172038106
Ni 5.375489202645541 2.926370267297138 4.742802168390137 -0.7165535955345723 0.053640153922959226 0.5990027590005812
Ni 0.6101293006683386 7.404758663605855 6.745023219177538 0.42904229851662246 -0.37195249548216586 0.5192826201611186
Ni 5.2246215403434615 4.275525320011884 7.161851022361332 -0.15035117089346361 0.2866180957797193 -0.287583287906466
Ni 8.197077016272974 7.020604310797554 9.19980497686326 -0.056169090992400035 -0.32290638868779226 -0.4829318494462264
Ni 4.5891620170580945 0.31985005906112046 10.282183974500908 0.33581975431535066 -0.7372103525529755 -0.42353422421419956
Ni 8.161192984019502 7.059798777713668 4.684844373704081 0.4055884383690564 0.16186174263622446 -0.48366178563371537
Ni 7.174476552385837 6.050763899346269 6.933365361690578 0.6994305627010405 -0.4241070659985341 0.5620264388865481
Ni 2.4278889739249396 5.239581466549912 2.4720427958125613 -0.9687567041695315 -0.9323861359602975 0.35515136476442705
Ni 2.481098813679087 5.159204472770823 11.479911829489614 -1.2113109768608172 -0.4599883532761755 0.1925494015280684
Ni 1.1460940699978621 3.2891777139792184 3.647757159869338 -0.8726403833602326 0.6079121456750692 0.3690551193297128
Ni 3.4975821700374308 2.7217710119516907 2.7323122275432223 0.41117415998694995 0.3920220125385313 -0.4215421334848353
Ni 1.2792311162128034 3.3058018532633544 8.169248674890142 -1.0768597650270615 0.385117314998898 0.2887199726140705
Ni 3.539043565037746 2.5401468928246866 7.164932065491643 0.19766923925313698 0.730818847204335 -0.5160851962697434
Ni 4.022492966232568 6.68388452857651 6.107674589155337 0.19725143498942804 0.6833354569113909 -1.0965443879401824
Ni 0.8196555262983753 7.438402755014224 11.40049378227313 0.36755050975972825 -0.2611718877924728 -0.13377783991581477
P 0.24438294364852692 5.540471190995678 7.839567164625758 -0.9141654991872127 -0.03774507995925758 1.2741867904494315
P 8.572019724802619 1.7394624960373037 8.012873816662875 -0.494813945595793 -0.2692315248721557 -0.23805612771061585
P 1.7643087474998487 3.260139444710176 10.360496444489026 0.5553914500685337 -0.8480084437441654 0.579905118939182
P 3.8601917102994623 6.0960574822984475 3.867197597569205 0.17424186146813217 1.101402230253116 -0.19253886000510712
P 6.989065224038799 3.9248441394310016 10.51610756384983 -0.0919768447196287 -0.27100969981850104 -0.6556256497009483
P 6.352355292008574 7.674604067342989 10.141306088538132 -0.445381144885962 0.04447108582918147 -0.9860160054706115
P 2.3296374321168596 8.39836583695578 5.721721087073862 0.5165577650307878 -0.11949536185487161 0.45834567546642996
P 6.7800400614813405 4.034835130246548 1.6069722439860687 0.5518638965312496 0.12900792933099717 -0.6699145555197947
Ni 5.418803721397226 2.736703950919042 0.46543272037324884 -0.8315153311851486 0.4313611764577861 -0.796055447715642
Ni 1.4058552420588515 1.0745688906427948 6.933299692742107 0.4940572699354266 0.04802100796396891 0.39224081341755673
Ni 6.890930626933474 0.7757023095547131 9.100822080875634 -0.5917990421632905 -0.9660655304906136 -0.16627529832288784
Ni 2.7165264918203857 1.5472953621694945 9.221595373285316 -0.10673497686540973 -0.5574028240716078 -0.34417378270700083
Ni 6.211436925187153 2.1025488108567263 2.576609351569485 0.512531160369898 -0.48915314776558977 0.5206447906159679
Ni 3.9967021614016063 6.8313428030059224 10.464588024837832 0.8325723116947532 0.19010582508358226 -1.1185100935779961
Ni 8.023396141187037 7.273501728381381 0.2765373394587084 0.36606106969839536 -0.16662471124250658 -0.10044451587100765
Ni 7.4953008507783805 3.779904673984033 8.263123786091224 0.867856074597712 -0.2227899455801647 -0.12775940163587673
Ni 3.2221054290752593 8.389756907683639 12.250884175605151 -0.27533866621115805 -0.5716138254646672 0.7180232381015634
Ni 0.2653880114128436 4.847726754852422 10.163833236587553 -0.9212717712146907 -0.5466337584805617 0.20491177974816324
Ni 8.610170685140293 2.2032921744081535 5.696138983558588 0.2930165431068954 1.1618048997108894 -0.7555235490398665
Ni 3.6838840772746897 2.480208234788865 11.39771499622071 -0.1164779151847865 0.8815857654789785 -0.08363644317473339
Ni 1.0282767798440053 3.235005329363923 12.517538788106311 0.0012415857165849586 0.4882203515386752 -0.12968258680051858
Ni 2.988063095874305 8.214078976904478 7.861897305829768 -0.07213718428588221 0.17915009740302695 0.5358490091602319
Ni 5.4760346597769205 7.84832092541439 3.6532733515408924 -0.6395151172923309 -0.41868075277664024 -0.25218871045725605
Ni 2.9797330347395046 8.449812510422216 3.4867350990694597 0.5278312810620781 -0.6806633093958665 0.7285753025857967
Ni 3.4646487425919648 4.269983940250505 9.436902265530065 0.26237593540290294 0.31020513907103997 -0.8845834146547218
Ni 7.28268638542094 6.0141062329053305 11.297218116119708 0.41726613181730077 0.055186672474472696 0.6024958597555043
Ni 0.5842710277396326 9.044143481322806 0.3280568784707077 0.037063994731832944 -0.2773626386197223 0.10024139872126607
Ni 4.623147946828367 0.4167126576303096 1.5791124174909559 -0.08256789270090295 -0.5700068859888635 -0.3773129884631308
Ni 6.04829906484202 5.744485722827343 0.4243437492724809 -0.579969396518214 -0.47196018092607106 -0.5317193032625745
Ni 7.973451757363702 8.829217109149335 11.28035199125833 -0.7730998673607331 -0.7570512985383026 -0.7111025997223301
Ni 0.11597046342494302 4.747478157351117 5.588926778795461 -0.7929140738731828 -0.24152840252993243 0.3549168801561178
Ni 7.814299012658653 8.731865141977842 2.5420611876513446 0.21562016730460284 -0.19236402499013966 0.2343858779478802
P 8.323539218684436 1.5665462593924657 3.518978552768663 0.08877787816635678 0.8104256003943849 0.30055938845115976
P 1.7565004396542696 3.1123753149043227 1.442645145971368 0.2686052041420664 0.9420424281031388 0.3365854288367816
P 4.668414542541448 0.9413148997250973 8.097545379757031 0.6049175818231195 -0.0033917992903683522 0.4254666653502221
P 8.520932881190818 1.5218553914468018 12.319730421692462 0.3004634863032438 1.8514094774604437 0.812753220086297
P 6.22144919089237 7.810682722619571 1.383107698223465 -0.3423210457689782 -0.038137944522302056 0.24433810406458562
P 1.7891370074696622 3.2959425152463564 5.993088571096102 -0.24621192404853082 -0.6594478516605159 -0.7292561307029054
P 7.065025306352243 3.853381930300495 5.9769475033918145 -1.057139660890315 0.4512851690752228 0.1433703687002563
P 2.305456865885389 8.436912610133552 10.11120812034719 0.8442777730571395 -0.25884966741719934 -0.16911919552958615
