# total energy = -381172.1280069072 ev
CRYSTAL
PRIMVEC
9.25004316697273 0.00000000000000 0.00000000000000
0.00000000000000 9.25004316697273 0.00000000000000
0.00000000000000 0.00000000000000 13.53837318355432
PRIMCOORD
 96 1
Ni 3.056926461345753 1.0504718835388516 13.420102063713918 -0.22002472413020172 2.217102108075827 1.0791773574166446
Ni 0.970570012083033 3.768578519745083 8.075652917903712 -1.2735671545875615 0.464152254845878 1.5425081448024918
Ni 4.065939652147283 1.3991522545190656 6.327050688826623 -0.11325298048958561 0.10939195487228258 -1.1965556729285134
Ni 6.4773241124327585 9.35780600350533 2.1368154338414986 -1.5947681305484729 -0.8713139512393251 0.9220040213950251
Ni 5.1229883162609315 2.282364860486244 4.111333313177878 0.5005775875524476 0.6705465326768387 0.6691077433477831
Ni 1.4975912121519461 4.374724587657603 10.562327178203947 -0.5997720330664381 -0.38218985693945795 -0.6720429147167072
Ni 4.283833665114783 1.1211422120781496 10.898390490528715 -1.015857000091444 -0.19291501239760322 -0.7788964194378521
Ni 4.752524094009769 8.086036091174048 6.1005263857377665 -0.3326966353053367 0.5834915507388595 0.7343667124565934
Ni 3.251528866032893 3.4470285248912775 0.523431258379633 -0.20651357701764433 -0.27689752605784573 0.1738194292187329
Ni 6.849749343800457 4.771153680616855 2.507740308234187 0.3129017120665966 0.7652268923705595 -0.37898780506239244
Ni 5.380093261516138 6.499755466713884 12.112443834541436 -0.1893671471453448 -0.46122428256580567 -0.21660824224948502
Ni 2.645327297862358 2.17120709372489 4.067144007746212 -1.6587978552358724 0.18003764221430285 2.449972577820445
Ni 8.469098871994651 2.6614593728587628 1.9827356175398243 -0.7434820444943002 0.25681978147136414 -2.916324154310487
Ni 5.638594963264727 3.1182634964955023 6.360652395037599 -0.011812676364211913 -0.3189085803823088 0.30033056026980537
Ni 3.528909905549637 4.5787527861643165 12.10886961792526 0.5798297856165562 0.3891837717587878 -1.0903503433143287
Ni 1.451257746752294 8.648114954222534 3.3475655874980172 1.1790842556166274 0.8114743533738734 -0.20068154371689953
Ni 7.962187265413229 8.591467690875067 13.138300428646266 0.05432278181228064 -0.18686263555593624 0.132844529468268
Ni 1.4511467462362635 4.243873479343872 1.9305181997862653 -0.45822020563215926 1.2472909944998518 -1.4337777347736083
Ni 3.261592912819641 3.5100028176524742 7.660688588775999 2.8290750540838308 -0.49272132473282243 1.8643012458214472
Ni 4.028782229406136 0.023630159854252673 3.9681241474127726 0.7392060428267656 -0.029044466861466108 0.632641015880317
Ni 8.828111541008687 0.6746361613161225 6.7325919991476635 1.1861162227627444 -1.6602860097456247 -0.14241520387583861
Ni 2.5647594233103574 5.6503980181359506 6.439378586027797 1.175026540607486 -0.9363258373343359 1.0273827413428565
Ni 8.833430315735137 0.43093637838017546 10.914825966935604 -2.0974571080169686 -0.882810639025015 1.0103800361372728
Ni 7.177265616390891 1.6749052864673653 13.13666224603052 -0.6772049185336209 -1.409223956693644 0.25814184271689733
P 6.146237323243349 0.47950927919073927 4.626305407231702 -1.5802671087188205 -2.926707040206708 1.2138350288342514
Ni 0.86219835827404 6.895352055802909 5.859258439107183 -1.799057960441921 1.6395881150766407 -1.072847558543875
P 1.2430300287224334 9.230155410070472 0.9437615374531123 0.7401069573744803 -0.3325907058550917 -0.6302473188371598
Ni 6.3146066059753245 7.398878146645407 4.542828394155407 0.5244711063405936 -0.06656714639727246 -1.2753075343174358
P 7.60638436132107 7.191214681238701 2.426211354214224 -1.603307535478052 0.44810857111945407 0.1473175262734624
P 2.4039659257974493 6.824811227865646 11.753094463962109 1.1598035530101445 -0.7824823370168976 -1.0989830792886621
P 8.960405656030812 5.03883142502395 0.5974908026750565 0.2766345022044462 -0.31028998547536235 -0.05195556713168471
Ni 5.874748561119214 9.023250448189973 12.118103010850382 -0.08236606110274201 0.13437742117302665 -0.09221467176204765
Ni 0.5042216940762875 6.757507914979268 2.394017504548233 0.1979014098686011 -0.7455980623960385 -2.3338420186727484
Ni 5.596220516270156 8.51739334651084 8.673792148593247 -0.4159556405359933 -1.1085175011416588 -0.8810460909254245
Ni 7.174934605554255 6.2359904904968575 8.725901340843675 0.01462597744329094 1.3674445587640127 0.023057396040095775
Ni 5.005318519225798 5.031819892428035 0.709647574080683 -0.3907374893991529 0.14353517641289473 -0.1497004246833422
Ni 2.7345902128367325 5.371731222641856 8.943096975564485 -0.6632705678407158 1.307049345505407 -0.7890864725969765
Ni 8.187684813728806 8.578351129897484 8.609742075830857 0.7162995705422374 0.1895815771489961 1.6828926914015467
Ni 3.7484319260855816 1.9266544568241102 2.2599742063943293 1.8508428063236964 -0.5174052006327476 -2.404354008650382
Ni 6.189250023205093 2.5295815097717513 1.6917690398652703 -0.9773575584646652 -0.27206385211462825 -0.10762817810364045
Ni 2.3079782295602382 5.7928949305898625 0.014190490970174987 0.9732029128663433 0.08678938698141828 3.0179367223476667
Ni 7.190086175992391 8.15697467096042 6.669354080160896 -0.645769839952791 0.43580481405143656 -1.0246391171594482
Ni 0.13686548627397377 3.542174467215259 3.6550083417686707 0.8696756443049538 0.8114859233380991 3.057387472144122
Ni 5.173419550710702 2.696924037730447 12.422093649072492 -1.054906657794738 0.30321096714139395 0.15951021168491236
Ni 6.235611238733754 2.581751752305997 10.139645538199225 0.6733354082758854 -0.7993333471359653 0.07976667580668198
Ni 8.614953550058479 5.892184892178975 11.807288615905307 -0.08157853220444015 -1.4489706404639626 0.3937986448229799
Ni 7.267240784676461 5.859902242100159 6.3888261760146925 0.5757738703796277 -0.5257309468896236 -0.4894861056249764
Ni 5.255273181240053 7.566165174346088 0.782061535725957 1.706658940583209 -0.2446245249567529 0.4047813690867286
Ni 7.6810322083514535 1.5693622958085447 3.951255768993367 0.8708745497090614 1.540670320262805 -0.6867935906633205
Ni 6.947411297821124 3.8871733210804678 13.323329038825792 1.182302248333293 1.6826168120323408 0.11609816324786458
Ni 0.7509221909622538 7.466005708714737 10.604770075516738 -0.8455481551291308 -0.6528018070989081 -1.4220694451977445
Ni 6.327371665318811 4.755086355921468 10.443582526171921 1.8270991828498533 1.4230657476727429 1.153568113623394
Ni 7.137656932254075 6.2443617794141435 0.2737920228317642 0.755808427270137 0.49983685273168116 0.6911906912897515
Ni 7.257324738577753 7.478974269004278 10.822548462946706 -0.2789562083590873 0.8049702337067685 -0.4152814972871041
Ni 1.7320243020079626 9.07040716741685 12.064003209345808 -0.17987771959767085 1.983808434750861 -1.7569905989582257
Ni 2.927851361288506 7.168385575108466 4.79229927892063 0.40872698399803803 0.2259243774440883 -1.722380207973208
P 6.536135885842818 0.5156528972188089 9.952721594208484 1.423030780669749 -0.08152685303089831 1.201267476581886
Ni 7.745125756315956 3.9420630762574564 8.162853998292825 -0.39340269493614183 -0.5398103078008253 -0.4887186313313326
P 8.783276582575443 5.115680782288935 9.698782013668739 -0.0048832962342303 -0.3657322256040669 0.8796299273041883
Ni 4.253456523894489 3.960646412649531 10.000308440434978 -0.7373463639102075 -1.531211745953066 -0.20907490998691733
P -0.02510831672605631 4.690317554817782 5.971139559231335 0.0981714035661148 1.2030654490225732 0.08981249007845822
P 0.5752287241808773 1.13557227916209 4.517782052717468 -0.2718635631783641 0.643498270309795 -0.04208921586056622
P 5.137603384204922 0.761070413140325 0.5303234654208151 0.06651958098878866 0.0704256009114142 -0.3078106706969344
Ni 4.783946490089349 6.289890491072575 9.543050139686814 1.2294596227453858 0.45977006661778236 1.416964005650379
Ni 1.91585040659716 3.469071377366297 6.08288562872765 -1.8139343633331213 -0.8269809336499049 -4.340288502538099
Ni 1.5122895304829598 0.26672683998643487 9.463065017843972 -0.16097059828052276 -0.1842642787011407 1.0907054126609022
Ni 8.778929062364256 1.9120763890521295 9.125946275612616 0.005061987903939669 0.20024239929695192 -0.404688038041974
Ni 1.170204440163547 1.988056242274877 11.353062479253373 2.1001696218521246 1.2233596804952351 -1.4870826168443356
Ni 2.161022796379109 0.1612883748135429 5.606511189110466 -0.36450940894055933 -1.0443407093534336 0.4812750305690937
Ni 8.310210883340263 3.0359103636440143 11.44386460138337 -0.037306449759942205 0.6832570382649716 -0.1754255973635882
Ni 1.8124071756999127 1.5505014581263943 7.542579414698246 -0.2112058402869911 0.6825540986606761 0.3553938197925363
Ni 8.497903505904516 8.48121642832796 4.310618089632897 -0.2944738443787122 0.10639430569653933 0.5389407607116783
Ni 3.3540193425008797 9.00602686811927 8.00452193722289 -0.3643386876906499 -0.8602376388205056 -0.6088092035680418
Ni 0.12610861126633638 1.5706758019149034 13.292678096332622 1.0546662596491578 -0.3792708835204501 1.0830792635742124
Ni 3.3627976333102767 8.054650695266478 10.266838254505458 0.2918238083503748 0.08871848568333107 0.3096955464244731
Ni 8.552275258673363 6.023517002728838 4.1196999770736635 -0.9559546673088568 -0.980668110895137 1.2268579234564805
Ni 1.4793778774799726 1.8997645818157674 2.0438885768338233 -0.7407206796990792 -0.7988155269592824 -0.503259762370301
Ni 4.923955140975582 5.596340766829188 5.561834406412567 -0.3184252129879871 -0.062380876230066766 -0.10960072844897897
Ni 2.5502368557963915 4.766778410276661 3.963101374062401 0.8409589930965516 0.24497316654542325 0.11239577469561289
Ni 3.4994115184145818 8.64673669781516 1.7877151109089702 -1.1739978422326556 0.3134100191615828 -0.22523763578970887
Ni 0.798708838117603 7.479677272272471 13.095749305830346 -2.054192126680746 -1.1277475530158643 2.251726640128232
Ni 5.453797604160265 4.82540518282667 7.794393335356009 -0.4752357663535493 0.14667475048314094 0.7855692034723374
Ni 6.948956055002546 4.116676138016138 4.788536361427202 0.44888941514953656 -0.08862978262426671 -0.6009799373316101
Ni 8.624869596157186 2.645133046959305 5.837083311017229 -0.17814453895664803 1.135255431357135 0.5998674209937217
Ni 4.662900427358295 6.315698111049623 3.0054915972302076 0.13346853620551208 -0.6518571837974515 -0.06220578410478319
Ni 4.808930856239171 1.7593396789944218 8.471894234990014 -1.9708153649253026 0.251424835708038 0.8884547246846698
Ni 1.0722279846807925 4.056911610176818 12.745674028365352 -0.6803218668960477 -1.1202031650097029 1.223565625858454
Ni 6.81163916663005 1.5432586744554164 7.682985817433588 1.8195167425169052 -0.5348447362654337 -0.2806569931002779
P 4.012659404452734 6.734530808160994 7.671004236732416 0.07531789600670899 0.5381979690083828 -1.0702201482233569
Ni 3.726185572664507 8.252277864015443 12.80916909854759 0.24032589758139902 -1.5353717908680269 -0.69195919402466
P 2.645401298206378 6.662139971623226 2.4134314948019338 0.18649239670071108 -0.3370834515191227 0.6203377730329317
Ni 0.3889430331573084 6.179740978998498 7.99749560455817 -0.1629611463479903 0.4024668620209391 0.6414601568338437
P 1.0234802580574809 8.449081778937185 7.616350357651992 0.10619735919438485 -0.37359285929906627 -0.5496342358697824
P 2.6378440130733143 2.269812552131816 9.66894322495119 0.14243911513523855 0.376187616609436 -0.4843438993024046
P 4.772124935132121 3.9342097897483117 2.7022317124052964 -0.4022102659254428 1.185609715439971 -0.14928107775773644
Ni 8.667466044183818 0.24555904157945463 2.039908283329836 1.4161733914282835 -0.4190939290546589 -0.5122568236625887
