# total energy = -340892.4470464293 ev
CRYSTAL
PRIMVEC
9.07291042798782 0.00000000000000 0.00000000000000

0.00000000000000 9.07291042798782 0.00000000000000

0.00000000000000 0.00000000000000 13.27912151520520

PRIMCOORD
 96 1
Ni 6.547747091676486 1.8990599607110301 11.432526776686567 -0.6225252676025537 0.4852175601566095 -0.5060931180540381
Ni 4.587599224856999 0.2887607992487817 5.857964557509656 -0.3887417991253628 -0.4910236253154253 1.1391755923471476
Ni 2.6107753486171412 1.4291376364898134 4.807892212631421 -0.18871948625901694 0.3588074734597756 1.430044492983421
Ni 3.6760076195783458 4.2368223607599855 4.946645139544721 -0.259482673015508 0.16053865294942674 0.08464354428300906
Ni 5.3193022345003635 4.592870585832642 2.7364551188526347 -0.2287533622524512 -1.5600266133022296 0.3386798494719651
Ni 7.349030251616266 5.94884427239544 2.449241250836809 0.18516467902822303 1.2591471225074895 0.28031452215919467
Ni 5.255583184359312 4.329093860109905 11.684325446023681 -0.7376538678482973 -0.18106839747166234 -0.024342690510422593
Ni 5.472643494137827 7.780728404081218 12.44520602840642 0.5531682171649699 0.6073372470082056 0.6682765056957394
Ni 2.0450703086990605 6.59674080814547 0.5279526595055914 0.6467887681356087 -0.03664207670306593 -0.9772207757764847
Ni 3.0779757997011927 1.6673106089022773 0.49222807458029044 -1.2068490844347217 -0.5330220812343982 0.15113767135050102
Ni 0.20600315380430154 0.146399575846645 5.026665487904258 1.6418015777881918 -0.057446929263559134 -1.603897860763883
Ni 8.799035582157684 2.501782475294566 1.5757141340903742 -0.5542115708278197 -0.42195942352791205 -0.4701722357877129
Ni 6.77075015780448 0.7361623451330886 4.928612730010997 0.6851213451672201 -0.4632297430316087 -0.5367131569327401
Ni 0.7497399556323173 7.406779326676467 2.3359832023082947 -0.004083168930438129 -0.04256049907002992 0.8994914421148057
Ni 7.7619293336138595 3.9462714762779942 3.8701470356687873 -0.100407234875169 -0.36335035563545165 -0.7003188788432648
Ni 7.556908776012075 3.727596188438095 12.689329015496726 1.3042913231442956 0.06472058010683693 0.20204062884795523
Ni 7.991546551465166 9.0585117483237 6.917904599801165 -1.5819946329328884 0.2259089508251206 1.2496929190731252
Ni 6.921224377737461 0.7496682796397053 0.22738074542360165 -0.03045600249701206 -0.46046426447132954 0.8687958128031619
Ni 1.9743560445954933 6.535317204350096 9.027332691537465 -1.366411232403492 1.7550609860356805 0.633882858707218
Ni 0.3787940115889061 5.036835313235755 1.4878057973793306 -1.1398034557391337 -0.8782554155541649 -1.181752803587726
Ni 6.401255879434223 2.3304859258622654 7.130954683157588 0.05843243310528001 -1.8825787039743966 -0.6595213852109286
Ni 3.743755041962402 4.3164008583802564 0.7432101819762567 -2.350972507705448 0.4620562915487978 0.5770442524516192
Ni 6.006520764171983 5.82746687629876 4.829430394765813 0.016851524339700007 -0.6186421304980635 -0.19875810144194156
Ni 5.030638515393474 2.9109253723628705 9.467296265428942 0.642150498032649 0.059726726436671325 -0.11680907327196012
P 0.2878063290686822 5.672020701435222 12.515492051136405 0.644566049452677 -1.6288470745100527 -0.12233411685524738
P 4.116470203544972 5.986306319673298 12.824046311838657 -0.31923665314568894 1.300850672893863 -1.641370403788044
P 2.363611121941573 8.673892928221258 1.3331172105389701 1.0818808723907367 -0.3453585470437213 0.43552353536559185
P 6.347816436841201 7.856115217070253 5.8992236178138615 0.09468524478972724 -0.28692200017338326 -0.4048129936556125
P 4.786568151183817 0.9931933619308829 12.538916491354854 0.8346628756751948 -0.7768958440680556 0.38228601619769004
P 4.044004867723161 6.305491309558274 8.159223009625036 0.19549100065489558 -0.3133390567143313 0.5770038861319869
P 4.484213410196984 0.8987951723697905 3.7738598661505014 0.814772564509171 -0.04545658967090236 -0.580808861700374
P 0.2685372818396399 5.610497295624818 3.6290380694323674 -0.16222246840975288 -0.364244842425263 -0.38999109815143157
Ni 1.451048715243998 0.9284581458186232 2.8528333412873867 -1.0854125396930792 0.3909578329400751 -1.3734396000051832
Ni 1.935542133659509 6.414030537357988 4.730447663550688 -0.1320418310613145 0.4603796751773232 1.8702098979963988
Ni 5.5245405419531215 5.389354176140554 9.490402246490344 1.1937526562620795 0.88633150769408 -0.1328293599596164
Ni 8.63154058220696 2.56718908678066 10.337251377328371 0.6606423861892493 -0.5520636712468814 -0.5987605610827882
Ni 2.4392066118711244 5.220879301860448 7.099018038348177 -0.8595521827177067 0.1695899645184176 -1.1573931437964389
Ni 0.3586240243514618 0.04411430522509171 8.971772909770591 -0.17466120839373792 -0.5911634654618205 1.4686352087724255
Ni 1.4350803928392921 1.2055448311821009 11.33492494244303 0.12871508068092669 -0.22816997894515542 0.12084801922802413
Ni 4.380210637625879 6.596332527174896 1.6946817651696167 0.06607426592125394 1.3351682152288102 -0.2588398972251865
Ni 5.714418412001807 7.912113220412211 8.074237057372263 0.5954525797554777 -0.40821533446894215 -0.0773377546502152
Ni 5.466900341818407 2.714070434172583 4.7643495007651335 -0.4451011517516979 0.6252177268330523 0.4134125623991654
Ni 0.30699553468570107 7.35254146796321 6.584492379028225 2.1888009471382883 -1.1597194779367703 1.4192764558336395
Ni 5.139740263641537 4.343002631840823 7.244119280708394 -0.3603182536773472 1.508082359024454 -0.6988227539137126
Ni 7.957477772698308 7.100895223521776 8.94419216927169 0.06899503911247472 1.0854259094295178 0.6359379414640338
Ni 4.722685788654537 0.5853370035654121 10.308223507611544 -0.19771680466162078 -1.497980494703762 -0.10680593931266122
Ni 8.22636254700846 7.1675085320986796 4.6182656622024 -1.1805251018282121 0.12385929525052217 -0.9245748674459947
Ni 7.284848483041897 6.0526020763842 6.837313565373869 -0.3939799075958505 -0.011746599012966867 0.15618346130452457
Ni 2.3660063703022787 5.305729160456363 2.7026993554965504 0.5374207245227259 -0.9576400254310797 -0.5210201716775156
Ni 2.4032869593709933 5.262487669217257 11.605726822732791 -0.08291447740704429 -0.01966971051478548 0.021717594182749694
Ni 1.1272183952049266 3.2451078832336293 3.723240284127584 -0.08871514324922142 0.30499711250753925 0.11979592381442593
Ni 3.6541872699287334 2.6833767780958104 2.835344399090051 -0.2209840027196775 0.3086727615869136 -0.5312287367794013
Ni 0.9699576382499444 3.5427265649617943 8.151588155475286 -0.6748323045363861 -0.766745643007931 -0.17908967647873672
Ni 3.279675672075635 2.998687635215553 7.496396092426605 0.6066211947777875 -0.9220104491529282 -0.6859127307202638
Ni 4.024879172479342 6.773644416240332 6.078650402306876 0.42255591946133036 1.1498556977688132 -0.6831086856125654
Ni 0.6542484803611298 7.311051048442347 11.2096770427453 1.1258624201780094 -0.17079298368758328 -0.65917197229131
P 0.04276153427592031 5.602349822034234 8.021930821295348 1.417623493611249 -0.20886639352053707 -1.1264869411358858
P 8.413382450263121 1.8492950468531824 7.960169705230964 0.3129531341298223 0.1403377525215196 1.371195798276329
P 1.8504563793917064 3.2368696805384745 10.340132933689585 -0.8313680069740069 0.15518715882952627 0.1455833171911751
P 4.0856585996322545 6.0146410190311945 3.7857045507524014 -0.6237033470710549 1.6592583398120586 0.7147774774707562
P 7.082005423949845 4.068438215584452 10.466497708664598 -0.8885195164843341 -0.2541563757065881 0.39912777034537716
P 6.35040221632151 7.7252929211876085 10.338181350650236 -0.6183554524955803 1.047676715705202 -0.34087145780664524
P 2.264144804599078 8.482336569737987 6.114225284209634 0.4743628768302927 -0.9534815231780158 -1.5363614084748056
P 6.961834724943976 3.839927892808927 1.5714906942725386 0.23113060423537615 0.20896512388193042 -0.2916176058768397
Ni 5.235150990009655 2.8317188640713464 0.4447867330905364 2.3354242755582035 -1.552975619992719 -0.018302140743297512
Ni 1.3545764583523852 0.9958154330530193 7.134632841056945 0.12007283162489643 1.6491891285015146 -1.1567364840490466
Ni 6.956835551282047 0.6446339171496146 9.252228366786834 -0.170226569661152 0.3585195099057116 -0.2844133748189166
Ni 2.571743687830184 1.4736221164615597 9.110699129273625 0.16168356518714735 0.14563808168851047 1.0874151719454046
Ni 6.442446892909999 1.919855071478977 2.736003287911865 -0.2742302636383277 0.03212156312489307 -1.1900788069549182
Ni 4.073646066186896 7.017152260001642 10.546145160404341 -0.03828346896123084 0.02116969209907967 -0.7706976856771436
Ni 8.283449299605282 7.230764863806412 0.15684793952917878 -1.29755014776572 -0.03237867344102165 0.7860379155786399
Ni 7.298838910966929 4.096936227330578 8.320046698516569 1.746224104470341 -0.08869868818898917 0.3741847272467943
Ni 3.0156811965019243 8.360732350879877 12.226419143767895 -0.3102107954979948 0.745483134084729 0.632527373120588
Ni 0.23402937420665193 4.955877733225988 10.066131945172605 0.12265473341945973 0.07750024837000846 1.047142954688919
Ni 8.604557746507188 2.3157515192797415 5.774253349176123 0.22479412049438705 1.5013347558879757 0.3739019058990528
Ni 3.5490776022818475 2.409592632138761 11.424306719812325 0.3020277454665702 1.4010673890247807 0.09220310179782185
Ni 1.2048371441664378 3.4247333644656575 12.825533361862595 -0.7192352561317936 -0.0019974900460030115 -1.3712775593568578
Ni 3.4607165273389886 8.483851745784342 8.119611589859863 -1.2826889143831717 0.02619722722065811 -0.308667619380591
Ni 5.535700221815501 7.909291545260015 3.7375945357619504 -0.10819073547532981 0.3327406011693947 -0.6583304502266211
Ni 2.8624215930585764 8.215529491922538 3.608575027187155 1.227608685579576 0.3738954781411496 -0.387208650310288
Ni 3.2429031659925247 4.649576276190264 9.382284001735846 0.516904092626613 -1.4058198161081015 0.5029111207816307
Ni 7.405409317197427 6.115667876972331 11.266299262326713 0.0798108987810561 -0.6136490481588464 1.01286603578392
Ni 0.657781471693171 8.954400100827108 0.09939373405883749 0.5056992250497291 0.9072389472707085 0.04952047532763084
Ni 4.678201308682791 0.09461231024788293 1.6504222933772095 -0.1411509924514343 0.2988958847058078 -0.4519423430432475
Ni 6.160179575675449 5.580447816190508 0.33962807172718174 0.3031081230149425 0.28950030242352076 -0.10021568768965322
Ni 8.188401489655453 8.950662061718733 11.355985889487373 -1.195524917671154 0.286723511009332 -0.4068099694809832
Ni 0.2810778586736084 4.799125059256609 5.730697935235196 -0.817235938447999 0.1315170689060961 0.6483517417473543
Ni 8.085777799473846 8.918589323252462 2.40916439076518 -0.10919140882570227 0.647145380144079 0.515396654843151
P 8.439131370140709 1.7203508434351815 3.6722078846788624 0.16716490001669276 -0.8359072896052572 -0.3393987299158606
P 1.8050373896428666 3.248056579132226 1.546140982455068 1.5244597719412134 0.16501082978816745 1.4782897011430538
P 4.70665395587663 1.2739092114772483 8.031332171111119 -0.2194462259189124 -0.29926072424439426 0.2518346695519469
P 8.748127481582227 1.677218227121561 12.501722094935483 -1.1613037917047548 0.4945354951234257 0.4662042522789003
P 6.510257825667256 7.89661668935128 1.3739770627830572 -0.7956391861138297 -1.1961283555831077 0.15871856902155246
P 1.9058283519121157 3.367864361719806 5.880260327667227 -0.38003707226251326 -1.0251317405251508 0.03306052999939468
P 6.891737418751499 4.096909008599207 5.834553726656893 0.09287621660544651 -0.22398936520490456 0.8271879074543882
P 2.2483579404035163 8.57114221729325 10.094137297880906 0.26006631343311987 -0.4550654620532615 0.33018003953107006
