# total energy = -381174.4020158614 ev
CRYSTAL
PRIMVEC
9.22177298602294 0.00000000000000 0.00000000000000
0.00000000000000 9.22177298602294 0.00000000000000
0.00000000000000 0.00000000000000 13.49699691614424
PRIMCOORD
 96 1
Ni 2.2843991066732365 7.337829144323954 6.271433485321879 0.6591192646765036 -0.255210013782083 -0.8515095149188883
Ni 1.5292465782043405 2.5772180573921806 3.9052888961193384 0.3465718506255322 0.10567953901770187 -0.14918851804393016
Ni 4.968193191951248 7.244384920860499 1.5247149990658877 0.3986089217274297 0.993852985016527 0.02468413301024136
Ni 3.6473771218610884 4.342855558744866 3.637751435445303 -1.8085666712633046 -1.6222979605376253 -1.4497018622030324
Ni 8.987272308793235 8.63698327018085 3.0466496336420654 -0.45038219764497917 -0.32704560766714647 0.6593786889854774
Ni 0.265837887952796 6.550658620802741 10.990320661362466 -0.8277674341069421 0.3834849216017976 0.30087486280904957
Ni 7.667682734481289 8.410275208439455 5.6900772529804176 -0.9615465595743377 0.10357123442544745 -0.7349017590244569
Ni 8.315567602106713 0.5335911381096144 10.478177522357884 -0.2970819714255206 0.6257345185684707 0.8322588942193924
Ni 7.490882906963146 5.284693655139762 10.726482053745885 -0.38372943351243594 -0.705213745041721 -0.371984634271682
Ni 7.001787744638937 2.34897918137121 1.6402490570190642 0.5193109022958927 0.6262567096205278 -0.6807139601281437
Ni 4.8190125738748355 3.6566726688117606 9.300996096201146 -1.0361442895855704 -0.027651957389313662 -0.2779521925746052
Ni 3.1991620782197465 5.475612016766515 8.801837213254647 0.27699779908113586 -0.6038942827649277 -0.45996932711278204
Ni 6.68394090262622 1.5341064524533528 8.826401249378165 0.7553114330290605 -0.6449463156102312 0.42506068816105497
Ni 1.6839141510780253 2.3192389641927202 10.485938566319874 2.607992835223392 -0.6486618167886055 -1.2776120140808964
Ni 0.7548067119900764 0.895013622985439 8.59309224268906 0.9651018810257637 -0.05966553418143273 -0.09946338290466095
Ni 6.354373187424707 8.817582468079625 13.407444132606683 -0.8812592353774952 -1.0311923448969336 -1.3672224154508776
Ni 0.5533109769978263 4.199733645377373 11.475497492437329 -0.6399727736550398 0.3168100459820673 0.17902925555444651
Ni 5.612426237560338 3.191212910093279 4.896035586569379 -0.9936454969914111 0.6190797322561145 -0.17846438418991198
Ni 5.943755311360637 7.375979618267337 11.36912803226151 0.9113401139232757 0.25159170030320543 -1.1054406619885477
Ni 6.277076288078939 8.069586035279103 3.4070060815858487 0.09361078077862588 0.3318923942364865 1.5412796717120294
Ni 2.8227108702630583 3.97932405443688 12.121706763950712 0.6207398935673568 -0.08136795885553083 0.6349784057642419
Ni 2.050562614581773 6.57353783904145 12.567471582567459 0.9476302066035615 -0.5268987419454796 1.4094173036513729
Ni 6.024879246405344 0.5724618325062201 11.064567920453683 -1.7862687790970528 0.32071889411817023 0.3277446906167001
Ni 8.882761958007553 6.336289291025632 6.6978574799112 -0.1882590016828306 0.24775407172467007 0.04878282583065792
P 6.727790432140551 4.614556649823889 1.0985446032277022 -0.1382525878577167 -0.06074025530285024 0.400747051116355
Ni 7.733231095319958 3.8119488786881686 12.784651708684414 -0.25952509621766917 0.03136360191294598 -0.32841780542432475
P 2.216572967960742 5.437028119503012 1.072199842782583 -0.8554777555380169 1.055254785162776 0.3121131547270302
Ni 2.7809546831671814 3.4566155303714003 1.0524145293077145 -0.35089773169439564 -2.1392102806943543 0.8249903855824372
P 8.129850320321408 5.474016650077561 8.697693889025151 0.15129527997428785 0.0017347233029195931 -1.0693539435683197
P 2.249955785382799 5.635941758120074 10.755581357716963 0.383293631526598 -1.1037229079664928 -1.6998452600954854
P 0.8766687504170141 7.247031569645066 4.361230863163427 0.3641160301568826 0.7316819665355786 0.547675826591831
Ni 8.31696008979476 0.2673198268366978 0.934637736217233 1.108340352133846 0.5348200536750854 0.06806455687840536
Ni 0.4602347022678363 4.1569169544131155 2.3871195113645487 0.4178574855443965 0.39618874232171125 -0.1708732021062154
Ni 4.58162569926749 2.2829420665758096 2.6844847960583746 -0.0976057608706319 -0.6303956714895659 -0.004543139285992176
Ni 4.286777958539471 7.551663611280489 12.850854815389647 -0.6124653122633903 -0.36847893511126867 0.009433377498757946
Ni 8.69341129775145 2.8115064163493018 9.713626163083308 -1.4377554884744335 0.043111486477493494 0.5890261074038436
Ni 3.4145458030013938 3.597524218274448 6.063796049665791 -0.839655958014412 0.5971150550595652 -0.5306574376569635
Ni 6.877773344447826 5.3911959088434465 5.756144799625954 0.5576933587288331 -1.4405037406435321 -1.3906405372645019
Ni 4.284638507257173 1.2163241628500143 9.325290856559823 -0.8320753174536767 -0.8655641932397417 0.7955592248055138
Ni 3.7843388910192077 7.265779433683474 10.260295619333244 -0.11266368364501887 0.13945097904119208 -0.044427634185755745
Ni 8.227702551168216 6.230829097644791 3.677095206784934 0.15860852580624943 1.1631164194334613 -0.04863087363382593
Ni 1.0947719759880992 5.173405301369215 4.518470388462253 0.238882223156337 -1.0021895299066805 -0.231002306187628
Ni 5.467681292185585 3.1267342748957585 -0.00903272642676929 -0.91979878621359 -0.9683563834073193 -1.0192395434104318
Ni 7.0034753290555765 6.02696336705103 12.869629422569085 -0.7958590154341196 0.006408474629505092 1.2890207701384704
Ni 5.851297817583416 5.593309502611188 2.882742766631596 -0.2372883963066559 0.28821757905635526 -0.08004589760999763
Ni 2.1248439942322337 1.4778075297015134 12.864837789438559 0.9909802914544223 1.2146744940164111 0.44324841481367533
Ni 7.452916868475133 4.037550327697341 3.5285195370021363 0.8251132843135467 -1.2268779780611385 0.184946649480146
Ni 7.330968145384171 7.429604226916305 1.5218940587759964 0.42739756382434785 -2.0463667170990565 -0.1463713603101092
Ni 2.0280246019355 9.130670875343785 3.9936131913417077 -0.8682815921709046 0.09971046591846054 1.4383856658592646
Ni 1.6810738450653202 0.7977534299503697 1.7513566640433493 -0.03500171288616553 0.027508746943230043 -0.36295877662398784
Ni 4.884026071892929 5.090464677089109 11.331147238937067 0.03573679127997716 0.7314279415432435 0.37768939796594303
Ni 2.75822301329277 7.58920544822115 1.3107689486588534 -0.8337344503236545 0.1565048491996853 0.35398639792204845
Ni 7.024565523377191 1.9126971116923384 6.112195601864114 0.9775249372804649 -1.6402612298842654 1.552873547197216
Ni 5.945461339322814 8.421249118034 9.244929562123074 -0.02785224632557784 -0.30121116310254575 -0.07868167027261933
Ni 4.326053488760615 7.29342630844351 7.5665106654378125 -1.4548602664755204 0.003111291935472061 1.694343099330334
Ni 4.140917178659727 0.5517580304636068 0.5772958857914804 -0.22454215238458103 0.10193369882202444 0.33001703159064455
P 6.035622611680674 0.38930543701873377 1.8926969309119634 -0.9204204789579891 0.15084328003853376 0.16831006936472948
Ni 1.1350803447593176 6.8698887287307375 8.526795073901587 1.3127109146665585 0.15940273957277062 -0.05677741400036028
P 9.051778609309062 1.9653165471095364 2.6075254135959343 -0.02363795113391413 -0.6689316227812351 0.6628833597046261
Ni 1.7578543251360514 5.196275297835153 6.700867466542845 0.29918719069398153 -1.4411951102836018 1.463061057118758
P 2.603361783190946 8.55338790003418 8.80726238217437 0.292505922019064 0.4767576023147145 -0.04837067799390379
P 4.159941695881192 2.3925336141569495 11.424680913596378 0.1614483092478897 -0.8698396806866439 -0.5483651393493718
P 8.125313208119294 0.22752879951779348 7.726639372145017 -1.0827321646474386 -0.3101267204246207 -0.49903004055966965
Ni 1.7843023694361781 1.9738005780565786 6.293015200132056 -1.3929216199891945 -1.1080228208934273 -0.9454486255712106
Ni 4.8532714597099025 4.885649103900191 7.088771194100763 0.7034571673619304 1.0337647336098004 0.32161106691513647
Ni 6.520328210167066 7.044917975877324 7.208246637735207 1.1986848034563742 0.15250498401167284 0.4231740126613035
Ni 3.408938965158131 9.232931113573947 11.51059002653067 0.5664001424742117 1.309244553384513 -0.09649710118748543
Ni 4.5763785105622 7.850190839343148 5.378741904719554 -0.02562104300221394 -2.4605117867888717 -0.5584641754565866
Ni 5.190935891402178 0.6004665120496739 4.879663251196141 -0.7505471788711978 2.3138668611024023 0.46965647249355885
Ni 1.1521129590627817 8.712758577019812 10.626441496221107 1.1159500461603038 0.22323397509611875 -0.7222298199837434
Ni 1.1794555153214554 8.614297709170282 12.997472702813688 -0.9059757642875688 0.2640551228775388 0.7224195673970462
Ni 4.000183704439281 9.007726200793822 3.0062674906886984 0.8139940344719336 -0.29939853537383926 -0.9544145765152465
Ni 0.10522411599796662 5.2663146620120935 0.27103159037602875 0.06354712862402605 -0.33246163647639515 -0.7208195698997779
Ni 0.19104838862278925 3.0869423253995776 7.528718918455124 -1.1939017802454341 -0.10203345762468234 -1.826676750600454
Ni 5.73312079955478 6.061065482749032 9.144957245716782 0.07534026460421218 -1.167010612281545 0.806057039013044
Ni 2.692038350133073 2.60621131097642 8.258933929003376 0.05159715535100146 1.038660885359837 0.15907852346413248
Ni 4.989375604000549 2.221128523708393 7.312767132470936 -0.7899894440272202 1.5088138378738403 -0.5926091967694116
Ni 6.27444808283991 3.1675498411692464 10.983396954367857 0.1893373223486739 -1.1557869756515837 0.19255531506533932
Ni 0.631943189040477 8.827348325441491 6.423693253325702 0.05159946934384661 0.5080808379080283 0.46469475761290935
Ni 7.329013129557244 1.5414285400315606 12.575921492955256 1.2500472170887502 0.550723098058587 0.3443751000845295
Ni 3.190216958634278 6.668420659056793 3.7298142373480325 -0.3473706923777437 0.7942926993882643 -0.1961260631357332
Ni 1.0738662171218551 4.390458349775987 9.04166509111382 0.20336140454190782 1.7068638575051638 1.0205189243434876
Ni 0.40235608984074894 7.179823289708062 1.4361887470198877 1.027520038251669 0.312954419681403 -0.22425855970589123
Ni 6.772635913113883 3.6606749181933003 8.002422942028666 1.5473904125954576 1.7707958802724342 -0.15015062484688335
Ni 4.411760644871277 5.085199044838282 0.6057358330096085 0.16273977436580359 1.0449539174574005 -0.14330866222438546
Ni 3.439730464432233 0.32132160599189774 6.855515673693716 -1.2655841363820848 -0.1948698221311289 0.47564765707998724
Ni 8.368426803615893 7.786265510511739 9.177283247979567 -1.1170556205196567 -0.12401279010925093 -0.5302131510306933
Ni 5.685435012568743 0.07087854549887572 7.135457340918693 1.2123365899118541 -0.745177172808536 -0.26373399209269416
P 4.8836387574366515 5.363170941399902 4.838632817617147 0.30268929030996905 1.4256538201148932 1.71691764219674
Ni 8.945147250786617 0.9460063376862694 4.725784139894165 1.0131483429110293 1.9543039975338408 0.6072793971870767
P 8.408679841750502 3.3105242061724427 5.4670394568008955 0.7459621306036766 0.9551974774278582 -0.30055141803135976
Ni 6.90486691284175 1.398647832256503 3.77361212493486 0.8893957484417007 0.13270928944198435 -1.262113404224665
P 0.3103772060702134 1.9974820905261481 11.915755990533988 -2.8475474018564055 -0.6266215491591144 0.43757476146766583
P 8.321985955953606 7.687804642662209 12.819717499636726 0.8254246449063783 0.5606053901693054 0.5612265686930722
P 3.418548052382933 1.904056310608231 4.833936168746138 0.7038356337472716 -0.9149296310467468 -1.4183413456138798
Ni 9.223893776260793 2.520153727500553 0.5341702654394778 1.3327356945279176 0.2508098278318584 -0.3443375619783747
