# total energy = -340892.83676977386 ev
CRYSTAL
PRIMVEC
9.09472676226861 0.00000000000000 0.00000000000000

0.00000000000000 9.09472676226861 0.00000000000000

0.00000000000000 0.00000000000000 13.31105192565283

PRIMCOORD
 96 1
Ni 6.8985140177652 1.8593623353011903 11.471584595662117 -1.361490912283739 0.09449318338357919 0.40758052909842063
Ni 4.5099386220228075 0.28176918925166483 5.927490950290796 0.030768905751740558 0.0729023445866809 0.2784625565521204
Ni 2.7232158700405242 1.5508146323241983 4.788611056783413 0.16820285436290386 0.1581747807029405 -0.7014799890309015
Ni 3.5716174638685234 4.547572601711506 5.022260046292955 -0.0532953689890308 -0.25931375153781144 -0.005951589597744588
Ni 5.157655973267234 4.402766360869684 2.8561789575835004 -0.022505637301683822 1.2590370792921863 -0.27216206825538936
Ni 7.436539868520163 6.195164222403863 2.6751356870965233 -0.18010551933776078 0.7393016878643656 -0.3435027247819052
Ni 5.232569238297637 4.428149743496837 11.74310311828567 0.7577290413316176 0.4597039892665373 -1.2770682257622845
Ni 5.483047110362996 7.816881345219386 12.300889991531596 0.26166245427564616 0.6088433992400869 0.6734279679896917
Ni 2.0910323122490455 6.487132238340619 0.4767164781407889 -1.065719432139526 -0.30776490506066356 -0.14850229061018297
Ni 2.790289480529686 1.7147288942694416 0.39101777654372766 -0.5742008694655529 -0.8808203480678637 -0.14645363561127034
Ni 0.6442286140263053 9.000796507122732 4.554749250665675 -1.3753417021239023 0.23093622883638293 -0.06018309724779958
Ni 8.432339700341092 2.278492821998552 1.5225846001942513 1.414872927449305 0.44907761990094275 -1.7905563507288131
Ni 6.681932192654839 0.731018682844885 4.658349103113696 0.12231123403711193 0.17763648897197792 0.05974703815164548
Ni 0.7869039603681127 7.3860186608906995 2.4902317050634237 -0.07372561181892465 0.3639800187996506 -0.03380409303363856
Ni 7.719986125402228 4.01292998934325 3.7613170953675126 0.035356268012106846 -0.12974172217322819 0.8162236951334007
Ni 7.622927200501843 3.7164418941640376 12.863401575374015 1.2788363734063009 0.7553769961596734 -0.6624501288219494
Ni 8.084757429741119 9.049207738123926 6.617908953549821 -0.5193921491557894 -0.4912653090125862 0.423177097985097
Ni 6.97703788935346 0.6395075413205528 0.32490184079144796 -0.6392659773960022 0.1575551448410706 -0.12132213065096527
Ni 1.8595169456575724 6.485667987318416 9.372085092719457 -0.3109152777641871 -0.30368944943970927 -1.023562853376134
Ni 0.058242630721707774 4.714060671354165 1.479883038706968 1.4759301997719418 0.1972277808403442 -0.4412995186174206
Ni 6.528349540406638 1.972746294890124 6.908422722663904 -0.8073441332555839 0.09279574107649825 0.8306691811347694
Ni 3.482543709138916 4.220780876681462 0.7069676777006696 0.32470950333480203 1.8283597947298318 -1.5861618769367005
Ni 5.936401054181811 5.7164814643189725 4.77691069069605 0.6409824458664767 0.12104547995081089 0.9350765383082671
Ni 5.399539328463133 2.817691892516648 9.572722952196116 0.5843101899854131 0.23841248260877002 -0.6217973882975936
P 0.35152392521502435 5.470623713491377 12.524341973301416 -0.5919934175622837 -0.14737383343269456 0.373178397469467
P 4.013330157324473 6.176256285291054 12.840067234705263 -0.3935435913893803 -0.6030337345368454 -1.3656609845010286
P 2.3543155597135548 8.557755983547267 1.2203040734868293 0.27643498459913035 0.42341826746162564 1.136047074020495
P 6.1884068403572945 7.877143005300902 5.770341346173598 0.9227306151484044 -0.2383836862533636 -0.21103743302992686
P 4.883395390499617 1.242248739893514 12.704134718847069 0.22515433204728322 0.30929599699320925 -0.2956868908502069
P 4.125740981140886 6.192699551428602 8.1789760714475 -0.6384825622627585 -0.3165213110970549 0.6500191021474483
P 4.686649164640356 1.1494825260644357 3.6338244860223976 0.2509334978939162 -1.6924553953893176 0.6346241077486167
P 0.39382168083034574 5.563471779862068 3.547648311265922 -0.5356813732341161 -0.04310145917516448 1.1649367604716518
Ni 1.2767723230008852 1.0558250290044502 2.4827112754344762 0.7033895473487886 0.16096622740514857 -0.28713900128019576
Ni 1.710927298447819 6.661578193973517 4.939904566284479 0.4408102376858279 -0.533205658000114 -0.36889648226466143
Ni 6.073158461764933 5.616384900652027 9.234621934333086 -0.5525131000794743 0.38598480520551587 1.014647296054059
Ni 8.737149470584383 2.45910500243303 10.093145049667985 1.201936734734769 -1.1521938589836866 -0.0788081685481546
Ni 2.4027995485295173 5.240172429940884 7.010531949381866 -0.6098867529029367 -0.36874350162656494 1.1000626855060862
Ni 0.5048573819476452 0.11180602448115468 9.201837262998668 0.7130995755477009 0.21187175600576413 0.25739725124138896
Ni 1.6530029831657205 1.2255781055848178 11.244564752550616 -0.41474207984386635 -0.24507086846555215 0.39090769642843
Ni 4.045943847794187 6.830567313498823 1.7538907880682664 0.6580234605091635 0.5823849479382421 -0.6829611042911077
Ni 5.570374677538174 8.011908667704754 7.909453841366645 -0.1937115401569696 -0.03711413124347802 0.6098939519917883
Ni 5.201174241225287 2.8596276780034993 4.88652670495269 0.23450826245835737 -0.005694993502248257 0.32947015794823903
Ni 0.8359299949040961 7.642762799752943 7.165951736452956 -0.0657986436623641 -1.2935315135246304 0.03589671389660915
Ni 5.214234268976125 4.46205488517868 7.159229823841086 0.13033641833443357 0.4365846296402545 -0.060096965291896495
Ni 8.152913312724953 7.411638506415848 9.117884748956035 -0.5025488523462055 0.028964762663466245 1.0637432822497614
Ni 4.635936967747127 0.7595743061959185 10.539611556846333 -0.31459632616020017 -1.0633609592096782 0.6094512080274149
Ni 8.068650668496874 6.845373528804091 5.063244523351716 1.0132380744113583 0.9892897911258767 -0.9383647221412356
Ni 7.209708286254374 6.3004902540072525 7.226636301332812 -0.39411077674676 -0.528208976116471 -1.5416337126173385
Ni 2.4912184829262136 5.043035130827246 2.8207049755207243 -0.5202845790630717 0.860364394206357 -0.007299361874890655
Ni 2.2596758321542025 5.327454523481832 11.533999887060766 1.2736818257885547 0.008857964611262165 0.24775792837941205
Ni 0.9435324366370351 3.2577493456866287 3.764684872718582 0.3892328798291684 0.0444695431672847 -0.05205841125813615
Ni 3.831153683872486 2.5656315379800883 2.3450744077653463 -0.08513102544238887 -0.23617408019655456 0.8955463414241287
Ni 1.0886660876453131 3.2415152582665394 8.189677836527176 -0.06323602514151044 0.8879513026856901 -0.9075425945540564
Ni 3.770955686878891 2.6561695437318993 7.087602483620138 -0.434355997420052 -0.5874176252661433 -0.1778010395743002
Ni 3.9579614602860977 6.83385960461707 6.085120755985462 0.5256622984352173 1.0734558815518354 -0.4156288533241939
Ni 0.9409313447590825 7.573506454820744 11.87211363754138 -0.8750248244320092 -0.8379263769178149 -0.39454040808501084
P 9.03106375806618 5.67269035455554 8.225191835388076 2.118433453158319 0.2846139208654969 -0.678243129990148
P 8.556428153427753 1.7018689505092146 8.00663736402482 -0.4694050186043851 -0.3867183409374308 -0.3678271604598826
P 1.9837327249200778 3.453931698481438 10.237024537844201 -1.3007205750739017 -1.177571932737159 0.5206512183738712
P 4.123976604132764 6.293387272340535 3.8039795495293585 -1.1074399518067637 -0.40583912092728175 0.23604449659722573
P 7.198867371853956 3.851544061461191 10.498972679407721 -1.7956903295212687 1.4540588536201475 0.11869214922728591
P 6.165606360154403 7.776218821490973 10.203786949112853 1.0830124148920186 -0.11582228387865859 0.16598553499661092
P 2.3505412480724694 8.599755432122041 5.743865686852242 0.8221706567454551 -0.5675460831531969 0.8051736079668262
P 7.053260795049687 4.282324893248263 1.6556686476042797 -1.1139517847833527 -0.6345387471236621 -0.6219624531205482
Ni 5.521672415277908 3.151104578690572 0.47511580621589494 -0.234031579932255 -1.2383528114699578 -0.38091047600640204
Ni 1.4336745505478716 0.9759187589355988 6.978066502959742 -0.04077358237293623 1.1670841458319579 -0.0016879292253841897
Ni 7.001402662573863 0.6791068914806696 9.241770389634032 -0.7389003386608888 -0.34279130053717743 -0.172797929932754
Ni 2.6465382280019982 1.606065097913576 9.064346820431759 0.6931125909028127 1.0593520951606015 0.6891132399354326
Ni 6.377449832578003 2.3103971237742784 2.5623910868048627 -0.7496328945870444 -1.3872042578894432 0.8888457894755015
Ni 4.060449937113538 6.788076749674366 10.49744203687954 0.5503788273452909 0.4990778630784695 -0.1770453923551983
Ni 8.13036748487375 6.896886061659767 0.24931556597444088 0.3874570188756682 -0.17735546739644942 0.2516495501243344
Ni 7.632985968393506 4.036512616054897 8.15999446704724 0.1345378580102909 -1.2297025919941273 -0.15652156137023365
Ni 3.0993737723905914 8.751573707362121 12.412435906824957 1.02786996539192 -0.5700567653901925 0.5144882840962688
Ni 0.19423517177708322 4.810446586467947 10.33637806232783 -0.5766614151909036 0.3024476066128081 -0.2899399610641007
Ni 8.715185705251322 2.2750186363433844 5.842739919231087 0.2836754682116276 0.8228347726920151 -0.9230748858617006
Ni 3.4431089735347116 2.999386345445798 11.807169102606863 0.9645976876958355 -0.9003918424418881 -0.8646997883569172
Ni 1.1970752316494913 3.2763662515403658 12.472429272464517 -1.7172238605832488 0.5118757861740861 0.9512215234992457
Ni 3.005852696233296 8.591397378150578 8.256086622483897 0.39407400997155356 -1.650955733483634 -0.38589918747024504
Ni 5.5999780134218655 7.917187087603788 3.4498254293104735 -0.1476808231501521 0.4021079360196236 0.10189770337776645
Ni 3.0339644969142454 8.398279948302866 3.595422001915213 0.5140285708510309 0.02876190262404079 -0.5252828036086115
Ni 3.6818182690613614 4.386223052736831 9.519904416565357 0.4928269970727513 0.9787300133321597 -0.8880788294024898
Ni 7.299136735330975 6.061762769026911 11.421840987177985 0.1449001750812214 -0.20242706565309654 -0.28370889255272436
Ni 0.2906492805440876 8.810116464069745 0.474494636372314 0.48882790321568714 1.3769638111083575 0.23465610089013136
Ni 4.605278643549301 0.3226845463863961 1.4270781451664765 0.09169942268852593 -0.7188616748424588 0.030633922835773052
Ni 5.994989284523665 5.7176092104478755 0.2822412055749716 0.07824149741140718 0.15944104900987377 1.1916009000263994
Ni 7.894941385738502 8.740005214814023 11.481022193710201 0.1506144518571793 -0.6434265365315951 -0.4286280937973392
Ni 0.24010169820677035 4.832255741444626 5.8013288994832495 -0.7431750547768426 -0.27395824092386367 0.4239635984421343
Ni 7.757692862905695 8.794164313181883 2.5619381694079326 1.015095439335071 0.5147772760915973 0.17498439606111155
P 8.384355921501658 1.6992041955433401 3.5394485055415794 0.20551033256411058 -1.1242457105101928 1.4089871580924898
P 1.8999248170342975 3.2622512354753925 1.677951637849635 -2.0494222160959286 -1.071024132181891 0.004517428254379317
P 4.750939788714645 0.9521633324138777 8.31191369375531 0.26068877750846714 1.2698765931098515 -0.8149713107835383
P 8.88972260815268 1.4411595107421198 12.502179033450428 -0.6098893240060981 0.6982581396594942 0.04370489708711828
P 6.374648656709439 7.784194896934904 1.1975690753172283 -0.7596036326465112 -0.07285400784724873 0.8098008223261924
P 1.914758316520104 3.235940190709949 5.855252444425798 -0.4810919680240101 0.4066364200175964 1.0349086174062565
P 6.931855286382591 4.000315603207865 5.8663134512158885 0.3390997106182031 -0.2830332066419384 0.568174203655499
P 2.2857231298411125 8.306996174949685 10.433029543465516 0.5085392656016855 1.131166348889426 -1.124946079011327
