# total energy = -340865.56170922914 ev
CRYSTAL
PRIMVEC
9.36114399537808 0.00000000000000 0.00000000000000
0.00000000000000 9.36114399537808 0.00000000000000
0.00000000000000 0.00000000000000 13.70098047617306
PRIMCOORD
 96 1
Ni 7.046273323366192 6.204547360130282 5.406297356846957 0.4859030162594084 0.7843798111499265 -0.04161844687173478
Ni 5.643899099354656 0.4049144009984389 8.00237280491588 -1.2022869189853358 -1.775208150407517 1.2320340683407813
Ni 5.4507318979203 2.4131343600751727 0.6717453787743066 0.15184421049922237 0.3843328714243897 -0.5451540886112417
Ni 4.509862061149558 7.504866394898426 10.053998515367017 -0.08630833357994169 0.8753007038012152 -0.5145934422155655
Ni 3.023218821033731 2.919815627089273 0.6037900278960696 -0.4701763495527709 -0.26536201461442044 -0.066212334161015
Ni 7.027476146701293 7.205936991292742 12.760175055738832 -0.35721416083072677 -0.19886917309850913 -0.19526937156239274
Ni 6.9974736809587625 8.174038395253818 9.77837555137418 -0.37302207439726076 -0.10135288661788998 0.14940629048169107
Ni 0.26295078368841723 6.866324056917312 0.07617256286850008 -1.8089047713290138 1.3757098840965987 1.357248077846985
Ni 0.5677533688875066 5.505616283770052 2.463011470129081 -0.48718162586151575 0.5994539876053869 -0.013823536146653612
Ni 1.7857224220216301 0.7311970666633035 2.354527047353095 0.007605323151083677 1.0435092145910736 0.17093233747892495
Ni 3.9829607236194318 7.857669180828061 6.342101878730558 1.7265744485602137 -1.2257981147333987 0.03127001375787518
Ni 4.7867178877752465 6.043610576652721 8.078454564689933 0.49759999298136237 -0.41899339892105264 -0.8587245446100888
Ni 2.4661465171734402 5.785711066135809 1.0427696310277588 0.13978342267994637 -1.0529896432776833 0.023451289044404775
Ni 6.956799511332773 9.233083310818227 3.648913925322163 0.06370653702002577 0.5286440067713605 1.268574072248344
Ni 4.079932811802542 8.350973373412808 12.75735267089597 -0.22075723142085205 -0.09667296464371737 -1.9909116214545453
Ni 4.150749864327423 4.410933493921147 2.1097312658678176 0.04785979979575628 0.013705008290918334 -0.24240746270077604
Ni 0.8425918690334712 3.208859662887122 1.6992507287912169 0.6845240779028534 0.7025439115190416 -0.4680742156081035
Ni 0.4819107445175919 3.3731102912548083 12.273708242554504 -0.45222310750845984 -0.677585441801491 -0.03139368381993303
Ni 6.383607317922206 6.879907076509328 2.6327935983430266 -0.04185833079668275 -0.06500494411647514 0.6073393038907346
Ni 8.570876001418355 5.955990271083273 9.368058834313336 -1.6911423330048487 1.3887507764409566 0.6980866470786364
Ni 2.3152261575163195 2.737544796988553 6.983444134809518 -1.3028772164055884 -0.2342573227898159 -1.5185873723208363
Ni 7.65722837069419 8.26341859584966 1.1209239480297046 0.652222023336038 -0.6434067390372532 0.9947533853436094
Ni 7.607932587667618 5.326069546502742 0.9675313103062493 0.14290191370427002 1.7915014882509017 0.8801842571457617
Ni 8.529846108329584 9.261625438134601 5.8830229638373135 -0.099751346458725 -0.26513318643306594 -0.5845467314762514
P 8.831078353299594 2.0322013371544916 10.355406749839666 -0.36022620818417317 -0.5971921881544038 1.1247671302313016
P 0.2729157212181905 4.795011861144321 0.17802087083485096 0.3821726305482773 -1.1137296414702174 1.017894342236447
P 5.39598792922691 3.661751797871088 9.504630432819082 -0.8263924081362864 -0.6165345972367576 -0.6100644161313815
P 4.145657402123386 4.536981294614804 13.5699579881313 0.43612054551964247 1.176284324273987 -0.7494817137211609
P 1.8638879723960848 5.2295093486449575 6.4856194459043115 1.2299252495278947 0.36181335016563493 -0.7024783483884289
P 6.213262584968439 8.63724651065846 5.840454098714822 -0.9117836292185975 -1.7724544989217794 -0.5567765033415185
P 3.5894556846325356 8.866968978465541 8.594487614317696 -0.8639986485248345 0.6988199257002351 -1.3966566615515947
P 2.4743562402486976 1.1977302603305822 11.988138127205033 0.4156221684559745 0.24071696237223061 -0.5562111177563518
Ni 4.359456564399096 3.2879426053498038 5.874021288000179 -0.18879867623638452 -0.7322288401779841 1.3203841149411002
Ni 0.6183512870107359 4.8096058842621385 8.0153613918793 0.10066743051509114 0.38452030484484745 1.0136818468169964
Ni 9.388197462878672 3.6530365730329306 5.943416382788307 -0.6628710184094518 -0.7163016274247664 -0.4676978061052913
Ni 1.6130561254160232 2.7774045471076465 10.022719189615973 0.6384519661351391 -0.9049234117636543 1.5517751719267145
Ni 5.8815504559242715 2.2734567340707126 3.7872248243380393 0.2427288505959368 0.5921883071819092 -0.1323979288491526
Ni 4.804335560326711 6.738310416034597 0.5229556154363745 0.3647688332495331 -0.4820111374041699 2.204662596760893
Ni 1.731792872835135 1.0329273244812076 8.630507423267495 0.8519512304419973 -2.071338813663362 -0.9876615114938344
Ni 5.621872328093448 4.8500928310129785 3.7262004642977957 0.04617007079815919 -0.03878072031262353 1.3285748782820086
Ni 8.30507568557018 9.008696694952876 11.737616134083343 -0.8345605457693757 2.3213621410381826 0.0955967008604031
Ni 1.021113561059344 4.971525587834227 10.645305458062568 -0.601563577749222 1.32892943340795 -0.6803910295710862
Ni 1.8022729241847482 8.523564780868355 6.834337028698209 -1.0879833857440488 1.4704018137545452 -0.37198669115421096
Ni 9.20938089482444 9.029225683212898 3.414133631542949 0.8899071408604802 0.23511092903936284 -0.6356162964585569
Ni 1.4654776940803012 7.386438565223309 3.8932294801326846 1.9754531208076298 1.058281487804242 -0.7673843050331947
Ni 8.002429907892799 4.560908378058768 3.702210661190656 -0.09044343879423779 -0.7473770086733322 -0.3241122360704353
Ni 0.03018594416017566 2.664930404862248 8.398399736031024 -1.5394025092939745 1.09729103629822 -0.31949890566814004
Ni 7.487679334959804 0.8171763637320765 13.670851459434394 -0.40782889766380087 0.8412207313983706 -0.6889877701011619
Ni 7.047583883492231 7.561098785449246 7.52608529945337 -0.1736304531363784 -0.40096379511285135 -0.1560639050075248
Ni 1.9460226477236857 8.442347497628983 10.198023456532422 0.45049866861818544 -0.2040633157049389 0.03986521162605392
Ni 4.121290344922823 1.5006287888894123 2.365391590797956 0.4630430809420993 -1.1381070418733172 0.3931741238651035
Ni 2.0163435596294224 6.3651377812888175 12.559003140277506 1.5962038345537348 -0.32842834694728595 -2.487538708999677
Ni 6.433502214149253 1.523975481420417 10.068261153995822 0.3357955859456346 -1.5760109045456276 1.2558455689380823
Ni 0.950324591965736 1.563882037258297 4.498854292205208 -0.748328316843008 1.1674829239322733 0.8003484186640409
Ni 5.990626502985726 5.537481617120309 10.115885972861694 0.6153778579244951 1.6852236535275686 0.3027718227214463
Ni 2.8012473802577946 4.269243222008842 8.504363202793137 1.2346573648962413 1.719524740802284 1.6693524908232669
P 6.559980627455752 3.725931799471958 2.007878277329588 0.17455270784033164 -0.0868878602324955 0.6908510485621457
P 7.923009964254851 5.097180220490072 7.5875346554202 -1.527048872824628 -0.45407841554964384 -2.211747785742449
P 0.4199362283859703 1.471496909516322 6.740580493395771 0.8127830448829679 -1.190584028726111 -0.5317702111051681
P 3.5243957355184685 6.816026631508695 2.9053891684447133 0.5041347087760866 -1.6768220597274346 0.8525657240975446
P 6.149550640555441 2.199147974924315 12.292614944601366 2.2569984300501322 0.2748244455789009 0.8607030084926984
P 5.717075160106407 9.079279718883821 1.9339205610740933 -0.24085965859768194 0.44225159811804476 -1.366291676106492
P 5.009578637208138 5.321838309524388 5.833260995851621 0.5684151160217114 1.235526654875072 1.5518307077549982
P 5.825289981942178 8.706537696750882 11.48486057206113 0.47270580084284397 0.02412954605835199 0.4495167643208903
Ni 1.425037553048248 8.734836434329562 12.897841908064198 0.6194592270827203 -0.6159149613748875 -0.9956499290159497
Ni 0.3183182045560519 5.876589049732838 4.965988471301713 -0.10566565506063091 -1.1563945273285954 0.6895192171245995
Ni 7.907404937611233 3.1105957368654864 0.30994653369379144 0.43106061449823185 -0.6259402068213736 -0.28495562047563183
Ni 2.5133828485733805 6.738909529235072 8.029226181898414 -0.2926416762659799 -0.4785949126337693 1.0411371148144715
Ni 4.685374145457421 8.534227123608057 3.763535513945513 -1.2761004625323764 0.22262205254373274 0.8907869723622723
Ni 6.396450807157386 4.673653993473131 12.672118520870288 -0.9369225903780702 -0.5852805243184823 0.36999202932168535
Ni 3.2087379680182755 5.367651747073201 4.760227723170501 -0.7672017567087432 0.4445157115618732 -1.3839582401483197
Ni 4.081879929704086 2.2825557658029245 8.573004725508794 0.3097924770136536 -0.897090545982797 -0.3947478961101266
Ni 6.273801101647673 1.3049153563530378 6.1078972952924255 0.769706525408468 2.162985014516449 -1.6788928262135343
Ni 8.124939196246151 0.6273997685666579 8.20011854176199 0.2495564150407315 -0.6910024865383454 0.5755242162626669
Ni 8.600513382554345 1.8688025728687303 2.530776789789042 -1.3733686375579315 -0.4550142971003518 0.6521065808040963
Ni 0.05477392435341432 7.262422132725012 11.111495097753949 0.970063338796097 -1.0577060749167462 1.0860386033128522
Ni 9.335316361793009 7.126283019060858 7.018327500907167 -0.137823213629782 -0.5562486558625065 1.03652352730186
Ni 4.418965355265012 2.2360870481910933 11.166532070246946 -1.8137554145530956 -0.2479409909244956 -0.5663916578337794
Ni 3.433414779340106 0.4747663196019292 0.4400917070100708 0.15672544985092363 2.4962308374570363 -0.6055667853713441
Ni 3.2359695352086093 2.8943439549253336 4.01812773237293 0.30544499867823527 0.4641995631440457 -0.6073611582676055
Ni 6.598239621992326 3.8258900925136854 5.994918587398503 2.110518569186617 0.20010715927066827 0.015067950076715984
Ni 6.804559230405856 2.6250987381744273 8.083345762303185 -0.21215663423603462 1.300346736674251 -0.2760786297009762
Ni 1.2321605470703718 1.5131071935180527 13.690608153334429 -1.6502239975239321 0.44500679226567874 0.7616098644432625
Ni 2.675723803614553 8.067433690144323 1.4910364248811843 -1.1585154303263403 -0.7691686506271269 -0.5867506811061056
Ni 3.5108595216452394 0.6961910695824325 6.321604718359312 0.7756506588070448 1.6213340539624592 0.22765164454784018
Ni 7.257432643102308 3.657305254586314 10.661034051803785 2.1066125492639913 -0.46455051872556125 0.28917865741804394
Ni 2.8364827253607223 3.9556261838477655 11.662603416926387 1.1913255348778256 0.8386336873974848 1.1113626838999375
Ni 4.6590131646365265 6.245118557174938 12.028994839134292 -0.8177419315501401 -1.5949275389444726 -0.6625205770485687
P 8.365960564568438 7.133322599166437 3.742326906648703 -0.559608573473675 -0.9843964675893175 -0.3923349157932598
P 7.991739481721826 5.646304913300313 11.556817811895666 0.04789296702653687 -0.4997152395521523 -0.9194182629457199
P 0.4516461667498539 8.945696197465441 1.1866195188049005 -0.8841365569252901 -0.21378465675776084 -0.8095241716260382
P 9.106118118036344 8.31381899383961 9.232597467457216 0.9913096497693832 -0.6850943485840266 -0.5437880615016506
P 1.4753349784568641 3.885642273117296 3.686193744221711 -1.8136407433521025 0.9507854644030916 0.03706373762151681
P 2.976843714859474 0.8179683164939543 4.233027765154512 0.8553111480531657 -1.6002060137345926 0.09082216228989519
P 7.85687348360868 2.3784138778789026 4.718179337640922 0.4190209097248784 -0.30186448041582853 -0.5943369780937958
P 2.9194318201952187 6.073285402363743 10.37571107064951 -0.5101552039385536 -0.6402139431315684 0.26258368053833486
