# total energy = -340856.7007646665 ev
CRYSTAL
PRIMVEC
9.42276700503751 0.00000000000000 0.00000000000000
0.00000000000000 9.42276700503751 0.00000000000000
0.00000000000000 0.00000000000000 13.79117197975617
PRIMCOORD
 96 1
Ni 6.877432621293551 4.316230330495687 5.412386466067924 -0.36232962768042115 -1.1717702384537176 0.8223951140514353
Ni 5.687572721839887 6.547654622789656 7.053674170193977 -0.2789850047144937 -0.03950602851442229 1.874965924624145
Ni 2.088320730282464 0.5370487190447962 13.578704729482638 -2.8738505585273084 0.31259472234913904 -0.13516263607848336
Ni 5.048831617074371 1.860826867265162 0.3522692009905782 -0.4398064790116619 2.0853703520557634 0.7456484560179998
Ni 2.687194107987291 7.865145900885963 2.8655708558836883 -1.7113656020302588 1.353828510642475 -0.5361295165151283
Ni 0.929658669998083 1.0220781107411554 8.95587640723543 -0.17812911233768033 1.3598063254924646 1.207236292570811
Ni 5.497016105354823 -0.08169915875844817 10.544219468296346 0.3190422777466957 -0.598222686301447 -0.2861480981218362
Ni 1.2788390879750726 4.334472807354466 7.357328489543287 -0.4903050019818459 0.6276440768863578 0.3378288143255795
Ni 4.215821325636623 0.31183799246493354 12.720935175547924 1.1604118760181048 -0.7412726955478073 0.13943632375317278
Ni 1.8735287571441053 5.649165523659938 1.1776696658213275 -0.0671070780611425 -0.11735440425246886 -0.11968922303323258
Ni 1.4374336788893833 6.931933905462547 7.057356587526834 0.6848562644312916 0.4624242164111777 -0.6575717176837256
Ni 2.2338742117068215 9.286004932670702 7.426725283742425 0.39514410310728076 -0.38227907421915447 1.5963984670630442
Ni 9.093271657014988 6.583423446217302 2.598353434140378 0.022138483770252196 1.0061477432234802 0.13601341411455287
Ni 4.4185144659822795 5.168020196509646 5.527253764569607 -1.0716594517730447 0.9878926536680339 -0.3369898633640519
Ni 9.270815432311016 3.8621000762555813 10.234759782215272 1.5036199523777267 -0.8906671589549564 1.0221379480041495
Ni 4.7124576816897195 3.3053087758499826 12.238285974788818 -0.4321618179822106 0.8428348699630259 -0.647073132145247
Ni 0.8242028311485433 2.056876956895199 1.7567608865440676 0.19629292773090065 0.48217491667554374 0.8805938338793544
Ni 5.455678426646423 6.27978420329515 10.074202428940588 -1.732695988076919 -0.7658850947798488 -0.6866272402887853
Ni 8.740153464720187 4.694262318665803 1.120039080740761 0.2999847468946124 -0.6278358811821897 -1.4151457214947176
Ni 4.707595533931904 7.06185501647951 3.619382790917493 1.0669839006742463 -1.3467638904862096 0.34953684679112706
Ni 8.041926432057219 9.256511672046747 10.821601228772902 0.4578245128556373 0.33562280781319614 -0.6652981397937059
Ni 6.862723682049462 7.539966212664653 9.046015538371154 0.7809846694254485 2.0633586236713626 -1.1286250705248113
Ni 5.037844670784425 6.978755634548947 13.444944783201073 1.6438088380262075 0.11326275068159848 -1.487557242487909
Ni 0.4713560145425504 -0.1087641723335878 4.83997033346851 -0.6957914232865565 1.2453912063739778 -0.7595735507395242
P 2.9025891382118902 3.6148278253629815 -0.13329351931642508 -0.15813595704520506 0.4164060978098506 0.5350632800341429
P 8.645906949461144 6.353724655728433 11.910787343615576 -1.4684392907115356 0.1858251954303574 -1.874567403634146
P 5.354449641060752 8.737957960015592 7.685448081060019 0.398535645287333 0.7465012909365982 -0.43817459983519375
P 3.265648349662689 8.461013415926558 11.403175348592898 -1.082660945089871 -0.7856921022034469 -2.591698468938743
P 8.189081783866902 2.145394429834955 1.0117451044791015 0.7310800712855215 -0.7621842488894939 -0.8496035561454273
P 8.634712702297804 3.161668116121045 6.1173639689899995 -0.8422370884780269 0.5225795457448354 0.8602003578246671
P 6.801145899884112 5.2718213974788135 8.611373450783594 -0.2461625588678341 0.9700630816857809 -0.5369353002458752
P 2.8709663322521477 7.00347155231784 5.208567305069053 3.8145231028661146 -2.5561743078902044 0.7889622883142864
Ni 8.705204422019149 0.4483635208529294 13.053027405620266 0.2227449512748422 0.037490540746290275 0.6197721303374487
Ni 8.05917009561691 7.074359028252031 0.02443135020632317 0.7714826434722842 1.6066296578727493 0.239402100215549
Ni 3.7483295878294993 1.2498735023015777 9.08679633155148 0.5456780794355118 -1.0894201181905754 -0.44883567909346567
Ni 7.531966283504992 4.524002342239526 3.0683704734961346 1.0749296378838844 -0.14285974761242493 0.8742213546941072
Ni 9.11621609459305 5.173805775430767 5.31342102910905 -0.9165761655112344 -0.45044827499622425 -2.399481511049429
Ni 0.7460494596018507 5.314958824678963 12.626631181410348 1.493109539764706 -1.537517633566436 1.2804692810240335
Ni 7.974289810728543 2.721709703407594 12.470598640835862 1.1957234068352052 2.043653946153584 1.1005977320739497
Ni 2.1443767710019244 3.4033620889659186 11.433240571172085 -1.2500875834083824 -3.7225547427869183 0.22774754669575614
Ni 1.0167165563337974 2.574017253880477 13.161177213547246 -1.1265946703583436 0.21387104582398003 1.0727488281824815
Ni 8.994596441278865 8.627777545806035 8.947353514508794 0.7082311917118062 -1.7704007017165446 -1.8418704276217568
Ni 0.8096503098361993 7.632328174529193 11.423282591035537 0.3627934546907171 0.8324566120524953 0.18048809948816014
Ni 4.129178983324397 3.7406123416790136 9.45958549217809 -0.4747169177356017 0.45306694356599386 0.10926159994200538
Ni 1.8503016365568687 4.615525677843513 4.935460653967924 -1.0436223431301703 -1.6181098905982068 2.5292425164963666
Ni 2.7240182813158587 1.235814733978593 11.071442125942209 -0.9642760426903587 -1.0076014449508712 0.5106969353746367
Ni 0.961932589155626 7.101675629705336 4.771800383529191 -2.0093741990351073 -0.9513073983448327 -1.9536172558794613
Ni 0.8135287207220844 2.263367472330777 5.1048575049395195 2.0035285388876076 0.10692523849934489 0.24476259319651397
Ni 6.623602124588084 1.7642435057969377 5.931017444788253 -0.3213660407838659 -0.38322601151345614 1.3012661631647267
Ni 5.146677629316913 3.462094195505572 7.186924344782329 -2.93873954589121 0.4679127503295748 -0.8196486616545497
Ni 6.586843910628323 6.511848108294119 5.088900991348272 1.2085722377734154 1.230757515621203 -1.9779972273857223
Ni 8.047664897143475 2.2130027828627123 4.178215062649337 0.6581533012188084 0.16990415332472675 -1.5622781283405676
Ni 5.045316924993625 3.0813955642822344 4.564685138643337 0.29742495658723617 -0.5087948332559172 -0.056570697306192894
Ni 7.3030401599078685 8.793985732434136 3.0019380817865464 -1.7712198551837302 -0.6802514186694284 1.156801532959027
Ni 2.7613041702260794 7.755135096481912 13.320396533911834 -0.9237068630187446 -1.6832099655316495 0.7760972594261601
Ni 6.252100113929917 1.3857121109772776 12.324149996549117 0.6343083762804108 -0.44854822976003395 -1.6216850095439748
P 0.5256509401148486 4.501613847912843 3.028678952177832 0.5766909828772584 0.06286012985933045 -0.16520854762127032
P 5.494914828319954 4.79430383561294 3.173017838939433 -1.3278547122865325 1.4138372870959393 2.2874001822704413
P 3.639694507403435 0.5581538325098235 1.0858758968052298 0.8290329310829271 -0.6343729109697591 1.513879939542838
P 3.1868551722385634 2.9490433793863633 5.520730382994539 -0.8564329203624348 0.028164892469990203 0.7280032321324108
P 9.613389548363578 -0.02411003385256059 6.918175723405985 -0.5330773599523658 -0.06989723921176995 1.8587872579817535
P 1.0438070113797628 7.8074314531793405 1.083811368561553 -0.46008656941693665 -0.2177266721246444 0.10468092254985843
P 6.154018532513063 1.1950141529876261 3.8793465666453657 -0.08759131405742335 -0.8236755234257558 -0.7010153906896572
P 8.288802926736972 7.84058074738863 4.662285216667895 -0.671712785070798 -1.1625129815215076 -0.26689464920886297
Ni 1.600975222464262 7.017916654086697 9.29933249427662 -0.09884014749836527 -0.5257373746475268 0.6457785817035394
Ni 5.325267331746889 8.870771860493116 4.920110966569705 1.1317870131925605 -0.12938279617191265 1.423966405110141
Ni 4.19973666241455 1.2154332890170545 6.772348039462727 1.7142323820550927 -1.1336364076964736 -1.2202198493146728
Ni 8.618505543105087 5.91044942904066 9.609109727604665 0.5661399468342895 1.8040183897709898 1.2660119679481228
Ni 2.459313911524116 2.401571195516577 7.597281135051641 -0.4000801069563174 0.5974307865277712 -0.42570937748864746
Ni 3.518131390691087 6.077505664696284 8.163532893497639 -0.20031644706799692 -1.5596370911732946 -0.34727504734014386
Ni 6.949526211400222 1.0270627544696131 8.295789908447087 -0.9012871005626477 -1.6843777605875054 0.4181433922159315
Ni 2.8579817593640295 5.44079987759683 3.381608689133183 1.8987067198845107 1.8783384406408035 -2.8309897546080407
Ni 3.2026477296844895 3.180881137977992 2.871983991085179 -0.5557673453507138 -0.7388622863341017 -0.2779827887022245
Ni 2.9048411795183204 9.028480711312012 5.364917392890513 -0.5785372920573778 0.0824701907807741 -0.9388732863465378
Ni 2.728211412618626 5.276410284994426 11.181785554020388 2.4842800928530635 6.16825389004299 0.19841048829453573
Ni 6.973629649315902 4.3749624370353395 10.634206892883812 -1.05249907679451 -1.0365469243406278 -1.2714105132558748
Ni 3.8854685383474057 0.9169991825705162 3.863086639957603 0.40083858238889675 1.5155154182637318 -1.225129113690832
Ni 8.85851284066188 5.822158102508244 7.29488192826307 -1.91790797540331 0.6787334393630053 1.842458696025059
Ni 7.0985001572356 3.2909484789838777 7.894177445928265 3.2703820289004195 0.3639787332480699 0.4594268243457507
Ni 7.299176825449139 8.72495454159353 6.550600179745262 0.876076405624975 -0.2089067598401692 -0.02127562154932465
Ni 6.235732767698666 9.242066570277888 0.5765659191741075 0.31456830113574213 -0.7756614574403222 0.40145436159602477
Ni 8.8467155364123 -0.0067485857057114525 1.6488033030633267 1.7020330117754234 0.10016966494306619 -1.2399772344472582
Ni 7.821650408540859 2.148513365702856 10.16315617599117 -0.9290971807963806 -0.8471967464761474 -0.2266265457174355
Ni 5.688759990478423 2.7728564825343764 2.308559062730933 0.7366436814162282 -0.07075855877080073 0.5708070132926556
Ni 4.660029406254676 4.956921948024512 1.242384287111827 -1.694270337110869 -0.10445235147882011 -0.6159681832103262
Ni 3.972497214105505 8.056173655719652 9.190381751156975 -0.8147357977339647 0.5716063692654995 0.8219017193547845
Ni 6.892763463157824 5.277069878682502 12.65459983833815 -0.43458405427045793 -0.2874354494746921 1.764919623997315
Ni 6.597670669879737 6.41123180256166 1.7109332593732667 -0.6379434019298368 0.16821982364376836 0.7162021257324247
P 6.540710043530916 3.912445920189701 0.6477963838260974 0.9457381317871714 0.12919356297924203 -0.6683945193308425
P 4.358576245270146 7.405512750733911 1.5129326569799202 -0.06640902355285337 0.2133357421458003 0.7999216155392675
P 1.7736380044685298 4.444662644330994 9.550689514651802 0.2242991831358395 0.5463113421441366 -3.0798650844213475
P 1.8085870471695682 0.7774574264746199 3.313618714043039 -0.3392244091215255 0.2869942481722154 -0.03489372655339152
P 5.245654373596154 2.0805469475301432 10.34111737986408 1.4040395842792273 0.44380171621398407 0.5925068668635924
P 0.35553418974655276 1.4247789028453028 11.285661194848638 -0.1633882065830799 0.19861052012048375 -0.47020463168754506
P 4.816890208046045 5.508238620819082 11.852684677909686 0.008246556279508379 -0.8940461027295185 0.6788609660798051
P 6.853310337843926 8.667183557285071 12.37206005522084 -1.1418996761465303 -0.8495601045020015 1.248954241134888
