# total energy = -340877.56236802536 ev
CRYSTAL
PRIMVEC
9.19723378074396 0.00000000000000 0.00000000000000
0.00000000000000 9.19723378074396 0.00000000000000
0.00000000000000 0.00000000000000 13.46108130875470
PRIMCOORD
 96 1
Ni 2.4718853350838397 3.8749969235023793 10.945891861977032 0.7270413824397737 -0.4756882805099356 0.4383167818400128
Ni 3.3323049480817244 1.4823181655856532 10.437291272945757 0.12979442978803452 1.9785929519881922 -0.09606644140797004
Ni 5.780424631121925 5.91037234695961 1.1542942248107253 -0.6309931958642487 -0.6342937209923915 0.5602150967094223
Ni 2.1371152233437383 3.1592773892980617 2.8796888406893166 -0.05717644921099185 -0.10639250592432646 -0.06768557627243181
Ni 4.212728544514173 4.602452127988309 4.454109944624587 0.26607858106547083 -1.6425613387723517 0.1226696458177952
Ni 4.338040854535297 3.068371930784389 12.716374076932066 0.483157078083155 0.8061753097584632 -1.273456597151626
Ni 7.955027779283725 2.6007569745712518 5.000118442540187 2.263044379133896 2.554345739321898 1.1017390447672446
Ni 4.4629760779721375 3.4206167866742256 8.812175936232103 -0.2587283113479867 -0.2137116374279803 0.8109439347917
Ni 7.642772495795493 4.272860058856787 9.934533686524125 0.33011087685603147 1.1240605910825803 -0.41642023887723767
Ni 2.8738780283978422 5.3902595804271645 8.560669301471984 0.0638965415436448 -1.5764600762679044 0.2461458466972858
Ni 0.3376635614819472 6.233590733093361 5.627364266837775 0.02046212450909379 0.12020652898928331 -0.4109677004030987
Ni 8.007976254057422 8.638207500434484 4.825811548540089 -0.1706322897400029 -0.30859562849207495 -1.2411015778596883
Ni 5.4756650931505515 5.731826447918136 12.169732809333572 0.35414220677362235 -1.362092807533796 -0.2697858547137289
Ni 5.503514316984972 7.728821814882291 5.278116789431307 1.007945201443535 1.1376653263502083 -0.26174421535617504
Ni 4.420917127973855 0.8261295663592234 8.36910379831558 0.9782440748346765 -1.2594206878838505 -0.003550950576051949
Ni 6.3945607184137065 8.691698612000199 2.410758680048068 -1.589042026697973 0.15838124028679176 1.1515001753507719
Ni 6.80786600925622 5.515158014928953 5.250319989829336 0.521722854171495 0.8864747181401637 -1.3103490993026015
Ni 0.6830058934326384 1.145818973898104 4.759380848793184 0.9137633786527876 -0.2831859301697187 0.554161948536807
Ni 7.42946105312981 4.002783289405755 1.1990470445781958 0.6904468711451915 -0.686750910350843 -0.648163279885632
Ni 5.303446890938035 5.589517649902955 9.424749413507548 0.07947614114945667 2.258697929239742 -1.0776241539969118
Ni 7.802831954973299 7.155521445498311 1.4575794462098866 1.3193631298757538 -2.216341318650402 -0.5102112539874697
Ni 5.398481907411303 7.102333842646777 7.5149990060193845 -0.8887956529638564 0.14876222913978895 1.2398864745056646
Ni 9.016664472548923 2.7869089859347413 2.8373135058495866 -0.02227809467191002 0.611083087203883 -1.0809858713802931
Ni 6.1187080861595 1.2431624960458894 13.057665947133524 0.05413586261245515 -0.5287964731888248 -0.6277217242018286
P 3.6860213613736432 7.235988043690958 8.939679027335579 0.45211486406536977 1.4995509245146756 1.5649831859765562
P 0.169939127686041 8.069027491776337 10.752859400035428 1.1827179957144727 0.5194127179810797 -0.8450565602046931
P 8.118021156031935 1.9357417901024532 13.399362495620556 -0.0972568621716454 0.5234231246920534 1.4844148402041855
P 5.984713587466086 3.4871311812483734 5.347912757012099 -0.7265569866041874 1.273456597151626 0.4814192694564419
P 1.1297973926829261 5.168422302063163 9.942771648805662 -1.027717756084772 0.7106248887549632 -0.5166079015424329
P 7.986004062597571 2.6346763726892632 8.421279705453184 -0.5407199640992881 -0.46210745650170737 -0.6962056280058397
P 2.061992217967405 2.0445726572202485 12.228611660437661 0.2209356659802453 -1.397521323544735 0.06177898098000974
P 5.5785637444912 4.03914915170473 10.647069138399686 -0.4597860074573823 -2.3301288314872193 1.5289455756267087
Ni 6.934236001160091 3.492401196194583 12.270637500394397 -0.01939434536621176 1.022173429227775 0.2721548691665377
Ni 0.40451917342870325 7.4290011914416585 3.052367824313361 0.2624805793015673 1.3829261993393795 -0.16838283158419387
Ni 7.142764882269005 8.96664991534563 8.895216840155019 -1.9522481434460763 -0.7996935586888615 -0.4080302150413296
Ni 6.252012792320686 4.0865057083505105 3.223888876206641 0.2714017930505971 0.3017752631361319 0.2044644077980995
Ni 2.593822260313936 4.587267495045566 6.215223857268613 -0.3991059159685062 0.791282966027663 0.39609284017379526
Ni 2.2553824523023898 6.556459624344116 11.289889558351568 -1.2779832813773861 -1.1086936217082066 -0.03914067475520355
Ni 1.8883944306904354 8.865765458199084 12.472714522018553 -1.4212202098235718 -0.23994511720321254 0.8000092901570673
Ni 0.6639712984366959 4.9814425396610025 7.7003306241312135 -0.6429305707317831 0.6912523977656224 0.665788192056247
Ni 6.2524818512426 1.7478239098564643 1.8984166563219964 1.7206238874037334 -0.018119335308530087 0.20220492233996143
Ni 0.4045559623637553 7.4793008628916064 8.272924645962194 0.029440159637988007 -0.15909754962752598 1.6860610618271994
Ni 4.384100601220492 2.4448178761192767 2.992398181284977 -0.31146395117880554 0.4105121009229188 1.29537448027064
Ni 4.3009392135352815 9.274950388315766 3.6055501645641153 -0.24158008170347428 -0.3259055805254323 -1.007143788588162
Ni 8.230135435603128 0.1579045473071316 1.2320917857653442 1.1396504751010372 1.1923164380361853 -0.32954060617485825
Ni 2.026702432018704 0.784211334037515 2.657662099309798 0.05730423303810776 -1.3224543672065676 0.21778863571083137
Ni 8.2804535015206 0.885920783052605 6.962919414096817 -0.2057836408301553 -0.07222845844810788 -0.12232666065607964
Ni 7.356186691739844 4.70953552069113 7.3874821190652655 1.2565035142370553 -0.610437226089768 0.7488543645498071
Ni 2.07818854662408 5.618810839438168 3.901277099256828 -0.8260874753013581 -0.7074485479095106 -0.1775542136708168
Ni 0.8022645841909436 2.618369677227432 7.19510909878447 0.4694412711589593 -0.8429084035134387 -1.286374847875191
Ni 5.155693330535146 4.757995745388474 6.9052923065078735 -1.816827111499884 0.2895815492834174 -0.005639457673964481
Ni 8.782309759033454 2.1201555242847325 11.462150987562772 1.7167109255025725 1.2565112275465393 -0.6863004530769857
Ni 2.0394038118454323 3.767913530799558 0.08704997812021524 -1.0335125083896781 -1.7036106406751887 1.3260099457683099
Ni 3.7539153410122443 7.053524123066438 0.027746214816273488 0.24814925028055973 0.017656793849814754 -0.40426534868225855
Ni 2.6338210299493023 7.314845125975077 7.039849675907583 -0.13449286370496838 -0.06785424063981217 -0.9694537302365562
Ni 8.57965791029911 7.546146357881223 12.64407462232098 2.310936574829485 -0.6492202603952367 0.43376310103105936
P 5.135468613490269 3.4616640409585764 1.275757492502026 0.013323713692099634 1.682747424072934 -0.7304013000509422
P 5.417051122378837 9.466160878248914 10.545478333700139 -0.3382083091521853 -0.9835053232336158 0.4539274917940763
P 2.919882591680459 1.8134737644568886 4.424495771631045 -0.468640886744851 -1.2031577516260632 1.0041602804798062
P 3.3220960186047743 5.079117162224256 12.709360266464389 1.036303440871254 1.9243699289785698 -0.8618504918335802
P 1.0815946905309475 4.851458034888266 2.020077664539202 0.19709948279259606 0.14501124673778895 -0.9108330923798702
P 6.130066669856827 -0.04698682784850769 6.844071839687719 -0.28493608009160604 1.0010808702235339 -0.23262981448872191
P 1.1881446436755139 8.348365875626728 1.0813316496453251 -0.9385868654543706 0.5446324117798168 -0.063097185570801
P 3.6527181779177544 6.562805715640598 5.208752172113999 -0.818597594682216 -0.22905958063896034 2.3367481365759497
Ni 6.0841632761456035 1.4664621345782096 4.987142065423945 -1.7521456121610988 -3.2259363969925343 -0.7080918379204645
Ni 6.892094276057942 7.155475459329496 10.619891312629967 0.04999587230215261 -0.21383093661466399 0.28417606199712997
Ni 7.626364630762268 7.42477046391067 6.786040973536578 0.21120095519098467 -0.6763387138785837 0.5703863808154693
Ni 2.0884434622698453 0.4292992803564034 7.766128554195222 -1.5851321501206055 -1.0159382469513407 -0.50922832124891
Ni 0.9496971611355026 1.601633879193289 0.7988763232726476 0.2872503300470795 0.14467931731966696 -1.3161279107679076
Ni 2.2844273165260014 8.004426121824896 4.394719727323273 -0.6499766789452871 0.8076369819056542 1.1812604373323399
Ni 3.637331205832225 1.4949367703085141 0.8409086012930174 -0.4540426772157019 0.3570303269546948 1.7940329964235036
Ni 6.521114654992838 1.9810473636190813 10.022474876595975 0.41091782100176966 0.8344322477216274 0.18706703825725848
Ni 4.043407470937007 0.4280401790542462 12.3982481991329 0.2464924314034271 -0.4622750924278232 -1.3916419819458228
Ni 2.768054656720554 7.194425744315878 2.0190006684655524 -0.824254278747361 1.058219781328371 1.2306634132455
Ni 3.9750352351427294 2.607581322023411 6.251057199732708 -0.6915280200245123 0.7583067682119585 0.027107397739753313
Ni -0.06606189067300756 0.653242725252135 9.501140717419803 1.5106262084922306 0.54408296703425 -0.628024343043912
Ni 2.2802793640988805 8.710562138448148 10.178125181907793 -0.33289486735907187 -1.3394925536357771 -1.6201917128279
Ni 6.368992408552516 7.84833067039895 13.007105993968084 -1.0036530018260843 0.00857797147699813 -0.19939444947435983
Ni 6.056562377622785 2.2527428462124037 7.380307357006735 1.5373309714769263 0.1509425246205594 -0.39734728140618664
Ni 1.30803978301022 5.985127462985423 0.0733819690249938 -0.17300156130312785 1.4606547616701102 1.3458519201949015
Ni 8.702477769970457 5.337127160978207 3.3461826541067423 -1.2318564051123366 -0.7211671830471837 0.3760078964984621
Ni 3.4695552675272454 4.919407197929444 1.9145292901514281 0.994184657324333 -0.1531107359164718 -0.547809781066534
Ni 0.5716264728391109 3.116013601676824 9.397463980102803 1.5223671510782426 -0.022381453018993712 1.6158254654394042
Ni 4.679534144156165 6.624611126528082 3.4602513458525763 0.34367678846592425 0.20365296764039767 -3.34614009776834
Ni 0.04162024194778654 4.73262977467007 11.911266627784975 -0.1569995294479167 -0.16580581488563703 -0.5018783086417421
Ni 4.303670791962897 7.611492703767468 11.297575686607324 1.0444643794154915 0.3469423465910734 -2.3515268375470213
Ni 7.700632293398641 0.1356417232603696 11.42000466384374 -1.4046023987612326 0.20428134525301594 -0.06007305403249654
Ni 3.756784877946306 0.3386550232816006 5.872464108558577 0.17498902404680183 -0.9945060452194936 0.744249518787944
P 6.823096628367779 6.83815250003784 3.3196642699978316 0.7543984342964879 -1.8174896847845474 1.7597686759239952
P 7.599573088810597 6.392509735284553 8.752461976302332 -0.20367790734106211 0.06087909487355967 -0.33415573634936646
P 4.8893598352256635 8.776313162619967 0.7468705649596609 -0.4172059680033267 0.8607767991534272 1.8020244992694125
P 0.49527103813853335 8.376582988811668 6.337692382610212 1.0236176178734695 0.6872718158513196 -1.079971571183166
P 7.6132401781824415 5.686668030141717 13.196436569320072 -0.6057207944507053 -0.5614024321493041 -0.525135736507786
P 0.6313174396844757 3.9737016362470916 5.529112057994204 -0.7853288053267572 0.8163229397154264 -0.7498789491595795
P 7.90098483369223 1.1119639564164336 3.4333292031814695 -0.47978713316965754 -1.0573533195630178 -0.46317600697553785
P 2.7025059716915227 2.3140240147753945 8.405624174141774 -0.5463828188120203 0.6849827627068268 0.1775192466678233
