# total energy = -381178.42519950983 ev
CRYSTAL
PRIMVEC
9.11844925599521 0.00000000000000 0.00000000000000

0.00000000000000 9.11844925599521 0.00000000000000

0.00000000000000 0.00000000000000 13.34577219313373

PRIMCOORD
 96 1
Ni 6.79594381264272 5.28612920930424 10.535659698528397 -0.5294549327084301 0.9227565832903335 1.2834103659302283
Ni 2.50981670457732 2.957377553093805 11.323140836742988 0.5344840104919054 -1.0324398441507896 -0.355297146313672
Ni 8.390304678178802 8.484452667522012 0.7870872212034891 0.10761198015372436 -0.048368878221690885 -0.1529559555061624
Ni 6.905091651135525 2.8761777618007036 10.2783935927917 0.3330823007795296 -1.1108590047906417 -0.9054607723243633
Ni 3.5758363789730434 8.580424346731432 2.2674063764907855 -0.3474347128464597 -0.003342434109671663 -0.2221353427153013
Ni 8.856968678043861 7.505204156960668 6.682788415668914 -0.8918534659535737 0.9610205118675386 0.1640294397115046
Ni 7.537291980156673 6.099695495520198 2.2115011636420485 -0.0927810857884789 0.37478096606989647 0.31095255876002575
Ni 2.835345345696211 6.034425635208461 1.6695962791217362 0.48690703204389046 -0.09904763552348103 -1.092140859555848
Ni 1.3592325310853333 6.281572085877548 8.40404618132071 1.1441617327078295 0.6004433481018498 -0.8779731084270557
Ni 4.724022400290961 3.923103403297185 10.585319685430292 -0.4851113735960484 0.9087710676445188 0.4640987759001233
Ni 5.371742330073575 4.2354011744367055 3.718799074965156 1.3163950483863651 0.8953077430507613 2.653367663813766
Ni 5.159993699707667 1.9663480059967309 2.997940974943032 -0.021377951455143825 -0.8242995301629998 0.04707072823555765
Ni 5.243026299316313 8.303980318361644 6.102020700099619 0.3490676204641923 -0.07825075338278781 -0.2569506506222736
Ni 7.753718375029415 1.114976628854192 2.218948201210726 -0.9320598629691303 1.2693088935318397 0.626094987231683
Ni 7.072068695285921 8.925521180114782 7.818260583084533 -1.5068310031158565 -0.9614663411557054 -1.1093433394770638
Ni 3.939689862630386 4.704235365242558 13.119347696671447 1.188678841283598 0.08473301867302181 0.7708172419741435
Ni 3.670121145056218 6.971601620556287 7.5411892054007685 -0.0864101492651286 0.7210381136684872 -0.878905390433338
Ni 8.843427780787236 0.9108391681449216 7.275287928147554 2.5146684753369337 -1.1378249918565242 -0.3465271134305258
Ni 8.001411932658366 1.8247749616826716 -0.07173210535266054 -0.8244003174069221 -0.45249127356818203 -0.5361374869349284
Ni 1.697043723453164 0.7979472943567832 10.792605746693576 -0.1939290554844144 0.4404479692504027 0.35945024925009705
Ni 6.52420490412776 8.743434865422817 12.533468178407157 0.784456687134449 0.8230193778989955 -0.8071322743550939
Ni 4.660412097757477 5.051338257478741 8.302472126842288 0.949518938985842 -1.737724294529446 -0.7867166868132193
Ni 3.3110730841963454 5.899481703558083 9.865448201625789 0.5156655922338216 1.135471146912367 1.6041017492445728
Ni 4.643497374248358 7.592923639525478 0.20007427968734945 0.23216753014032274 -0.668377550049978 0.2180660577419341
P 8.30283139374593 0.7708636761536647 11.277390840914254 0.2850651494703026 -0.029253240438162523 -0.10839462395601977
Ni 8.205282222802236 4.419840049056084 0.4747055603301222 0.3629981145023555 -0.9589697999860969 1.4960722219374558
P 8.964165168379818 6.385230617873054 4.291012773216983 -0.588165302065445 0.35186163826956174 1.2631400457169666
Ni 9.35972350036126 4.532872346963921 9.695116479966494 -0.6220616977025738 -0.349022883269186 -0.5115662253534673
P 4.786246698526123 2.7361548538729252 0.4293212143195635 -0.2964957599047474 0.47910039151527817 0.10262352580019746
P 4.75846278341438 5.589800927376577 5.43430492277892 0.16453080482795535 0.5050405084198075 0.0723457007522625
P 8.618794781516538 5.584895201636465 11.857958862443201 0.3858853035131742 -0.5923973378689217 -0.3708242954149936
Ni 5.517655756269219 1.604181435465635 6.159701275033113 0.6932038650650385 -1.5839831241178268 -0.050100773311133065
Ni 2.0368700931231594 1.4679973947062332 8.349221504717704 -0.6683253566558038 -1.8343414662345634 0.22179107200200512
Ni 4.599683225212608 9.287596566152567 8.220168091335193 -0.23470829428430545 0.008569486836565887 -0.35522772652831724
Ni 8.394955087337644 8.27095329488454 3.211499617501155 -0.1525638622740663 -0.9722428629459191 1.3032009182935944
Ni 2.622575449005225 3.960735243686475 9.01265343454267 -0.34880819615521863 -0.07092182382154237 1.9330754271723674
Ni 8.94208940254932 2.307049746802508 4.214114154473344 0.9140893945336387 -1.7358777282390105 0.441230355942382
Ni 0.42289635492089767 6.340814651181454 0.3276906254552858 0.9290763548607741 0.16900658121112183 0.9828700036424621
Ni 8.34199513362284 2.838555039860745 6.3896220630708935 -1.1127158554937222 0.8698504793199213 1.006031786470906
Ni 3.141488163537266 0.7247006145702334 12.768808060882385 1.4899329418089373 -0.8761525102785491 -0.5167153736545745
Ni 7.410135204235021 0.19921167438063103 5.390223603177771 0.4023059109630427 0.20696737672561127 -0.44548707433620693
Ni 7.039141974751458 4.486787704044737 8.50029597323473 0.5699469792852054 -0.6608326478231845 -0.936284442573439
Ni 0.7318896000228421 9.259147004239654 5.026591697839173 0.5586204985287928 -1.011245983681994 -0.2708472060987077
Ni 3.1528862252010925 0.5718133983261935 6.251239564177772 0.5563903236466934 -1.8626739946306696 0.5145404774904428
Ni 0.7922582938191339 8.324515066255195 12.47127761843452 -0.21188975372789318 1.813504217774238 -1.1206407667677538
Ni 6.402920409575313 3.7303758582358717 12.507377559336192 -0.40453197208008396 0.5743235110863464 -0.09521823447506181
Ni 6.972176082864144 6.3649511865607735 13.040660950013985 -1.1346525076658136 -0.05735154133627542 0.42279940293070406
Ni 0.1602704246674003 8.62542389418022 9.484373614561804 0.022015842149458856 0.5909693471731435 -0.8333940362651001
Ni 4.070475781385799 1.8112978935713633 9.752622892517767 -0.2932705680992304 -0.23817491267666724 1.0834461599953276
Ni 1.5364769491825043 2.0945351666927916 5.939095894831946 0.03100930389732079 1.594412289870951 0.558112962764755
Ni 2.994453168073901 4.733523824493927 6.414832751781412 0.2911257538420857 -0.20455233952621546 1.26958117335662
Ni 0.567617087944039 5.112860435115412 2.7542203256876245 0.23157694774417537 -0.9880273794736856 0.13936433286465674
Ni 5.360553992744363 1.7647482097362948 11.792644321729739 -0.6556421047611805 -0.7937545674966072 0.6914969096762607
Ni 0.8789182125716751 4.307099541526841 5.325616654132401 0.32044198630769977 0.6765063498046995 -1.5040999773379387
Ni 2.049544737693335 2.9123871240943484 3.4107523249037754 -1.8736374356207086 -0.23060327097699637 1.2187746322277138
Ni 2.155218446991005 5.0283232913671405 11.854208444233334 -1.2255217211435603 0.34875703120230905 0.20003156883772646
P 6.331367937674474 1.8640663598502152 8.174032385099755 -0.09431346327260531 0.9633021088128636 0.7640339005037229
Ni 5.963566165456783 3.7829163632814473 6.514858493563422 -1.2381445521138936 1.0229049080771608 0.19643048175002945
P 4.67470070785925 6.309356000989292 11.547523078657083 0.9796111303855323 -1.9276956509176928 0.8399439215684761
Ni 1.6135187275806417 7.213021685045468 3.0973402792559988 -0.6938466408553599 0.652815691055979 1.9039360866042498
P 2.9999242376725377 0.8738419718290732 4.1218017089804775 -0.007222743000684335 0.16661931192586787 -0.8284621461811217
P 0.27017418260974996 2.6344294331356046 1.6081789636523722 -0.5224743876255389 -0.04226276532395302 0.6213811266957815
P 1.7755535721936024 8.316326698755901 7.583121306494587 -0.44535183430992326 0.9127686188396861 -0.6431915377026536
Ni 6.403093660112603 0.34884725159321445 9.923502632981856 0.7876281428838952 0.8496598633046593 1.3674327316894708
Ni 5.095353012399773 6.280687596292435 2.476682083398109 -0.4755620393447164 1.5605009818354865 0.03640244988843408
Ni 7.514112881957114 4.630175319775677 5.067870006115954 0.894983012721491 1.1324809539357916 -0.49434986147518084
Ni 3.7420748287276235 3.7484850986073597 2.354594253459595 0.04989611349949471 2.0280702327827136 -2.4736447246264044
Ni 6.443725470331812 6.786506217585071 4.590345021252668 0.7630291133882924 -0.6948989933792742 0.159421508625848
Ni 1.2643550657956395 1.9281325848502526 -0.2991918239159866 -0.8653700749510645 -0.20380132029280387 0.5347876577752532
Ni 6.397713775007277 6.423874606138092 7.0605812728186494 0.7526164026954005 -0.7771357279930035 -0.8824378290666285
Ni 2.968246744696431 1.7330707167601875 1.6305328421874692 1.5604320762707642 0.2792770820336158 -1.9058741841672273
Ni 7.730767238063133 3.5754898778984634 2.9182129013719638 -0.7100448478817771 1.3891806648895237 -2.4670827551381707
Ni 3.523770033292683 7.7452382171515275 4.507267741242301 0.8882163834216187 -0.12019495902505753 0.2867497362615771
Ni 2.678599201695266 8.139738809010566 9.53913081463976 0.09525731524311337 0.8974155334223836 0.10432019677633002
Ni 5.514336640712712 7.137010291421739 9.063714927106748 0.4554393004529124 0.34153377398099244 1.0581238791804553
Ni 2.786178666903128 7.391260014119725 12.110247206690074 0.3933024219128517 -0.2743639610027146 -0.15459092000642408
Ni 7.8506292545199345 7.433259591738594 11.00804643719363 -0.018308825611516855 1.056507940843587 0.01799052304014966
Ni 1.2178600926565577 0.7408548594051416 2.5632024898758847 -1.7500722745718376 0.5850157006928699 1.879962349397472
Ni 8.999079710868454 5.204409666399268 7.1727117560876446 -2.158189907120651 -0.6563057064871085 0.13843076530679385
Ni 1.0434515123013466 6.4918526459011545 10.581448903689255 -0.602519256794272 1.8178475823445985 1.2050061176887117
Ni 2.8509652494003195 5.1469816725122435 4.1222959289342205 0.7672020138190594 0.7958114500256358 -0.6667788381042903
Ni 0.02973070404392562 2.2079139656752087 9.182852026841731 -0.7963212997825189 0.15401782111177345 1.2383643814341834
Ni 1.5324648314768372 4.2138360417687455 0.8566491356153569 1.1718165183106204 -1.0402328578326472 -1.0903775970078382
Ni 3.8399796191952293 2.766756369827968 5.166748646972118 -0.7168765260916299 0.4016561931941857 -1.382037368976523
Ni 1.8308113751398343 6.848903766357525 5.888635308078785 -0.484208659276121 -0.4221283450056085 -0.8406111228388298
Ni 5.929454046509282 4.367609571287765 1.4953135333672938 0.2668797368105275 -0.44686775673381746 -1.5254607024019018
Ni 5.362724183685155 0.7421761227132125 0.8853704273183342 -0.37597087261293954 0.03491738070247535 0.5129170829544069
Ni -0.2216120570073164 3.488290146945523 11.751446255807073 0.5122460250293114 -0.9895093633358506 -0.5843343583551291
P 6.496949859077217 8.046493546151133 1.520711150289099 -1.2481394585430763 -0.7642691564429804 0.9400955887894132
Ni 3.7387283578231236 2.665623648297166 7.629524183295425 2.6749212216148255 -0.10963980921703054 -1.8914202135254266
P 1.262330770044144 3.6162675833069695 7.568053980819942 -1.5708982659094106 -0.9434398226712977 -0.8826414604370024
Ni 4.6971320932136615 8.268053627997261 10.894500770588456 -0.7456898507788964 1.536077815796116 0.8438010905310372
P 1.4467514077648602 8.303506158996429 1.3026689661948934 0.8018681977426771 -1.667757121311689 -2.7206953425261466
P 7.747472237237637 7.173192298367392 8.855987532895838 -0.1232687128543748 -1.4617821904063342 -0.9443317383579479
P 6.741114576815049 2.3933649881703354 4.39982049354974 -0.3418695600538564 -0.6498794912457904 1.1864689781164728
Ni 5.890709755301602 8.783984609598045 3.6589300721922062 -0.7611280397108375 0.4926876432814095 -1.4331894663703058
