# total energy = -340867.76529553015 ev
CRYSTAL
PRIMVEC
9.25554370453963 0.00000000000000 0.00000000000000
0.00000000000000 9.25554370453963 0.00000000000000
0.00000000000000 0.00000000000000 13.54642377628552
PRIMCOORD
 96 1
Ni 1.6939773928354238 0.4720817881620816 8.239205492733241 -0.6455872916283397 -0.6361989084349043 -2.869786415760264
Ni 1.4999904503394665 0.9088546022830433 10.299359964912506 0.5663374075570763 0.4456889059343679 2.2592406891170898
Ni 0.965464284824578 5.306480926628531 11.909934727015294 -0.13291112104014527 -0.4030299336132607 1.2834512464704928
Ni 5.653054764204804 1.3108626683383022 8.32511730138995 -0.9750733904161786 -0.39701560909838074 0.11788482283464213
Ni 8.27852859612025 3.627691881168262 11.78036266714708 0.6784225929908059 0.2297262676886818 -0.7761509954822311
Ni 3.040797848835198 0.6357688569212666 3.5948550628760167 1.253625935578944 0.1915502708395927 -0.15102222881855926
Ni 8.610793362982333 0.2591802163572476 1.059819000535289 -0.5865763603117705 -1.360756862331192 -0.3733133803854345
Ni 6.54445618754493 5.862674320178298 2.443300665525306 0.12129307718524271 0.2527414976369325 0.15467319530758522
Ni 6.787386445653208 8.29594752955111 11.531718036296924 -0.018591389848942177 1.3217025766422077 -0.11378931260902984
Ni 4.523915442827982 2.2096962933495115 0.14294076733236655 0.7415958832151809 0.047397772557673204 0.6582921407895178
Ni 6.264281621187035 3.5033343946767457 1.7180112634198628 -0.9556615615484702 -0.38407781799079016 -0.6824674524841408
Ni 3.3096899073013732 3.3009063962355465 4.112829539414069 -1.25518556675658 0.3970927421932194 -0.05602716609789706
Ni 1.2939065120974227 7.630177752957798 2.5964021688408803 -1.048812114861226 -0.08388172641632005 -0.2541455770733107
Ni 4.674132918695599 7.547460958020713 2.843042048904041 0.1783419996794348 -0.09943535788020294 -0.7759861877695926
Ni 4.380324936320883 5.141704480364132 1.137833053667794 1.2649197633252085 0.7229258176095034 1.2905847721914805
Ni 3.5300458940824107 1.879014224477162 11.492880848959395 -0.9103612949497741 1.4275633784327801 0.1190338488374208
Ni 1.5732943572323517 5.212231724117135 3.6980108751857736 -0.16593848380875936 -0.58912663753745 -0.35478164012983415
Ni 4.188762946300423 4.245712307299402 10.887802449723244 0.4829292783430651 0.05435132105737091 0.2327429430278185
Ni 6.808322485727918 4.958777912708705 6.628440991982561 0.5164436080504267 -1.1268718352791303 0.521930856417243
Ni 0.3304516058317393 4.86263132371839 9.30113753391798 -0.8053227319501808 1.377278514135299 0.7151191770808909
Ni 8.503975131991071 5.442500398307552 5.134717470349809 0.3205188622922222 -0.6831284831069073 0.010121661815034181
Ni 1.1256592369081715 3.1868966077119905 7.709188628157521 0.0859262676501746 -0.19326751064101555 -0.5299071897545002
Ni 6.569251789384076 0.9540336882320637 6.096622073029058 2.4258810840888803 -0.9593189557953995 2.1311442158567684
Ni 4.4269080882643035 0.16044207510304292 10.22676410712029 3.082023782635563 1.1497957910651553 0.35784356688460955
P 7.121391254749616 7.5029695589760035 5.3845273741643345 -1.6847680540473888 0.2221818796825206 0.7877186457151724
P 3.609902725985417 0.9444449448556712 6.840009765480253 -0.31726667390351165 0.7313695775014823 -0.3479268219915298
P 4.62846606558834 1.6497914267361014 2.606819283387338 -0.924915281504549 1.9934575278048507 0.044562617101723254
P 1.3847774411219615 8.985809486654798 4.333216995044024 -3.132628492166308 -0.820646763901761 0.898682315949949
P 1.1013264122590054 3.841624520552372 5.447437305370261 1.7048080034173994 0.1088265692871158 -0.04723193640377026
P 8.861063267323699 1.4351923881984197 7.854541390204066 0.08217451391722622 -0.3675564232969993 -0.9824907659261723
P 7.439448761879302 1.8838548738843561 3.9983079193183944 -0.8239873982392197 -2.363975347723019 0.33498543133951336
P 5.7991905452567964 2.8238108799972177 6.616331038475156 0.06146376373243608 1.8951161743197749 1.0168242491007198
Ni 8.24768912417996 7.910259763877698 3.5178711517684076 -0.19885400358985755 -0.732984487397086 -0.7914434028649272
Ni 2.815971434398951 2.981284702203727 1.8864205106256071 0.714991136143459 0.4993773965967593 -0.35137955642682067
Ni 7.654880799358948 3.8692060410752 3.529845974336339 -0.5733472632160062 -0.3348478773203846 0.20847687139160223
Ni 1.5408166540395318 1.3212844106566595 5.939375011645639 0.19733628139375048 1.8193077118298926 -0.037507510027154765
Ni 7.107609750032002 4.7578400568192425 9.968298418744373 3.0457946251001995 0.011997281571192241 0.5142298882285595
Ni 8.243116885542955 6.279655079438181 11.4409572482436 -0.6448144180180573 -0.5177906089966243 0.6934200948409025
Ni 8.013218433104523 4.735737818225782 0.2635377263781024 0.1633172441358284 0.22124702657307704 1.0003218805703225
Ni 5.84358013331971 6.509701620577407 10.338888541371867 -2.008734251458263 0.5970649185479201 0.34366958937707265
Ni 3.2575164069029903 2.0483999315537647 8.856503060893631 0.9872375365825384 -0.1105792903121644 0.1038352867201115
Ni 4.9881827753600545 1.6694594573102657 4.915956213765444 -4.211906122606243 2.611289246586477 -0.9256434179198252
Ni 8.782863177760822 0.7116994871444804 11.69796056069918 0.029470241544975052 1.4404032105099256 1.7278638567955984
Ni -0.09120320304694483 7.549089933729444 5.781816963990554 1.963616018963386 0.6576730191482802 -0.08471553517152507
Ni 6.875887955465048 1.2555052608728543 10.509288656048907 -1.195864817509076 0.48527849530153205 0.14355548812786892
Ni 1.8547276775469939 3.6659172770606374 10.49865496177754 0.16562378078181797 -1.153190675679317 0.9867091748828942
Ni 9.036520611132843 2.5077248036968482 9.869409412126236 -0.1492096010898527 -0.06428889188605702 -0.573179113069258
Ni 0.8794543674035925 7.302799913221909 8.110203574363082 -0.7127676461295789 0.34627951619609393 0.6716798749503334
Ni 0.9037908942702785 7.671244600796653 10.955358663916574 -0.7131409703085976 -0.5840175984456587 -0.3334258001618774
Ni 0.8466480924058865 3.3838545797676223 0.46468845977495565 -0.34023151022980114 -0.5653842996151875 -0.686302767069831
Ni 8.648889181261515 0.48645749879163075 5.19635383872891 0.8185708552093386 0.11702453171687588 -1.0193387879924574
Ni 4.976585578979148 8.337690032087336 0.5322705894909241 -0.8982627119140272 -0.15001487059996746 -1.0212740573419572
Ni 2.8536877753823484 7.177896349646216 4.187511596778715 1.0653702763302233 -0.1647056398429228 1.53811772904428
Ni 1.0172583079271773 2.4264426180487018 3.720267681360688 -0.6601682747663082 -0.1632354830552995 -0.4206831279186497
Ni 1.4871530110894116 9.402984612334473 13.018696117608524 -1.0145182266753623 -0.34861819163159957 1.231363267526002
Ni 6.237931087989554 0.997118244619233 1.532452419107827 1.0175801534301379 -0.7386774240168053 -0.05041161968333254
P 1.7698913630797986 5.352055224297795 1.1341530494530705 0.40751342330591106 -0.7745995918347112 -0.1350371662442126
P 6.726114745699812 8.043993116238216 1.9397666884234006 -0.12737270772041934 0.6919820768427953 -0.4429954182626048
P 2.985644063333342 4.120938321336904 8.783880362024398 -0.4103606629467191 0.4113325399416851 -0.7137258962777902
P 2.8803344859814164 8.394833759506108 1.4674572138838486 0.8611254407420975 0.8881806450876768 -0.8722380057154914
P 5.9379589134443 3.1502446542655482 10.249725260178357 -0.17812191324882873 -2.5207686746974005 1.9936465038872055
P 9.0257564136939 5.359311570636686 7.337407317043018 -0.5862516299825 0.6654452068945313 0.11369521023332678
P 3.791820439366688 6.739405706596047 6.510140333353508 -0.2741320474975666 -0.8825003068734479 -0.017554206833679444
P 5.000881381453116 0.5183021227885577 12.322138700120199 0.7748726429904397 -0.6056881414405568 0.49178698584401115
Ni 3.169820129401716 4.438394218119615 6.536041047122327 0.48227313281630496 -0.4755967492373938 0.2983122442881959
Ni 8.442657154318677 2.8716527858973855 5.70094479893273 -0.14553292356921388 0.13701305902366082 1.4080276223926975
Ni 1.5338009518394298 1.027013651091963 1.6471230534586747 0.24195674831660263 -0.18134427684086835 0.7318899687813266
Ni 5.963245059104826 9.242650827093886 4.085926450251751 3.3669470072113623 -1.950712937748473 -3.7143961182355256
Ni 4.202637006456032 8.660810321675408 8.293690102418386 -0.9746113631780956 -2.2640501946905913 -3.1800028676852135
Ni 2.6224842912681723 6.95398623404613 13.065864219920078 -0.19609520989779775 -0.4796644915488642 1.9565385432913143
Ni 6.984168562376647 6.956661086204216 -0.028799550086856324 -0.33198469683997667 -0.20340022819964323 0.3686427143826425
Ni 3.1073544642981705 4.206598379202264 13.195165092354966 -1.503392923968585 -1.1197269967042327 -1.939958527445446
Ni 6.049219805459372 6.902904887816099 7.482448167263515 -1.4520454227345443 -0.2720337702076412 -1.1821549241221512
Ni 4.695911213256073 8.557712819291588 5.738319610349922 -0.13504359400211582 -0.5355942128369486 0.7460832295625731
Ni 7.538640424779688 2.3498900152821545 13.521160153847195 0.43704614265770536 -0.855885532499397 0.4114749790568204
Ni 7.907344267580822 6.843771218480412 9.187509999353349 0.8257162080048681 0.3536143592946104 -0.8601975296111894
Ni 7.84359208188913 8.61228350553407 7.3220042410517125 0.18889149306050693 0.636128203097969 0.4966553696799059
Ni 9.276831550345833 6.689638647585562 0.8422841035043719 0.07101129821155512 0.24121909881962972 -0.25308756812244154
Ni 2.3183378664692955 8.434891753070806 6.207906103903629 0.2582359450926004 -0.7883719630284551 0.957656480491312
Ni 1.603152741529883 6.13070561307111 6.253977424274932 0.31607753869141697 -1.4261906664549695 -0.7519386599020856
Ni 7.227432020061711 2.9434110169757366 8.260677428793949 1.5189393563436162 0.4757674704873032 -0.25358301970162134
Ni 3.844882471969833 6.024646336671417 8.675739513824173 -0.4446458093818342 2.3435584746295635 -1.1587236896824045
Ni 8.644798230902088 0.03430844975638225 9.540367425615175 -0.1079030290315819 -1.1246655716564309 -1.117724107341591
Ni 2.9065924637409006 6.235996679335436 10.80412678044852 -0.013500605589596103 0.3461442761698103 0.21827585975989505
Ni 6.025988390522359 4.108970903204012 12.73963962094162 -0.9774218360436974 0.35241416833892214 -0.4340685480866202
Ni 5.136956386394934 4.107221605425886 5.057205067691243 1.3820617944565552 1.3253463440423818 -0.41787882570063517
Ni 2.9541659588708793 8.725376995221463 11.57604190999886 0.9936177290772693 -1.2025825958488836 0.6417483774982238
Ni 5.296512705956355 4.320404545762229 8.70314425346043 -1.1815859389925585 -0.41368021423825524 -3.061657303164069
P 2.408690485041056 8.085865196387637 9.464507137524839 0.998509509951932 -0.5680752161837894 0.512703167171388
P 8.605165992352172 2.310526187502427 1.96754997980106 0.2540990401060914 -0.07934887154297302 -0.8563964106975445
P 4.409535432552441 5.3670954829721556 3.287717246321107 -0.3304880576897921 -0.2802898395688463 0.9932595744069023
P 6.34580445097397 8.397582656014592 8.906990201211727 0.15805676706783747 1.3574565943133654 2.3898910391475163
P 1.411387129545831 2.144731631420072 12.101711445651906 -0.5271134290594471 0.9893131881646444 0.9605911376396037
P 8.869670923057333 8.083384710649343 12.630076195659395 -0.9876211451742023 -0.5507562652893676 1.2617040846013885
P 4.5240079982659775 5.8596014796368285 12.57276124068033 0.5178374030741598 0.3490899890616956 -1.304971894151088
P 8.741518663607978 5.510288001095872 2.981622529552413 0.800228605256725 2.71243670206178 -1.7720387515405995
