# total energy = -340888.23799977725 ev
CRYSTAL
PRIMVEC
9.07295684465268 0.00000000000000 0.00000000000000
0.00000000000000 9.07295684465268 0.00000000000000
0.00000000000000 0.00000000000000 13.27918945067971
PRIMCOORD
 96 1
Ni 6.613096916246166 1.752668473268375 11.305464254366226 -0.40341817019061493 0.18310111163097498 2.425684908917674
Ni 4.4893626465769625 0.2139457704193205 6.2228009874312455 1.0054458320604491 1.0850610698909313 -0.47491566400996915
Ni 3.0974803094003023 1.590979306129171 4.821899223676217 -2.489113252575649 -0.5020634280693547 2.7536825960854445
Ni 3.466713368482118 4.3462004576824285 4.818354419366623 0.4465088307325019 0.18080023141194024 0.24067582472165003
Ni 5.197543234191766 4.143102314681975 2.8193442753261277 0.9103371265800578 2.2563271150147206 0.5514298943176245
Ni 7.127878351920042 6.123139090992179 2.539990650419223 1.349684149456798 -0.8295466374945519 1.1391395969028897
Ni 4.955993899320153 4.659453371921144 11.725643781733774 1.1229038517703176 1.1963489562343461 -0.26600016241905156
Ni 5.54692466330329 7.7629490518288975 12.387426174419385 -0.48020802275716007 0.21707721146610354 0.38902770579689777
Ni 1.8127314487726411 6.612616049523851 0.29464700126793036 -0.8372018400469646 0.2948507681021567 0.1441381001042163
Ni 2.9526668423272517 1.8006371970585646 0.5516757081195784 -1.1039093129456858 -0.3766912957187319 -0.13590928443652076
Ni 0.565087353193658 0.2711017704928365 4.990531924826511 0.6468188500425956 -0.7752696213185422 -0.17943420430234902
Ni 8.638017610958123 1.9281031703001714 1.4472328188022385 1.3185311208927615 1.4937885681096015 -0.07788771361641425
Ni 6.958549754965945 0.7538493167992032 4.958370106764952 -0.41684087135442405 -1.08228710669022 0.25266770697620355
Ni 0.8191310571841424 7.6291138627558714 2.670617641888275 1.0595842657760655 -0.5450589577942742 -0.720889503905765
Ni 7.591225194220249 4.0539060741710315 3.988603465984936 0.9045850545876293 -0.46299448709235097 -2.0199180359892246
Ni 7.274070908460864 3.7398456667571076 12.786876716872342 0.8044313304841629 0.02313504335556661 -1.0922269915117513
Ni 7.95098608616816 -0.17769658521808257 7.108098398310246 -0.01383099234582134 0.8299389878369642 0.3192019432530116
Ni 6.947172266856828 0.6475287771996272 0.40381735666900054 -1.6096777006704535 -0.678071123188658 -0.9657533985668336
Ni 2.005559004421005 6.60562079965772 9.072647636979093 1.2229526748648036 -0.6409382228921026 -1.113398997603676
Ni 8.996027422200244 4.952691342963121 1.330296012187928 0.21521290456385517 -0.8128565784333807 -0.013277433835196488
Ni 6.268587665056967 1.9616549653779323 7.139144242657753 1.528658383403593 0.3237833919761069 0.28124371884168337
Ni 3.025332155138984 4.324742914318744 0.152847570518523 -0.9678861286391202 -0.6356682327424149 0.24828269053463048
Ni 6.0069054385472915 5.69469591436643 4.937056823417962 -0.5760628623749562 -0.18794069911146344 -1.451888585441706
Ni 5.413906040362497 2.5068035882138595 9.532771764944089 -0.14771758992535852 1.6008359340091076 -2.0188106618576587
P 0.08501723650531372 5.57636640884881 12.319197537592787 0.29520352345588513 0.3075036809794769 0.3968243190231811
P 3.676389405325561 6.1888635916799295 12.663380162329092 2.679643052570527 1.871680311894338 0.6754195444984239
P 2.378348662656548 8.639206168328373 1.5157799164204082 0.5845716711769159 0.12321780501178135 -0.2487259487196361
P 6.5372016307336 7.745846527837124 5.914909283498492 -1.1563027389457377 0.29867528405456945 -0.6067548921421745
P 4.738297368466775 1.1712098764191432 12.643660997531363 1.215059645269972 0.26428163706604807 0.5751514063042805
P 4.0238292216337745 5.974097625945566 8.287635434686763 -0.6813675345517427 0.910320928630142 -1.0333854958935107
P 4.865926654934828 1.0069802813129916 3.9482750793053416 1.6845970756871635 -1.5434427408016194 -1.0538897864944494
P 0.29073111301602084 5.540519155643771 3.5356242916769824 -0.2590810667017151 -0.01917940114192826 -0.6895698678568769
Ni 1.8079227815494898 1.2241687265729801 2.812226540540161 -1.6138817114494723 -0.07501861959873532 -0.28337824868618294
Ni 2.004751511245797 6.466232960885508 4.5706173278040865 0.005589064052003278 0.0269076230241214 -0.010436107731659447
Ni 5.997859700393553 5.329772509871401 8.913191324563696 0.381042373598576 0.6161779852282872 2.1626816243434175
Ni 8.718730636650866 2.5508437216123054 10.420286606519953 0.45303403344552945 0.15803954067665688 -0.7614936505803724
Ni 2.239949776200041 5.605381725414165 6.816645985210752 1.740419581973422 -1.3203326928778745 0.7079445137093227
Ni 0.3737994783524046 9.148262568119593 9.317117556716994 0.39817569084475296 0.2217543052267987 -0.7464796936700435
Ni 1.265858964101999 1.0622708814222057 11.480841791768766 1.4875122481825866 0.2874418772325953 -1.3585169172570797
Ni 4.013803604121356 7.20273932033178 1.5472648918879164 0.5871826264372016 -1.502613365490083 -0.7804802189852041
Ni 5.29961400072092 7.9872234765252665 8.146344996826448 0.6773267888234658 -1.2705293962025022 0.15682546576389764
Ni 5.535483664495 2.7944979825136755 4.926340753875954 -0.8543832369222576 0.5798241291896014 0.023825384554371873
Ni 0.47985418031115373 7.245654407059147 6.609464104253431 0.8781929377473456 2.5123403414243897 0.12299977546370429
Ni 5.107049560826275 4.570021234527555 6.936610437584243 -0.11356742640621087 0.497987201117452 -1.2140785123036253
Ni 7.937086316006146 7.1081537433480975 8.912288565339727 -0.11842012651282185 0.45220742377917605 0.46634514873213884
Ni 4.663391035269913 0.350241545437476 10.528206708443005 -0.774693437100098 -0.4834512122848061 -0.3525774333896638
Ni 8.429366818258485 7.273453947383177 4.475193409591311 -1.4609746069033742 -0.2248712535892256 0.8165509965658324
Ni 7.272392411411274 5.949709517462867 6.849193403945866 0.6923528299186528 0.48848363250239096 1.2170183116582396
Ni 2.495108546608875 5.286167878410145 2.3531258421275663 -0.8486630466090287 -0.6643398896454946 0.520285093283704
Ni 2.433911451476507 5.401095025043461 11.23181724760441 -2.075106251125594 -0.7337653314271685 -0.25043650365283965
Ni 1.1608667054108557 3.4511623201415875 4.02695394803312 0.5340358672108931 0.12661088985373034 -0.839238153750703
Ni 3.695288374808248 2.647888069949712 3.023618273556997 -0.9441283640978901 0.11201833675153611 -2.578068279749818
Ni 1.3169669310227743 3.373552245751332 8.340048092827706 -0.5062823512467087 1.1637710222983249 -0.9151926549001465
Ni 3.9104716965657533 2.7793007794971127 7.42618810593889 -1.1853577473301649 -0.47666041461521774 -0.20519151577211114
Ni 4.143719275759662 7.05178346135293 5.839934903123944 0.44861662110412415 -1.6013198156240616 0.07134811272568357
Ni 0.6499131503057481 7.1524116277151375 10.665553131884632 -0.9175848092814067 1.5618215004191232 3.0441066958748153
P 0.33169369939164944 5.685142090619301 7.9411410205005355 -0.2168622672418201 -1.0258632193745365 0.4372767706112727
P 8.614346266080384 1.8282643511991221 8.134884944808405 -0.7198199249906699 -0.7302562898326456 0.17632805457319956
P 1.7630207172336871 3.363054834473622 10.67032006350547 0.6577411533820543 -0.678360886514935 -0.4565649294169234
P 4.155550411720019 6.025650167760557 3.564532547349444 0.07210581682731451 1.0973380874860714 0.6035739233110314
P 6.934597148420437 3.836781139610217 10.347981490102105 -0.3133290294120023 1.2440889426227864 0.8399922583079081
P 6.240270966182523 7.701516059813884 10.219930311132398 0.10991131771086234 -0.6263901498745986 0.307076106523755
P 2.4027276981822223 8.388629241217071 5.88026419709924 -0.7862106937110782 0.16055845044376865 -0.8129360255210646
P 6.813872382248267 3.942435724164172 1.5550331576925618 1.1939832842156468 -0.45518424701931287 0.4777251084343063
Ni 4.929754907604392 3.1540592694070404 0.5281567889198565 1.4910716833990707 -0.8766777866543998 0.1830640877454525
Ni 1.3275369259566823 1.2038997405795466 7.099864689810227 0.1916106917638829 0.4479710171003253 -0.7543575537562234
Ni 6.956707944689907 0.5033104961074044 9.401852624258836 0.16324576746794464 0.35328988607565603 -1.886726664704499
Ni 2.568944270876808 1.6962437535310588 9.261543880348606 0.8631676679831068 -1.2926578526704253 1.4289155215853004
Ni 6.619175797452791 1.4994059508777269 2.5908763298928905 -1.140865578455061 2.1179354304759785 0.9183222016680636
Ni 4.082921390736386 6.974001000779202 10.382002357058049 0.836492986905398 0.06214844850428652 0.05786293375505518
Ni 8.439192830716356 7.24139919021451 0.34541201041316766 -1.1538900157391867 -0.36328762071831633 0.041757543552760346
Ni 7.960059043192974 3.945239267884839 8.273970654111691 -0.876814055121948 -0.9401110154083809 -1.2445581689497212
Ni 3.214267412223703 8.677539411758211 12.552990401503887 -0.4200123271038702 -0.6654770885737313 0.26780610527953874
Ni 9.138010126681552 5.076056339629512 9.982538205169554 -0.08579642694052965 -1.2952297271626596 1.374149481588014
Ni 8.696610767424371 2.5179633253543803 5.628358081783802 0.007787357254902717 -0.19208300341461113 1.5075092601298037
Ni 4.007751941785805 2.715018878976308 11.264258512742332 -2.0967634243840534 -1.2084182286940544 1.4028607334797776
Ni 0.8382133003987305 3.156209560221921 12.713350380438955 0.08634484324483194 1.023866757769798 0.46741035677185955
Ni 2.771216774788004 8.634252333792826 7.987459373407911 0.8520108800353391 -0.3504539592887578 0.8411808792993707
Ni 5.7216516696871516 7.728263137123035 3.613971090177653 -0.6399601752495495 1.0869536589279538 0.27709113012589054
Ni 3.2331754546634146 8.367806804845124 3.6462263596965685 0.13526985108030898 0.16982779156083655 0.5843634118208516
Ni 3.5149814998541267 4.208046541065591 9.446085104346208 0.16023397722481436 -0.017125603936693087 -0.6396925234104596
Ni 7.099180588850556 6.0625226651094 11.511198091382386 0.5602675472139126 -0.7148353272918851 -0.7348588216016635
Ni 0.8061857621011383 9.06560792962354 0.15367865338199593 -0.4646762456701481 -0.1814044406548424 0.9980323132051975
Ni 4.595770286563977 0.41323327146935207 1.792239268036397 0.11366332855412684 0.41720519667237826 -0.680136490358119
Ni 6.049847744145734 5.743472131331829 0.5432042881455099 -1.1570637854814783 -0.5865596481412221 -1.4995354978957078
Ni 7.894280104763075 8.620561241642383 11.417035314196063 0.5932254901971719 -0.17149309507840144 0.6095915902600211
Ni 0.17648443815956746 5.109118195027933 5.748375157308038 -0.491014883564677 -1.9884986411376786 -0.7779034593969635
Ni 7.827838840470365 8.60042835000432 2.547386924985851 0.41338659425723645 0.47488583921329824 -0.08817444025440299
P 8.57731952846212 1.5191396324066966 3.638590559064485 0.17973476626190338 0.5087403258688981 -0.3905785952237854
P 1.565611318287792 3.2351442863377997 1.7063229014899244 0.9427811060413763 0.06690113269792348 -0.44437790043242825
P 4.642695620296314 0.9909665121641954 8.285006091740971 -0.299520148553368 -0.9246412019075559 0.14586793831112943
P 8.481754072119758 1.5164268182562775 12.45739409710764 -0.4892001989534413 -0.05949044205614915 0.035689225871493375
P 6.355443082655508 7.752587734906561 1.2398794589571476 -0.7019669559696491 0.2868237840326221 0.39150599213406123
P 2.212703686254526 3.1260510510714403 6.147972681664797 -1.585920707460172 0.7641112907088776 0.05289016313081214
P 7.032331041491729 3.9337256854203506 5.99539457796991 -0.0824298244611419 0.18552617613269984 1.533222862845824
P 2.4295745780186464 8.54686161172982 10.428851477951378 -0.6244677360409052 0.05512393755733733 -0.7949619575411471
