# total energy = -340891.0993336625 ev
CRYSTAL
PRIMVEC
9.06713537880697 0.00000000000000 0.00000000000000

0.00000000000000 9.06713537880697 0.00000000000000

0.00000000000000 0.00000000000000 13.27066914697378

PRIMCOORD
 96 1
Ni 6.482466954639115 2.096811363634361 11.559549660720135 -1.2704391504815409 -0.8643400910246533 -1.016528829347488
Ni 4.519948935581662 0.388950193390878 5.807696167561481 -0.4784329331346082 -0.6828510610758046 0.8519136923358425
Ni 2.6834731677539456 1.6344599878551602 4.700842823299009 -0.631015821572068 -1.138108327424898 0.9530166677264554
Ni 3.763740763880981 4.606367804473871 5.4053692290990805 -1.0017398439637717 -0.1840562764553927 -0.627152739072236
Ni 5.287998786305869 4.202626392866242 2.726445949962291 -0.7724848594845535 0.9588453585930906 0.013856189156801943
Ni 7.337389031032848 5.955911192056248 2.4252946434937765 -0.030878691856727467 -0.3721895511936364 1.081173819021383
Ni 5.134528450048442 4.603865275063081 11.367854094426429 0.8221616578843904 1.2181845640521989 0.49392023013693
Ni 5.558498641059966 7.89193504104728 12.584283771766476 0.3782437278075163 -0.011664837932437973 0.514646664051004
Ni 1.888122171899695 6.426150975760768 0.5774894898009024 0.16372836353131803 0.31395097926671733 -0.4541493779968953
Ni 2.655401316102463 1.6595940875896271 0.41478427598952283 0.4130348673447725 -0.405024081225154 -0.5290286438042889
Ni 0.20583123061045822 0.1841589632275855 4.957484468084073 0.8569363423614145 -0.6105421270987484 -0.04999150142677842
Ni 8.585570910342637 2.107020958259545 1.4449768026347611 -0.02911337242618857 0.9829072846383008 -0.6892577359330968
Ni 6.713243688564675 0.7838946700914443 4.805163844613921 0.8626256794367079 -0.833765817782222 -0.9211974663333297
Ni 0.8611221836803247 7.724147697762175 2.9535205724442797 -0.08530688889862083 -0.6755447572223785 -0.7679813151872451
Ni 7.605721840391369 3.5168879986317507 3.705090904313006 -0.18213797638675727 1.6973106665990898 -0.058017714165364595
Ni 7.795977545560316 3.631133906515692 12.63941014246114 0.5527776665947706 0.5602976291208996 0.21028101447987654
Ni 7.984338219400078 8.984724351363818 7.170899194844425 -0.26444027413109944 0.41327809370383023 -0.6730389600813893
Ni 6.628329964173159 0.8593921742180822 0.3302622518536083 1.1327514339883589 -0.9154374239211008 0.4774062916423068
Ni 2.0399513566232343 6.663510450092976 9.383225865339217 -0.09745817954917409 -0.892137829963212 -0.7438648817550157
Ni 9.024102921041592 4.895972113824117 1.2473458894124168 0.9955630257290983 -1.9988540162300736 0.44863821837067897
Ni 6.356134555071895 1.715329769793007 6.9090022382967 0.02945995713232991 1.5233287436605634 1.0893674105757691
Ni 3.53023482215597 4.351771705468064 0.7278878805352288 -1.0371200232352784 0.3338585168239218 -0.18583625117395092
Ni 6.042865021945691 5.380927858520355 4.781262875313757 -0.8220235896446295 1.4540606533923603 -0.9035743539349278
Ni 5.311101847677955 3.1237188670711586 9.611096582322173 0.758667493985487 -1.411097519567273 -1.1641482031320853
P 0.3024388397160954 5.474591368714093 12.420284677712631 0.8886856097485533 0.16495066597419333 -0.9190534234071333
P 4.10681397154802 6.039165630642783 12.875853836103166 -0.36471663985535896 0.5325582542241022 -1.2217697103002958
P 2.4524334868975406 8.466718897601154 1.5239769412229518 0.021912226692059035 -0.12878964267260398 0.332615131335124
P 6.319476126058024 7.7726115372573865 5.726732087413953 0.06264107186998889 0.8526348867725831 -0.11965194203739393
P 4.641929110086636 1.172498498904452 12.611953042599698 -0.24236298261608583 -0.5867820485646733 -0.5006112690038604
P 4.2018828877514425 5.995670581426968 8.40229780625793 -0.7126295778898177 1.584493230985026 -1.1474473454376368
P 4.583962912538854 1.2390512738146209 3.8296098767709554 0.1902174109607821 -1.4268766367784005 -2.060485158778309
P 0.2665819454845213 5.492190678809548 3.5805855325583757 -1.1810159254217014 0.19053134265677507 -0.869945867247205
Ni 1.4890049994207009 1.0632213812999076 2.6639407443600103 -0.16137966079348337 0.3623188290471438 0.1184635781562476
Ni 1.8140799430282455 6.405450705308464 4.713330082373434 1.2284491792030003 0.5694823809439611 1.1653342530203867
Ni 6.21498645602195 5.7826110303589635 9.197370441050907 -1.198821843254871 -0.9378708132239526 -0.17186667636773625
Ni 8.491009753729811 2.24405257777145 10.286241842097871 1.0922557878671575 0.8248893412281988 -0.18288642451700762
Ni 2.246029213320553 5.48005885144854 7.180812294137243 0.6914164341473125 -0.21714560281019377 -0.48109582467875206
Ni 0.781940702381207 9.06731688905547 8.9309081817556 -0.5861526425107905 -0.8339781909033444 1.0070466008886656
Ni 1.298078326221324 1.0960806805198602 11.477284446621706 0.7714970416499874 -0.2245922888962261 -0.36376121792062516
Ni 4.182778433155294 6.941354684639611 1.6616604877806391 0.7370856540496531 -0.1603422206679045 -1.5433874620836516
Ni 5.5644920176561 8.049567192520481 7.898463378640649 0.7662882437555383 -0.8031833170096748 -0.04289037160562291
Ni 5.325155907774789 2.852484574337808 4.905648560879175 -0.04839921723899406 1.1735304156779338 0.6706884575713417
Ni 0.5947796105742269 7.395654444053658 6.749714427872737 0.46646599058071925 -0.29038707590384827 0.45484151896791347
Ni 5.3680343917734525 4.340446853170679 7.378545665991261 -0.4308880934761095 0.354281560564964 -0.885127974304282
Ni 7.937116577474716 7.226960387213919 8.89582108733191 1.6602808675393017 1.0453976898630384 -0.11801080688954516
Ni 4.554521923419873 0.34485127294767665 10.46842144963569 -0.023594499490488398 0.16401324176158852 -0.06628869592490519
Ni 8.247239814566338 7.056280627689528 4.67919866403633 -0.17086008948009285 0.16707825384015743 -0.538564351208866
Ni 7.325112129503098 6.188437883142254 6.706876745984032 0.4949949512583476 -1.2836150257418666 1.426217405927847
Ni 2.2193264991365687 5.043240529367845 2.675087880800686 0.4101403194057969 1.4635022584212345 -0.75598223384384
Ni 2.3897705131367535 5.23796633236114 11.380780202861297 0.03479293930946911 0.4842528822504951 0.8334418587839
Ni 1.1563589976319588 3.3866657979151507 3.849861324013716 -1.0701355589293506 -0.6551271127979749 -0.9733132131919623
Ni 3.3033750907864294 2.8127070506959946 2.6314939998074163 2.535245528157337 -0.6902460679882951 1.18173660563781
Ni 0.9797765328668987 3.538422445554319 8.332202501489805 0.6995205513116856 0.043852992629208346 -0.174129504259984
Ni 3.60313459194858 2.765376603144076 7.169691452389651 -0.46511641853136027 0.08541513234171096 -0.4544931344895592
Ni 4.1757695373779695 7.021734841257956 5.653079745370995 -0.0539779968783522 -0.1243514043955923 0.1899937249857502
Ni 1.0000506479485252 7.606138928626501 11.57508891761946 -0.01826254575461371 -1.545265910053287 0.7436676781425451
P 9.32155936977497 5.662199470303508 8.078453272944024 -0.24947619662209938 0.37451614244428405 -0.8495639611567434
P 8.526181172514082 1.964494654606555 8.091379381378895 -0.5906533585946214 -2.846165176796898 0.3679050648856696
P 1.8379718451928633 3.1228484220587096 10.37401443432715 -1.3525301035460253 0.7709105730188981 1.0202307036791074
P 4.030532160196623 6.01833842029283 3.5098138194784925 0.1653476443022959 -0.7203544573379014 2.5472407528460006
P 7.170444931353552 4.094364794442888 10.493901007234472 -1.0608777877765083 -0.17424674656413863 -0.3723052508358943
P 6.269461806384388 7.92244595216073 10.1666200295485 -0.7072806548730787 -0.5755347577856282 0.610560896151826
P 2.1902300611683487 8.620751396262454 5.871329324825727 0.7100834144291964 -0.1953562748492442 -0.8517735672135524
P 6.974241185266203 3.7550635151631293 1.4742255684801595 0.6550795473894911 0.5217071704422112 -0.04341307687831233
Ni 5.2805546680223205 3.0022101836145954 0.31783211573312453 0.30589725572430543 -0.16426803808487192 0.09393448266663178
Ni 1.3529888990899863 1.3595716394966324 7.144397771069569 0.9764669283295958 0.0753664898564573 -1.4896976858696795
Ni 6.777166994166405 0.7746044830106598 9.234766934898252 -0.21164935558231293 0.4849041426812488 -0.17143575947790474
Ni 2.637992415853481 1.590248634931184 9.224906424991602 1.3288458725552084 -0.9870274774542613 -0.36905280533686763
Ni 6.148034727147742 1.879381453233019 2.521971162829566 0.5161332758988596 -0.11771358736410051 0.029978291529645144
Ni 4.26104594719134 6.867439395665811 10.819005872389319 -0.20560417782949755 0.09110626918921728 -1.202650987192974
Ni 8.237003018534514 6.910245342580104 0.17163362218386513 -0.3391048528245257 1.7534031387172837 0.4191738903629749
Ni 7.58071468055455 3.8635699262462344 8.047798194375389 0.5741805577505789 0.7149875365990332 0.6114679813471275
Ni 2.9771032852867676 8.481353254372953 12.694802180227313 1.231811410807014 -0.09305310850294297 -0.7838280524115145
Ni 9.219010066745815 5.08407890786858 10.138751281733256 -0.2961807997674899 -0.6305627931950495 0.9765890557297567
Ni 8.540724857930417 2.310315204344136 5.904996505822859 -0.2699555475223738 -0.19275406133970674 -0.44600720850573505
Ni 3.5954093924630945 3.0395849163366275 11.632259020666272 -0.218631700437417 -1.875371901813312 0.3626556435612722
Ni 1.217634699654155 3.4133322435569493 12.531758762260054 -0.3666740206920459 -0.154254876823244 0.4254149861766802
Ni 3.22501690539492 8.330167836273205 7.831672138065611 -1.054844437098235 -0.008101031840579597 0.40854803521801253
Ni 5.968206227857091 7.654394224004147 3.5104367316905267 -1.2184205913224049 0.1882255773417339 0.3847069669343568
Ni 3.3391540076523047 8.297843498050486 3.5169260806010456 0.022451901245612946 0.6570901500616168 1.2265409064366941
Ni 3.3406138164752663 4.2801957374652195 9.271261248758735 -0.35268259150896036 -0.15054271807897943 -0.17688161308382438
Ni 7.222281745272004 6.205384359478372 11.297652704172409 0.4142957363350671 -0.26899652604321417 0.792552576768706
Ni 0.5866400429942734 -0.08801559146192112 0.6364839005196387 -0.6641100330228755 -0.06244129715435698 -0.9033085018680508
Ni 4.573880257811319 0.327212067455818 1.4323825513608885 -0.587989181498897 -0.21656633326795605 0.7633875251689756
Ni 6.186678858846262 5.456511500434683 0.24292397541699912 -0.488423725798733 0.4134099912960042 0.37010747185362713
Ni 8.085527452097283 8.552067844498895 11.121524502898222 -0.4179788416136092 1.1655839071373475 0.002413494537499069
Ni 9.227714516870304 4.523340044275995 5.695267313641027 -0.3834494403781719 2.7365662481201323 0.9212545448235101
Ni 7.9101055806821545 9.029035442778802 2.5078781140498827 0.17930770602681378 -0.11615447040709674 0.4518340996001573
P 8.66923337002876 1.7773852454721892 3.6448162140551257 -0.20121324785065348 -2.574562580589405 0.21682421491503306
P 1.6142674769934509 3.136195245582929 1.5722295164599334 -1.4600397537939307 0.7715849733781034 -1.4439757583525323
P 4.679349178486399 1.0463293077770677 8.032271631465829 -0.4878544835588244 0.14477907612232485 1.2957683732749488
P 8.457814970494644 1.2141075839266269 12.423509857826467 -0.3314542782578033 0.9213489043095294 0.4117578004045619
P 6.549219206531303 7.749027917701345 1.4117865529673668 -0.8316078908989549 0.28411512685220747 -1.249844357049325
P 1.868383017815303 3.2785855422027237 5.815737810077534 1.4243939795658629 0.15343752312827122 2.5140287848704057
P 7.068630066303649 3.95151207391023 5.851834076687531 -0.6316405996402605 -0.2990776616993107 1.3375745106774577
P 2.5160213084840546 8.45276457599533 10.334958654674823 0.18909743842372595 1.5850241637878315 -0.09244915637035692
