# total energy = -340887.49649187987 ev
CRYSTAL
PRIMVEC
9.14859492347967 0.00000000000000 0.00000000000000
0.00000000000000 9.14859492347967 0.00000000000000
0.00000000000000 0.00000000000000 13.38989342465878
PRIMCOORD
 96 1
Ni 6.368263769223556 2.2347455902894677 11.676843953458464 -0.24446820188454674 0.7588179035204221 -0.9971704794255344
Ni 4.838865702455931 0.3419223329532474 5.820693829398129 -1.0419662955839861 -0.3022105509013376 0.6887216609239687
Ni 2.828361323453819 1.655538894201433 4.8860788565129125 -0.05117986530792476 -1.2379244656832873 1.5504096590377556
Ni 3.8320628261076144 4.66410924135638 4.939491098520948 -1.1872853033701811 0.8136086261080568 1.1514919478206553
Ni 5.15714532143056 4.757928082764394 2.856130968622994 -0.3815547944586203 0.28013300227600785 -0.18740128166822564
Ni 7.5962705233294905 6.245151126724516 2.88690135294203 -1.4639059216175563 -0.6395094608653761 -1.0132187911376487
Ni 4.8725874235119955 4.42382139449324 11.80059333816735 1.15899031308023 0.7487978002802588 -0.4390456895862374
Ni 5.924108632069221 7.89606083187159 12.529699762823919 -1.0218600117524144 -0.16992137971590734 -0.10943257830223088
Ni 1.678721433853106 6.410640061120379 0.27071424401133815 1.6505988643648477 1.11238726850971 1.6038400109427542
Ni 2.9137177145154256 1.6530413277748712 0.20378312321747824 -0.6046316751515846 -0.9543430998473629 0.1959373441636948
Ni 0.7090856394262133 0.27593992145768215 4.790180539468423 0.1613981727362446 -0.7515329398232348 -0.2829036230426095
Ni 9.163964608637723 2.3986335205657396 1.6064521078947822 -1.05419060556432 0.48727418557532204 -1.8466989593586518
Ni 6.98364400981937 0.5184911307161747 4.700268148112211 0.1623001157252237 0.9827779581492881 -0.2027942191845282
Ni 0.623405388102701 7.4134998930370175 2.530957883339156 1.1226796515746535 0.4903407403157878 -0.3797995023304104
Ni 7.956029871893972 3.7792205415661524 3.6044659101855956 -0.9899693336914048 0.6843441006815634 0.13843976416785833
Ni 7.83244150245654 3.947682769326969 13.117207893986906 -0.1184782334442669 -0.2453889139266032 0.05217976732734884
Ni 8.198998257083055 9.009783337623658 6.634491542262052 -0.1736044849944494 0.0028567527225047576 1.3998093482479634
Ni 6.529059474400275 0.8423330954320103 0.24928731973423326 1.6098728474003952 -1.854555222178277 0.23418816011477733
Ni 1.8293896443990436 6.647927168833657 9.337763211844011 0.11136656210015013 -0.003999608077696337 -0.3694472125618089
Ni 0.15988633483679224 4.996578331128068 1.5811452644912865 0.2633555257073529 -1.5470723671344067 -0.7560297992523237
Ni 6.61905420311121 1.8553990998961654 7.121361469327065 -0.2782782084554562 0.1662981811410233 -0.013802453100731067
Ni 3.639247038539081 4.292712879991217 0.4730381663312465 -0.055169446083292085 1.2703823291016765 -0.3130351523206673
Ni 6.017460895133812 5.663474309994826 4.968266174277225 1.3974878992036384 0.981104169991291 -0.6304571208551206
Ni 5.397945489611969 3.2101596372988377 9.291568296407089 0.3082487866756175 -0.7383105275956897 0.10348433113859597
P 0.27374059922711297 5.594933036486408 12.390792985970243 -0.5925747439870505 -1.4295361858884348 -1.078040415598724
P 4.221966795095247 6.301625403468706 12.95864536084214 -1.6941628649987275 -0.7604526109103678 -2.1858876301462353
P 1.863715172723068 8.694632538128456 1.1422889935430496 0.96971315454553 0.13296639975811295 0.18105091397016562
P 6.421444551778873 7.857993528205208 5.8373104224404875 0.3777940418646074 -0.30732678908198036 0.04706507180860282
P 4.68561758812871 0.8093396025354853 12.446240790358901 -0.16258473684517807 0.8408926586349905 0.9122590261931193
P 3.892580781828142 5.931711114488535 8.425014295794414 1.1401225296414494 1.1000421166807959 -0.36896821604286134
P 4.843943172663775 1.4726493321743617 3.7521965068869583 0.25654390210215816 -1.0472810229286802 -0.17216698121697446
P 0.4875880917700867 5.539556591138507 3.576989934914929 0.19024877841934976 -0.25681078261029966 1.41866144795746
Ni 1.7312618147605878 1.2657813027333065 2.688958692752819 -0.5204059351322844 0.6757355330769459 -1.504284325434603
Ni 2.1168293497328716 6.403147361840694 4.899817301577993 0.23988906715429653 1.1106731140320807 -1.7788879132519493
Ni 6.157443546755853 5.800447073872037 9.225744155604492 -0.43910122541452123 0.2377707352597131 0.6783066362382318
Ni 8.560093300513024 2.374252514973116 10.267289736207422 0.38124343386578863 0.6759224522767714 0.906160112384233
Ni 2.313158197769535 5.499531488148739 7.0041057573272365 -0.10120530529643215 -1.2758937458382091 0.5182490366902817
Ni 0.6323344167925325 0.31383065724116077 9.467323784077264 -0.3907989387647076 -1.17641827874869 0.29345774440937206
Ni 1.4382506150905845 0.9770699426987751 11.68446290334872 -0.6737095037858526 0.7375116858434783 -0.15323466308884579
Ni 4.1017268114165 6.935833452510908 1.6221584157377156 -0.23286481331766348 0.20377792325403615 -0.3961501757742919
Ni 5.660254004565707 8.12185730430369 8.05013780890301 0.27732252941040625 0.06592077106252518 0.18329368725775527
Ni 5.156358542263218 2.88554004201063 5.509191489576601 -0.1093796135771084 -1.0634699739837168 -1.0486133685868586
Ni 0.8459952779981369 7.450021084153624 6.554594117818501 0.23866522204952445 0.7628668767788153 1.6059778832213631
Ni 5.532402389872679 4.602822803658448 7.189757280175477 -0.7206568190696685 -0.04240340466687536 0.3248565704356276
Ni 8.476786194724493 7.291512527719176 9.323115396439002 -0.34474919559449657 0.18995001623200836 -0.1271644483643552
Ni 4.819461532526492 -0.01661659304235754 10.4434880158741 -0.8749312362769384 0.1728706921522184 -0.4903888199449039
Ni 8.580677639193475 7.217591880368931 4.786471699067954 -0.949304766092507 0.1796496627472648 0.09909854336607449
Ni 7.2781647276592745 6.326152786580836 7.254537566292103 0.6933959264711864 0.3234260086366882 -1.6042174488868306
Ni 2.5737925198439306 5.298481965108025 2.5652093080439307 -0.9510960536649748 -0.11324243896662432 0.2370279435564176
Ni 2.4498016122278585 5.509713874349337 11.502387566273898 -1.3647929800737784 -0.9084946740546805 1.1011497479226777
Ni 1.1562268779784577 3.225501831062001 3.8418280363776205 -0.3087262405326683 1.1130053617096831 0.873148947565535
Ni 3.4513806408488246 3.1439329583175977 3.299216635025441 0.7421525270495993 -0.7930359441630278 -1.7854766222130605
Ni 0.9753225610596788 3.5270852642180417 8.161300556653424 1.255338804504993 -0.39286404882385245 -0.1424843665508772
Ni 3.619266507126589 2.991288651258337 7.491778931030536 -0.6035050177463092 0.29845956849933764 -0.812977163171645
Ni 4.434570993581921 6.8071218698907865 6.2569363467636965 -1.0710732402522716 0.6754948778210496 0.37056461399570373
Ni 0.6844246868275352 7.624027360465708 11.685292680912417 -0.44366647618770044 -0.02393439932841039 -0.8259635481289839
P 0.17452774622532333 5.7445583072058675 7.689989645052341 0.1498896578760128 -0.4062741515821713 2.2513571726039547
P 8.661240166491279 1.6324386919044815 8.161768964715842 -0.7599952116579749 0.15796600712624406 -0.7847294811798614
P 1.6543587254504202 3.10361510028882 10.48981650079757 -0.661549471384551 0.003920932320960989 0.10458939127731666
P 4.0807948261272236 6.589952522514536 3.761194150039058 -0.5427729899735748 -0.8437206150020888 1.3199051184221529
P 6.945622449127835 4.202498585001023 10.49553437265325 0.08950550036100069 -2.0460692404632956 -0.2319638987699489
P 6.5587924080498174 7.71686730221203 10.34448283597811 -0.08961991445167791 0.054344379078835436 -0.6951339922082158
P 2.5997287865813 8.679555653619396 6.014606533503456 0.3398286183644276 -0.05609607166261952 -1.0121414989130697
P 6.787132189883326 4.111369430513921 1.747301131460396 1.349170185934857 -1.3474974262181245 -0.6746623546174252
Ni 5.147768011587242 2.5731795639810016 0.5828597300591926 -0.004210438536921781 1.2541267864747625 0.2898024070449719
Ni 1.4299162450737437 0.9239806460931478 7.234679626052197 -0.07968620027773374 1.0903264320549286 -0.5645132098641439
Ni 6.854621374970299 0.7638985313240171 9.27991939043295 0.39009317094693463 -0.1415507989930143 0.19881543704243826
Ni 2.7705879462240177 1.5362778101843801 9.37382239891468 0.483882900505586 -0.3936924582624187 -0.30476777010555256
Ni 6.658576133377678 1.8150812418673872 2.418764088935725 -0.5101582892623472 0.4968705710145056 0.7248268912869581
Ni 4.2263215263005325 6.612375728783774 10.60881227556052 0.5854191067788757 1.199865968248669 -0.5265644985345126
Ni 8.139843442012921 6.648238221062606 0.3816867009863957 0.5211867791623669 1.8019635641244902 0.4600004374610336
Ni 7.829449911901648 3.808697314556559 8.236110447434665 -1.2605812838508548 0.5489546933042546 -0.4172751306783653
Ni 2.930917073057314 8.339154732009508 12.495086968617866 1.7233813955442125 -0.5685475278345177 1.6189853512246248
Ni 9.066614409571642 4.982370563141071 10.136711840213605 0.5888152769446182 -0.22288636194871292 0.5098543848686833
Ni 8.624563449260199 2.253555101545916 5.827562594500922 0.7209900340393711 0.46031822581176857 -0.16120431155788367
Ni 3.6865635717192125 2.515049391547406 11.385519754700757 -0.23992300571602548 -0.40921523648836616 0.38004324291010033
Ni 1.1389726278667547 3.2825707664791826 12.651668830951824 -0.4815251989066869 0.6292870118064194 0.19900055647005083
Ni 3.208146946405638 8.509538164713835 8.153534314384164 0.30608546047571156 -0.29915376635288476 0.35967419233544506
Ni 5.459680208463386 8.280192037433727 3.432726655706851 -0.03450369020382445 -0.2738433126125542 0.8795036861389691
Ni 2.9143764133532004 8.68866765420861 3.1741544269384887 1.217281335511639 -2.1024617603204114 1.1162328675080455
Ni 3.259644387486644 4.226705767289235 9.554720311816979 -0.24377760357542536 0.14632482334288993 0.20715249615322387
Ni 7.126362091337169 5.890606477292416 11.7156349109869 0.5053477552475812 0.8007713651340724 -1.0310324222803018
Ni 9.054263806363371 -0.04859825133530115 0.3397779022924929 0.06727497109757445 -0.13138542842423825 0.2374467762613911
Ni 4.551133242083092 0.14331365505028634 1.4106657715397852 -0.39130904563190677 1.034709871131889 -0.41898877093536224
Ni 6.075444690047903 5.671323804478305 0.46231052387049204 -1.0166761535586297 -0.11309537186579878 0.6275404614289579
Ni 7.8441791498018825 9.196350634828303 11.48807367458526 0.47461638760199554 -0.5248629424623734 -0.7299045629201817
Ni -0.010093644829396614 4.722065590485563 5.641845201768905 0.4870898374786579 0.49844614303174156 0.62408952676588
Ni 7.813787517314566 8.674469034816582 2.624914868531204 -0.1485997354199957 0.6955679944218408 -0.4761971018255541
P 8.557476802351864 1.6627937300119209 3.545322073429425 0.8111784194000095 -1.2346010577370092 0.4265750679230524
P 2.123535269845214 3.261135608466605 1.4510229685269305 -1.4039449676828917 -0.19990918432724927 1.2046479630183449
P 4.7328792297390265 1.2366887707316012 8.127973140040528 0.551306995586515 -1.0162508930957528 0.6336144355371798
P 8.267530381996506 1.7458995667111314 12.724670044507674 1.5404314647791213 1.1482564716024937 0.1582406009438694
P 6.186225026528609 7.781877218062381 1.3825603729352451 1.567649934175442 0.26305213553432116 0.14273016401309613
P 1.956783829343617 3.35213668262414 6.065862451677279 -0.1795866707198133 0.08729615141450772 -0.46282119473928035
P 7.0514442471352945 3.904190348843917 5.786549443254493 0.326234938840393 -0.4611006125037478 0.6088094606783578
P 2.435859153494966 8.49189967361343 10.458537454598252 -0.24113656640815248 0.17971805409135502 -1.6442261280692845
