# total energy = -340873.19430784206 ev
CRYSTAL
PRIMVEC
9.15765991117838 0.00000000000000 0.00000000000000
0.00000000000000 9.15765991117838 0.00000000000000
0.00000000000000 0.00000000000000 13.40316095045756
PRIMCOORD
 96 1
Ni 0.7964700593482426 3.698806255968032 9.147134876289723 -0.20982052990369027 0.5187645428741194 0.46741472764723374
Ni 6.002223261430688 3.83251724633797 1.8803560180223964 -1.075747248689173 1.1944188290911688 -1.0677225786124835
Ni 5.569047638769306 6.518257389733272 2.072584454352468 0.5219192864530172 0.49535439148029536 0.4405132752706994
Ni 5.739325164619497 6.752693479964791 4.610204945488367 -0.24592396049446674 -0.7763348293582629 -0.008013100112463619
Ni 1.2614126880019723 6.15269276918827 3.8491063470197826 -0.0312018795241011 -1.4683403032398261 0.6177676983129102
Ni 1.0883695488998315 1.4493278665781748 12.116658075378325 0.7323005739561841 1.7811959925598357 0.32724383972088156
Ni 2.5072573543870074 6.795615431328664 13.116654375920648 0.616733600621441 1.7674331344477883 0.327490665624365
Ni 6.137088116932234 4.8400979207056745 9.92967796665265 -0.9144498631968508 1.3106985122222201 -1.2233946474982287
Ni 1.8580800106205146 6.6974727915235395 7.988244020997121 1.4510879439172815 0.6879225620614411 0.2994345308180972
Ni 4.666706790532096 -0.0332661148974617 3.744803349484238 0.47515529082460106 -0.7714795581484907 -0.03410825453761868
Ni 4.088693620874554 4.97015500482552 11.64546992275827 0.782823265296084 0.229848652199159 0.9146118426960119
Ni 7.640226392346363 3.0254984786952868 9.737664735327282 1.1558569096575706 1.107928204297092 1.7128439863479983
Ni 9.050899777015662 3.7163981203951706 6.915816126233033 0.09538149952580346 0.7964675955523961 -1.3580695453070157
Ni 5.680633723123645 0.21013074542357169 7.560548341944902 1.3408727218127552 0.3640224420018118 -0.9531202831838554
Ni 3.3011715108921402 4.117622668102732 2.865220201553057 1.274147966791696 -0.2559335222116689 -0.32778428560538386
Ni 7.291072298117568 7.436724876833674 12.633792954385823 0.9353511321258924 1.2449551472778235 -1.44685359412096
Ni 5.871863974538278 0.7826667187698844 12.929077114990129 1.0497675367959596 -0.4010203593823997 0.7280502833202622
Ni 1.3556999530419618 7.773754229520808 5.753628513421552 1.0665010475005567 1.2499263752401701 0.9141696129522706
Ni 3.7892839345417593 1.446864456098789 5.260190910612963 -2.1090849220638836 0.11426111003912579 0.3055468143634222
Ni 2.433208517449036 4.474221939728333 7.408288511701373 0.3679770557741856 -0.8650700272121424 0.40201820451929476
Ni 3.9763840813980162 6.147646898652428 9.456452234732732 0.5502914098378071 0.42113667051630055 -0.2792302879560804
Ni 0.38414276492987226 8.59171640059422 8.475354596667392 0.12281748424956913 0.2928280812451731 -1.7423265691881478
Ni 9.331289003996469 6.518907583577273 9.504623356679444 -1.4894873696310864 -0.2791019899083322 0.8396330751962766
Ni 9.115928319075584 8.974131115124614 4.499548363601158 -1.4451636080130466 0.5698749883966895 -0.7103271550088863
P 0.753455615620646 0.6471791424036603 6.582037742765907 -0.6264135469133664 0.7305010588536001 -0.8215944725270108
P 2.796117416659384 8.415761125683735 9.260672457942043 -0.24809191468006306 -1.5414218537168487 -0.9024654371414651
P 5.02403867493967 5.290114479692671 7.3593270837161056 -1.2510617743961936 -0.17999341923992873 1.0051995203775979
P 8.940522503751579 1.2394434622025419 2.706607702723839 -0.3697840270759373 -0.19301759941373856 0.9037299056761855
P 5.581492898403081 8.890942933731523 1.8100435062724898 1.5348513995881825 -0.6817069201690323 -1.8504725674684712
P 7.503942099579742 8.255758494100723 7.295112657610152 0.9419403553076358 -0.982997787469578 1.296122414180258
P 0.6243747380327801 6.743105410180713 11.664918044821734 -1.1069141612102809 -1.175758533677504 1.0526458867850192
P 2.3281701598335856 6.019476292446163 1.8443691624058804 -0.32931846286172317 -0.24790062460486342 -0.4014757017522634
Ni 2.0117089110003574 5.473221886887173 10.423905875499793 -0.22620205658550718 -0.6755265023899334 1.138328413855504
Ni 2.1676638569629665 4.0205056861923705 4.959424059101563 -1.0395689989964032 -0.24404448408356677 0.2050223371840985
Ni 0.794715451735416 7.668880709781301 2.309659782131048 -0.3934044947083547 0.6780960628893226 -0.9417040709271137
Ni 0.2853078060457824 1.370764303371292 9.745800400271097 1.4634019853979443 0.45048786998490803 2.6435154536100343
Ni 4.546842181741456 2.095574759216774 7.9554193053008 -1.0812563514328604 1.1604432434766723 -0.21279246804782062
Ni 1.127033188468483 3.5193161243845243 2.600279946612115 -1.1673237726465895 -0.11280586564983798 -0.23007028129166182
Ni 5.11430572733858 7.446541888112119 13.24011153464089 -1.4713549216964337 0.5298899633633196 0.5733824873293157
Ni 8.15740522812078 5.162575752010859 2.8971337301018 0.20572476256776184 1.8679401281256152 -0.26641925223434115
Ni 4.112705004803735 5.148216541484179 0.7263535215175139 -2.2096374242676657 -0.6874260820409966 0.18622011687593087
Ni 6.827767974797526 8.49509393231169 5.275564789842678 0.038995407426590904 2.7300569862467046 1.888553690610909
Ni 1.4986784951038647 0.7405982612970111 1.5642290237709437 1.8125775921949108 -0.028642346327040994 0.3687391307511908
Ni 4.33471415072103 3.691699911982889 5.998316603770814 0.25376351114354356 1.5303249724727386 0.10713169808319616
Ni 0.9827451010588022 1.9585029077095322 4.50350264109186 -0.05769272672577806 0.2304461765738418 0.7120073709247867
Ni 7.764807195920956 3.0464969925586023 2.9427984005681855 0.47484495867303383 -3.091803487730146 0.0004314311104637731
Ni 2.8379587641698456 0.1807950981013978 7.124061309509001 -0.17578966557122627 0.02243287508221943 0.6880338908283247
Ni 6.589851973851633 3.4179957766375892 7.571981680173576 -0.5638526934620096 0.7742877170212471 -0.06029056935994132
Ni 5.569706990273083 2.803031449789259 10.929647709981625 -1.1757757600686847 -1.1568208162327367 0.0182975127576072
Ni 6.170421998512029 5.3208017975975865 0.007444261630828226 2.484859619505617 -0.8829546208020471 -1.3335476489062517
Ni 4.753219202423392 1.7516130580802156 1.5486545917921646 -1.1682717383821557 0.03227325821140893 0.11432847294195148
Ni 7.063815813149388 6.011280186947835 7.175341456949213 -0.038843455229758905 0.8199677355568652 0.2524419641186426
Ni 9.104087464986938 2.0850251351563553 0.6839993450596709 -0.6668593136332386 -0.8081200921896599 -0.3701390964225109
Ni 1.2558448308589736 4.984917152382286 13.157293322702696 -1.203198632166328 -0.26969509477213555 1.0044749835067475
Ni 3.637303412921357 8.036450857816956 11.288423757335666 0.9251477092303292 0.015556973897992562 -0.3245336398785701
Ni 7.728552020873043 5.388641741208332 11.503799094512189 0.865043287739265 0.34809651480017473 -0.14869203802348585
P 1.0972799518605842 5.794362699865257 6.138259381617415 -1.2851322337173416 -2.64253149243021 0.5052577666369362
P 8.150646875207075 0.6985014150788363 12.005090306343535 -0.639779169586995 -0.2951469591863369 0.26493212616585343
P 8.201032319287302 4.932068297822672 8.673519943829382 -1.040987990831117 -0.7389399336495726 0.3787474069168122
P 5.208263316626682 4.884915507642903 3.8181049213845966 -1.09734682923682 -0.7112897760324718 -1.5843312514858647
P 2.9453140097082873 1.6672984845348406 3.087846573739164 0.7681926598671028 1.516630762815098 -0.1511374142401849
P 2.4341425987460523 3.4541593750877566 11.64332611460502 -0.47255873374201846 0.03812714588902466 -0.35122940400220154
P 8.580049542041293 3.933324765137524 4.680652074836962 2.573615129074471 -0.6017502398387313 0.21417854976206982
P 6.340040172858443 1.4512418174710808 9.18167482166184 -0.5498278399378272 0.19962764853108847 0.3989387942630226
Ni 3.8058592987339095 3.726865325517617 9.575955115962271 -0.8492680271828794 0.012787638682971524 0.25151353876710236
Ni 8.050709334086115 6.726346892793069 1.2636590619446986 -0.484682770699062 -0.09740470060341935 0.23648286968622498
Ni 2.2273443257144825 8.93938695393952 3.831159165393387 0.47838691038802134 -0.41712960623943646 0.47683910628492726
Ni 3.1260129523820512 6.106025334976558 5.650303553949942 1.4775487092119715 -1.0980657096807156 2.317251461303919
Ni 8.284220500680394 6.1977484552796405 5.110866110327215 0.8306992630417565 0.9042600671480426 0.4854011369223253
Ni 3.7161325482617054 1.4861599741918927 12.237126173948115 -0.34118950326769626 0.4514011258277968 -0.2501428836718208
Ni 6.271064679435638 7.2945338935123925 9.10817178124644 0.9711270041739211 -0.390765771533927 0.263145723689392
Ni 0.19714335233113645 3.757836530875547 11.525726195076656 0.45849017146409426 -1.3793269120238956 -0.5494689139365118
Ni 0.25385673931566 8.544078254446394 13.360645568361058 1.8761064659864917 -1.2675679995813331 -2.1633655377843195
Ni 5.238968949851146 2.672159333949468 3.7553374055230395 0.20197892237208442 -0.10097133490875514 1.0417786050532123
Ni 3.4946270736320173 8.57596522578179 1.66337259578944 -0.6710478977932894 -0.9000943658061273 -1.1519640023610678
Ni 7.716024342301296 1.9024397145690102 5.503270915905793 0.09486727889354629 0.1546377140839595 -0.07367084732158925
Ni 2.3587567434809795 3.028767763234843 0.43656945137387343 0.6706496339136062 -0.7443225381177245 0.4008483525809096
Ni 6.694221822303532 4.521704405659991 5.320880553471648 -1.2699863792148385 -1.1022542938407662 0.5626985252529083
Ni 7.814569919136507 9.140736419405162 1.252616755788403 -2.0020753513808485 0.2751700018437777 0.5839196394152137
Ni 4.545615055331651 7.525206185576524 7.672519048009777 -2.106337184115418 -1.3935250579011484 -2.1321785706585534
Ni 3.5808281250909744 6.605273472912175 3.569690579273022 0.38783857058480303 0.5420461391098793 -2.265683616528956
Ni 3.4404320430855275 1.2143056861210761 9.822975662256141 0.007727450551244756 -0.44863898970162736 0.9882353817194336
Ni 5.716128812410262 9.137412188906957 10.643758392540152 -0.11295858917761835 0.1634581405890669 0.22618354464274595
Ni 1.3861949600916086 8.673933870051197 11.016271845322171 -0.7487268378330072 -1.1826454906053245 -1.6964267213322397
Ni 8.268570060125484 1.6633790061512823 7.9891414716550395 -0.6503654297432734 -1.4962306018921907 -2.6706943280176714
Ni 7.995241388830946 8.413654863935562 10.298868104702443 0.6541606351196476 1.037627044778684 0.7791193340819356
Ni 7.253443474103453 2.7620875529367153 12.482698894231609 0.6878107190739252 0.3072170029769935 0.27523813607755176
Ni 6.853162165352683 0.8287617992456796 3.2936658929408216 0.3750470752470895 -0.24013486461651548 0.25193828500934673
P 5.640523173310596 2.009428653716465 6.076939691766232 1.4236694426950127 -0.5801015512207042 -0.8915377344853678
P 2.3455880287250053 2.4826232495931486 8.42009361452313 0.3768249930831188 -0.5467875104496067 -0.5432586713607418
P 4.010551310017306 7.991724847477474 5.46686738676953 -0.06645736029228555 1.750674941152843 0.5825983495006289
P 5.0501654782768 3.0631364603691753 13.1563949562788 0.3132490681036863 0.7788354842929297 0.23848575904886668
P 5.628444220067808 6.759662459053315 11.168585705758373 0.25560082146259855 -0.19096123110534208 0.13576324577695972
P 2.489610544001221 -0.11818600975394249 12.977825169502648 0.18515927971158433 -0.22619588593792014 1.0268116993307348
P 8.398288310833667 3.9355683917823177 0.5348183200323846 -0.6154526770264885 3.9548395152313947 0.4355222498140112
P 7.642543280269353 7.642167816218593 3.5433265925477286 0.4867895326294197 -1.584479089917639 -2.286938155032358
