# total energy = -340870.76329260436 ev
CRYSTAL
PRIMVEC
9.21520238226458 0.00000000000000 0.00000000000000
0.00000000000000 9.21520238226458 0.00000000000000
0.00000000000000 0.00000000000000 13.48738017337384
PRIMCOORD
 96 1
Ni 3.5069374650383547 1.869773803326012 1.1977616113413145 -1.4084829647625614 -0.12118097708741066 1.30679943427813
Ni 1.6636942297222368 4.201975683520559 8.421722885070672 -1.5354399251018007 -0.1866039825779109 -1.1888379925692816
Ni 7.506906694462041 6.599448843053099 10.455565996823832 -1.810220919037276 -0.6334845948275348 -0.26584949577380024
Ni 1.5686025550803124 3.1239352185544256 10.357148555598103 -2.194956425216723 -2.690180461766741 0.9149172897515727
Ni 7.304126163354807 1.687322008943275 9.50405763440381 3.223418515666687 0.9598275200007019 -0.1608397291296133
Ni 7.534939340480137 0.09090152206321694 12.793117302072128 -2.45669986924195 -1.0814743809809375 -0.9532804629108034
Ni 0.07307655585913955 0.5783553243726933 4.276012463480647 -1.5228651737605838 1.26285156794227 -0.3159384420103914
Ni 2.377568322123241 8.714669565081278 10.555156533328358 -0.4345801976157161 0.6199554499928485 0.738581007648257
Ni 9.057687047899027 8.668556691749735 1.0522719942033454 -1.1094266432194893 1.944915100119773 -0.11583616783572954
Ni 0.12731355171847775 4.660192412844626 1.895098101328093 1.9505417022779308 -1.5072086981702495 -0.761994501476191
Ni 5.499098372824043 4.384399832295784 3.684118163588629 -0.35418154465199003 1.2559903220460626 0.9714674182324754
Ni 4.221834444917336 7.781593450710368 9.424482517738635 0.11125009112694388 -0.9234770063961256 -0.9415757728793656
Ni 3.8170935357257516 3.7294200990997926 10.65490925739696 0.6460518899695842 0.11981597841908398 0.5908194518588407
Ni 0.837681259566594 7.704296332104256 4.579397203367881 2.6196381327718044 1.0672386969975298 -1.8096617040996963
Ni 2.292124964503324 6.6497546335241005 7.48898957623292 -1.124558099544289 -0.1443990670750868 -0.1459512420535551
Ni 2.8038820203774044 3.158197341465432 3.943938955157011 2.406617607873578 -0.2690446056723302 0.04243245813259789
Ni 5.682785004342357 4.895493393589553 8.60432857333523 -1.0980052887564251 1.1911013346821615 -0.3045497405574755
Ni 3.3171872302722076 5.475074339895319 9.127328176264562 1.5286108179951092 0.6571580271850747 1.0341154320809998
Ni 7.113546560363273 5.5880527225981 1.935519665592977 0.33512272824832606 -1.066063445742506 -0.7166119595763335
Ni 4.172920150024485 1.3945918861915187 5.724651512359916 -0.14484412503230537 0.8117360916756923 -0.8513562771704757
Ni 6.423899235346087 6.5964170414291825 13.30393809337177 -1.2020488348326006 1.2819834036757147 -1.4634559785643313
Ni 0.6027645527660968 8.533858076744307 7.0666181416101 0.3194192014701402 -0.7004456342291163 -0.45516316397339035
Ni 2.945584189286104 8.343435132195346 5.98683231728965 0.20225917261666454 1.4359809130725139 0.2847928696455224
Ni 4.104967246757739 7.425361367501445 3.912891094879506 -0.2589926207529669 0.46649812937023527 -1.0675680553124907
P 2.735919901908154 6.389664758042593 5.208853590187697 -0.4519904226723635 -1.1897975282690734 0.5436335382016573
P 1.9053629153976384 8.06329297606447 13.460162499907005 -0.2422369985611828 -0.13458722319098756 -0.28722410479483435
P 2.8436087583734637 1.3644028827874153 11.762667828919229 0.5236429540123434 -0.5405512997319077 -2.2892344072657025
P 8.35054926852867 5.887998348910727 0.15599126191187526 1.2806857679102137 -0.6976174207517019 0.3790212294034892
P 5.294594598848503 5.650845112462435 10.866755704727929 -0.3713963658683797 1.211534919946165 0.3933916391925483
P 4.0772018416122675 0.4506040505352611 2.6903544116053673 1.2513034580933549 -1.1612870795342065 0.5161720995565949
P 5.340919421837645 2.255125926448539 9.090818465462757 -0.5522091956858103 1.5886609892094705 -1.558209871808465
P 6.415338312219588 3.1200924791101303 1.2713136716496765 -0.4052133144178247 -0.1876337093940059 0.899761922167373
Ni 7.4590797934646975 1.323376801238249 2.1786978014385836 1.2588257346123288 0.19028554519455615 -0.7522657042242012
Ni 1.5378329939184376 1.1144497300606433 -0.09652279559084306 -1.0609158401032954 -1.4296174327483315 1.0991476298909846
Ni 5.06966072092092 2.1311353767531136 11.995176603305351 -0.78654596556331 -0.3729940493728028 0.275458479618474
Ni 2.206571024453355 8.870157676936419 1.9810261785997363 -1.6411593162185028 -0.3792634273212823 1.0578091761535138
Ni 1.4077419801651623 5.225600377698771 13.257946860713286 -0.20151998045779487 -2.0450955636961163 1.9441401696269618
Ni 3.978267427526048 5.490260993622414 12.768705309117975 -0.6321147110632016 -2.0683473351352055 -0.23415447866336445
Ni 2.128610411266934 5.454985198435934 3.2411931413002053 -0.17302624389347623 -0.2003573276082614 0.7543544684324298
Ni 4.332840774284196 4.085034763740927 1.4609800480730337 0.5980481083967958 0.5893063576484238 -0.2894175129017274
Ni 7.2812079547266 6.000257945818172 7.333291357760682 1.0214285806419505 -0.457971837066779 -1.6329590397958973
Ni 8.103775360665884 4.700969683926177 9.229710919127893 0.8981187301369951 -1.0518429312677497 -0.536998806493959
Ni 6.06427595761558 4.292994238655581 12.921921873555801 -0.06245209578763438 -0.7396143340087779 -0.267240719694372
Ni 2.5540025892706666 4.328767654777293 6.273978948844048 -0.4959434312145459 0.5438605666107988 -1.604669448822585
Ni 7.277706177774964 8.78631776455225 8.242448492511418 -0.09975828843726045 -0.672262744036997 -0.7243162701991268
Ni 8.009190522161695 7.661574653294298 5.631750291353264 0.7378400157171745 0.6227993471995468 -0.3045111740100562
Ni 8.72950604111321 5.686010325218864 3.697282080366029 -1.4697690652665525 1.363595874441884 0.5091031085249554
Ni 3.9502255663054475 8.572727800907467 0.6160713051823133 1.661532737668532 -0.3700061703890724 -1.3019631892317514
Ni 0.4847113580441952 5.886090801992336 5.637873793417375 0.6425909280041772 -2.421588370250797 3.8413962731078746
Ni 5.8279613045951795 7.905952608505966 5.771762392122675 -2.345405298030316 0.38375205922025524 1.3507688978805448
Ni 1.8571766215026269 1.7628037326560382 7.650230739011499 -0.11787736663547439 0.15302948905657518 0.11069576128537066
Ni 0.8381226677665502 6.131666733529563 9.84818831368408 -0.15864297858861062 0.46611786321268106 -1.57095277329643
Ni 2.7148170881732954 3.0393212291598957 12.933575418642747 0.3515752173773945 3.449215880614608 -1.4052102075485604
Ni 8.92258296398341 7.383515132929396 12.259907254768025 -1.5908112027832537 1.4193391907507749 0.07308720690397735
Ni 4.797793816638911 0.19578987848746818 7.602175300992049 0.28363073101662123 -0.2634686542464495 0.6645100966747717
Ni 5.517206245745002 1.1151593006534748 0.8250315510889343 1.9661395567161881 -0.5664294530502503 -0.9054121784746147
P 2.685162566514441 8.924859119001974 8.347205071539857 -0.7297230430369949 -0.1988151799321221 -0.818495521886713
P 5.255181177737591 -0.01927728211875587 12.257884517818331 0.5685236165751177 -0.10484727292439361 1.5453803241439643
P -0.13654718462779147 2.734261165457379 8.281372586369352 0.23597301992934197 -0.08591238369310365 0.5355646451505938
P 7.751708548988907 4.505607390834908 5.435630508616142 0.4679040085788264 -0.4411953889393886 -0.4115186878105623
P 0.034366254699305064 6.492847380483298 7.930269684874326 0.832022095618238 0.3243567479810736 -1.0287641950714153
P 1.4946597701857682 1.9596957493630212 5.619153109529879 0.23265886795444446 -0.4642669260468714 -1.2193217629804356
P 8.080267379077402 2.988038627223438 11.257741081141338 -0.4007707052654388 1.0918906912182549 0.3366515061880267
P 2.1325821635462896 4.893668783493702 11.177140312437434 0.4182578063066087 -0.37682010798711235 0.37504116170981866
Ni 0.5466633214401375 0.2581694272796104 9.193376297173668 -0.5813086841549279 0.5634783408417263 0.14450499652533175
Ni 3.0780988012980117 6.412877853150938 1.2662029203407885 2.251973723142031 -0.4613484668484958 0.22988696163626215
Ni 4.811008417030084 5.657692007923134 6.257199908124209 -0.4407531591956474 0.7581861834736943 -0.11472056617404759
Ni 4.146140771546975 7.424393771238494 11.737298376424876 0.7049648622557084 1.1226770804714923 -0.08685649277392783
Ni 8.829186886602278 5.010213449565648 11.521918820453756 0.5532934298889246 -1.3871764899753014 1.0564346644034903
Ni 6.519534606935765 2.514229775262086 5.113942533514858 1.0190693363811547 1.7693450067585204 0.9647972053011512
Ni 3.333617936337384 1.695956653689809 9.547838139981513 -0.4408973980829955 -1.415196115116679 0.2493728382750157
Ni 6.095432557282635 3.7391513529443388 10.443237898913571 2.7606405154605165 -1.0568390989307606 1.4498245038238255
Ni 5.524744281393524 0.5002868933169716 10.105285091392188 -0.28042019449912353 -2.931523487758745 1.1808356910900952
Ni 6.749251174963084 0.12364958720276602 3.9525173871682684 -0.33254236911565954 -0.5501181174847365 0.5487202086959454
Ni 8.530236502160115 1.351980789811612 6.556862627719954 0.9020154940882401 0.26424538451147395 0.4524863884721756
Ni 1.7049046153214893 6.776555819983339 11.757704520850409 3.082793828032368 2.9789677972836373 -0.018065856362775336
Ni 8.311227999442801 3.598914401233824 0.1739148307827487 -0.546648156658265 0.20520951349424013 -1.348238161038891
Ni 0.9588141749654343 6.837302434891719 1.5791023568137175 -1.7910849695387734 -0.7076583499274716 1.0123710984253727
Ni 6.387019994923858 8.013235996061086 1.6912228041633475 0.2917091371493815 1.015720988734212 0.3508856475095376
Ni 7.640434978749422 3.483116166564726 3.220003704661806 0.6808137189308017 -0.04403811205682093 -0.35419440016779646
Ni 0.6949128917281461 3.548875851635447 4.524665351134062 -2.281421081868871 1.0559944915422783 -0.05304057266574736
Ni 2.3594051579872555 0.6129031185613332 4.070895878538572 1.2670856606282759 -0.2592589870404761 1.5880773487918587
Ni 6.390927240785683 6.822917503782499 3.8130849226363788 0.9671633915404826 -0.31109165544105133 0.6432658425840146
Ni 4.08825086941493 3.240360086993816 7.645254529659174 0.017951185161781985 -0.19051154516243318 1.1004617207167178
Ni 1.296081371420497 1.9763015442757794 2.536962758319956 -1.1833692561452267 0.4812020112393132 -1.1493962416338914
Ni 9.197868708394516 1.1966677668040535 11.322008824926613 0.44136765285119467 -0.6852894953139681 0.43844919365281904
Ni 7.192548491432681 3.3556883463351945 7.387847199626669 -0.284774100592445 0.07649443281331343 -0.2989712180284335
Ni 5.210625673629275 2.1051485056909733 3.43329325270495 -1.0432528756058936 -0.9246777115724463 -2.366274942390473
P 5.619190891860147 7.116394057937103 7.889982662566005 -1.0783664314795751 0.7843132195780492 0.015436389159728253
P 8.632304085097799 1.5427539120557365 0.2542695535797884 1.0904935537604121 -0.3057198496061767 0.42804985269636603
P 5.083050410159676 6.021259392325484 2.2009515939662303 -1.4946398603663034 1.6017682160153897 0.03139136982708787
P 4.571238063070569 3.612018419194946 5.610237401106964 -0.14128751802929862 -0.8338822887554285 -1.584083397141117
P 8.018930991208746 8.566820856102208 10.323766484526258 0.6678517594534951 2.3721499131140114 0.6193676958101785
P 6.5346751846503395 0.742032065173159 6.086747228922328 -0.7959127514901906 -1.9381225026779718 1.2993627754944266
P 2.2078519376014536 3.7346543341222382 1.4748857886520301 -1.2519845433207792 0.518849646388758 0.8095334275974188
P 8.440240834503072 7.966441197744224 3.0613252896996754 -0.6593704614553612 -0.09319374784586532 0.3326225875342917
