# total energy = -340859.5674374253 ev
CRYSTAL
PRIMVEC
9.31529755127682 0.00000000000000 0.00000000000000

0.00000000000000 9.31529755127682 0.00000000000000

0.00000000000000 0.00000000000000 13.63387957099850

PRIMCOORD
 96 1
Ni 8.82478181476281 2.28677510529857 11.66562429058591 -0.05999309272418055 0.26830695617535727 0.8036031781559129
Ni 0.2685423258884731 9.39028557594414 12.475258709206413 2.090228194368697 -2.620424890339158 -2.3444442196686266
Ni 6.672696595028027 3.779858923530855 12.477044451724055 -0.004216866294824996 -0.6668806537894773 -0.22615012030164922
Ni 9.468068309498165 0.5075672688053732 9.825663947303179 -0.9508978216112399 0.27788457256146337 1.138012168166666
Ni 2.075075655867583 2.8242025600209995 4.835078117519603 -0.2916795694630267 0.658064598159744 -1.3118863618827343
Ni 1.3889667388390725 5.593789531200414 9.982481390386036 1.0784258239626008 -3.080417614490708 -0.5243494931610647
Ni 6.0133505275205605 2.763820802069241 9.683013208554328 0.11785242693480993 0.9093619071509822 -0.7800295046010308
Ni 6.559217641716038 5.819145206666155 11.320183252869676 -0.9726478116938216 0.692053296400363 -0.767381219709401
Ni 8.058542709227508 5.7162763771287795 5.050193486518765 1.8161408840661366 0.9141156197858837 -1.987238286368016
Ni 6.165087407384212 5.129459215423903 5.701960628035867 -1.932902134819297 -1.4978010317031043 1.2943732926996354
Ni 9.151152575577035 8.941381392714392 3.657070261965704 -0.5646039698057372 -0.8279682372638386 -0.6766292485358089
Ni 0.13230516942129322 6.739068089228318 11.304871698481323 -0.6706666031944707 0.6163247952187967 5.632676903597221
Ni 5.163860608838874 5.937039610960733 13.25717546031913 -0.7659056636051391 -0.2674564352496039 0.3767450317748028
Ni 7.354762672971216 0.32818910687287656 2.181979872252336 -0.28344535447869246 0.774873414321388 0.8687991552372716
Ni 0.9831644368254278 2.948403420676784 9.431549548976987 1.036903022128466 1.309388278051229 0.6363518890730008
Ni 7.7062847368508125 6.477680843297072 7.185163710282433 0.04614101733243666 -2.0205482133740555 1.6690282747146288
Ni 8.052925584876242 0.9500392391585885 5.527610863656959 -0.5566646603540026 -0.1778768871175582 -1.061864834280126
Ni 5.24654318884193 7.990792551007338 11.720527722118135 0.6903733375947787 -0.9719993794765454 0.9419964053565519
Ni 4.6162142728339575 1.2850359653944925 10.671728631119258 0.0022083205052284547 -0.08703826976743075 0.8362687867097339
Ni 1.1915103791810318 3.3232323587302934 1.2646252171920709 0.28188443774947586 0.39569689028695726 -1.2113834819699654
Ni 7.09188497945091 4.080873444736211 8.09973774905936 0.6160820830803712 0.21731375295694189 -1.1913967544353932
Ni 0.9168106416902583 5.029561965767214 5.544353247730809 1.1798902964576905 0.6805532661805634 -0.27403460268775387
Ni 3.493264482749646 3.133107138150937 2.67455789596049 -1.288360253736336 -0.6336458029957475 -0.7887607138264416
Ni 8.214257221094462 0.951129128958088 0.15991757406810006 -1.8106850031578883 2.3440940354180597 0.5576342233561234
P 7.897658207286006 8.379417444557077 10.907021865885051 1.1958627606265468 -0.44628205943367655 1.9254917012878385
P 2.359695253593288 8.426357228315009 11.871578064561076 -0.5070721941378556 1.8824249520053518 1.7060542171196744
P 2.4657964913394355 3.7095843197067166 10.853277257353321 0.9107251060470961 0.3457809792931206 1.0693452018175713
P 0.41114089897170597 8.479268117726606 8.133099555280962 0.10307783972879667 0.08850225590746694 -1.20863368713897
P 6.842607620180769 5.7470541198428515 1.0553961846399493 1.023648471111405 0.35891263157907216 -0.7758260080426445
P 6.613050745573368 1.2315568428395645 12.15247620096285 -0.7885977058860161 1.225804799601618 -0.5446511808328943
P 8.597237044400638 3.3439961567053733 0.19615314954735713 0.04573246904010833 -1.9212285551361103 -0.6468368477647246
P 2.8503878611012823 5.358624847539177 6.385999685975071 3.0286224841962874 -1.9585527455078657 -0.49587709675298475
Ni 2.550463229695426 0.9349577726167964 9.602245853703215 -1.420306953980683 0.577498052159586 -0.7681466371205158
Ni 2.5396574846747475 7.381348531841057 5.583660076773271 -0.6815842785482391 0.5758054949485115 -1.193123764428829
Ni 2.1004225801790195 8.360153409468486 2.7439950545455254 -0.49877781533954746 -1.8972396484206808 1.9256657649718578
Ni 4.872729618208467 0.4535441328804384 6.322125623016198 -1.9498870994130677 1.4687089994331544 0.47425746160068
Ni 2.280608378398838 9.01338864186081 0.5383310385732969 -0.9123760113869577 -0.6848863463382785 -3.0755903683053933
Ni 3.869285778874403 4.952347465356519 4.569339696158048 -0.3264033460974572 -3.9124818762007907 2.3876418381020232
Ni 4.816465221721484 6.650805646063722 6.903787699122418 -0.7242404226558689 -0.2568892012567188 1.249438636970474
Ni 3.753841297804341 6.429110882488606 3.2333695474669457 -2.736027859118159 1.5095463451644906 -6.335906271219063
Ni 6.859393786152547 0.568217307323162 9.837226094475305 -0.13630420588209427 0.7851742820267639 0.2391308488320333
Ni 3.0293254094652635 8.501811137511128 8.010026777144146 -0.4252239532117967 -1.4094797814581919 -1.3073445081483228
Ni 6.2724648408784915 7.616792674425243 9.726955329598765 -2.0569401217395287 -0.7408533486222015 -2.0745933160449175
Ni 4.776586433416721 7.570523592082389 4.623889146387869 0.9928119453465225 0.7441399897932732 3.956138179438161
Ni 6.539506472350731 8.268518828633646 6.576601849782926 1.5899956488604938 -0.014222057136652925 0.3118511593148952
Ni 9.090808078815003 7.901552001612423 6.037218182599856 0.8395374301586767 0.5820298785916687 -0.379786646814604
Ni 2.2602358229158854 1.5715931449859748 11.891156025173112 -0.08586224718145859 0.8241689181224063 0.7332955908796016
Ni 1.4996976794087347 7.879539953781506 9.969242489676217 0.15804468288297943 0.30938829959669945 -1.5769575847296133
Ni 8.582332568510047 5.100069452027143 2.6146512181777437 -1.7156086935773294 0.7884722360517453 -0.40501508236408956
Ni 8.269664610217735 2.775781643971441 2.1783394540160588 -0.6544262300762085 -1.214979683961656 -0.3710906617025029
Ni 4.165968686774056 0.22509764172688557 12.8119880807646 -0.07665692653310668 1.8074284438938035 1.0968027838078918
Ni 0.1383247146216058 1.615356412319724 7.691389576257652 -0.27308560851092323 -1.5113916259033455 -0.771258186166304
Ni 6.97168038139329 1.3265263001549263 7.466293797590253 -0.7692586392377719 1.1230051532348724 1.0731000408743132
Ni 1.7947224643655593 4.980116367000178 12.947563851114134 -1.20144719669286 -0.9848880625137556 -1.703875464300801
Ni 9.208488231268653 3.1347093693091757 5.881191608268943 -1.4780804133457255 -1.1798545581237487 -0.38898656814631716
Ni 3.9377532149968073 3.800855603941726 13.505829626191098 0.07207959157506941 0.6067988580062323 -0.2272011872739829
P 8.249143009975876 2.4186890322277352 9.554459309408749 -1.7356378443140625 -0.38730249557567487 -1.1745370025655772
P 3.2729204373021163 -0.028171322492704005 4.609587370241104 -0.4638694334981366 0.5424456885411433 -0.05892659913287916
P 5.755130482716066 5.450464364917514 9.134998918300862 -0.7809268196043195 0.14495673935076972 0.48946116592431194
P 6.135958472315537 2.877728259063086 6.06636761132288 0.836194996049005 -0.4754363124001296 0.1993134597247793
P 0.09762338555363029 8.851628501960738 1.3643016942996302 -0.04408670590656923 0.9259838319783794 0.7606138190785804
P 9.30832027384332 5.045034674801134 8.419056829717848 -0.5166819493134779 -0.7949331611857406 -0.7075974147825491
P 0.6170527541084279 6.597177478749887 4.152224896943444 0.02697164349283742 1.1766054550588316 -1.1470627084047085
P 2.7375050868249162 5.959433585986346 0.7986479568296498 1.2992506753965947 0.9908123984179905 1.9424802654260354
Ni 6.078138421157475 2.4903981918563427 0.5882778003421548 0.13019397921929834 -1.462294097045746 -0.20961844119521317
Ni 1.4688081531254844 5.060004357773748 2.6701545548645633 2.439680194755501 1.3454958224070634 0.684529477219492
Ni 3.7117454687108524 8.337144624812387 10.156667205530148 2.068897551211721 0.3920299829583313 -0.09918004733628726
Ni 1.8458913931574457 3.223623883293985 7.085677265242479 0.9808259766292398 1.5150708745271455 1.5570855283960345
Ni 4.348567147028663 3.9384798081964734 7.009764111882981 0.38922388096810384 -0.38306377490397897 0.6925515761930201
Ni 1.6269912188118167 1.2056416853847989 1.9635510519567465 -1.1585653097276694 1.3141764434684915 2.30183306986632
Ni 1.6315650298507418 6.350536348652896 7.502819078819634 -2.9305400407995528 2.095493556532694 3.304794187831702
Ni 4.179801903460011 7.865641530013529 1.1123256933635495 -0.8814523252249078 -3.7348117057773997 -1.1990745826956253
Ni 0.6566781663230513 7.056253966774965 0.524165265769033 0.5499096010183562 -1.3907714064154113 -0.7726792348835467
Ni 3.1847697777067 6.524499528188391 11.630175857739626 0.35740210847181675 -1.362078666466409 0.1317754647738053
Ni 7.04288651496059 7.3867793502436925 12.993945648555911 1.605001635351023 0.9284924573328462 1.3233341987083598
Ni 8.09582252954885 4.5353947523172256 10.465351942640698 1.5930436916581985 -1.6009724595869717 -0.9921655700117752
Ni 1.1530475160858744 0.6639273307843376 5.253378754097252 -0.57033187342845 -0.5702632249740437 -1.1486241393545573
Ni 8.542537617882168 5.0980666630793445 12.867587365014964 0.05417108672576477 2.4714150639649373 0.01978438171577883
Ni 4.774825842202144 4.056839977362632 11.195596738900223 -1.5211304504576642 0.9228504285557203 -0.7450990112724329
Ni 5.877747742808475 7.962222533784561 2.745494817432016 1.119776876105562 -1.8972687018864034 -1.0841624693360619
Ni 4.403723023121283 2.3833002172850124 4.740213923065219 0.38766193579762265 0.7656791494166297 0.26114566254022764
Ni 3.5390771155183516 6.205217708719629 9.13483590059581 1.1340452130991179 -0.5210957621104575 -0.2979566607209901
Ni 4.003127972371913 0.35456071390179167 2.2958090807477545 0.3076533191834637 2.771246058890505 0.5861014775578809
Ni 5.433054074017817 0.42686139491730724 4.18719638656123 1.8129293191073743 1.4541223598682311 -1.6896017279906062
Ni 5.153446106310324 4.584337325022956 1.9953050378416515 0.37216204038981066 0.8716083425512925 -0.8299256181005255
Ni 2.521203880462709 1.026871812374587 6.798984082308495 1.8813335187133857 0.9264155201991593 1.840704946558746
Ni 8.361587965272957 6.7904978463482895 9.50777662785993 0.02846391176764775 -0.25861878235331587 -3.2003688329360753
Ni 7.526490181123123 3.4246666324631994 4.242276808744654 -1.2050397991401247 -0.2749476014203265 0.8204518742821354
P 5.815717177211319 5.709438948813971 3.6983668385395605 0.7399712031275644 0.520119000019485 0.03433913960150215
P 0.2743364408909405 2.0431055550822643 3.713418496129571 -0.12828364957046295 -0.1077114818460661 1.0073695314457232
P 3.687367335332304 2.363356165483915 8.57515140572001 0.43793111636581994 0.5377693661113965 -0.4849031142399843
P 5.674860564747799 2.584277759372205 2.616409946332834 0.5158494261098535 -0.9807760972279108 2.4485710694872282
P 3.162869513444962 2.042239232421124 0.6033918704249578 -0.6953661628236798 -1.5032353153447982 0.13670889751968068
P 5.878679272551636 9.034217646917913 0.7097092230715186 0.7356319523222621 -0.018672893819154938 -0.670521078755542
P 5.207968542177594 8.852252626888657 8.155759016283376 0.1289768189827456 -0.21563662236483508 1.7608901911229478
P 7.11098133918573 8.333036578645043 4.5888636280449795 1.353327145526024 0.6507667789467503 -1.2992892419440139
