# total energy = -340887.63754821074 ev
CRYSTAL
PRIMVEC
9.06564317654499 0.00000000000000 0.00000000000000
0.00000000000000 9.06564317654499 0.00000000000000
0.00000000000000 0.00000000000000 13.26848515812956
PRIMCOORD
 96 1
Ni 6.409400723854943 2.3227447239130043 11.495974511996568 1.3613821546200167 -1.0138584816041765 -0.16200880973705
Ni 4.867842480226323 0.3895389058302853 6.091707947476923 -0.5878814522764392 0.6710576679853024 -0.8090189498548455
Ni 2.695025364656631 1.454092917392298 4.554765929399666 0.9973936511799337 0.3031562026440585 1.5476066423713217
Ni 3.6479876535568754 4.393926912820654 4.772528120049767 -0.9211056779504717 0.7993883687436169 -0.41805108961244125
Ni 3.5601959641629564 2.6841737896664903 2.52240554465265 0.9148234444861859 0.14903656584709815 0.45532025837654494
Ni 5.089569983241242 4.812650844019159 2.3260319261614795 0.14951299126288445 -1.890803405877034 -0.3787551202262961
Ni 5.453709676331447 4.787792850182095 11.628593087650927 -0.34951010731824966 -1.9970622144369736 -2.3620776164796737
Ni 5.536660312220992 7.986224319790701 12.45587020486712 1.6346246004237783 -0.1843972047345792 0.09296723365735601
Ni 2.0188280990429366 6.541541540109152 0.13884939227150575 0.6344598142566105 -0.12108301805696566 -0.23277636736891524
Ni 2.991888919065271 1.5769323836549582 0.41932951616871533 -1.5073555081607588 -0.10993702874247518 -0.9678784153296364
Ni 7.969217173022527 8.857405440782793 6.865631940940422 0.20521671258309174 1.5562118675418295 1.102895784079507
Ni 8.565546121457327 2.494094447295332 1.1125275826002965 0.9205521194398469 -1.0640214756118127 0.7738799400598673
Ni 6.806684408727898 0.8387270246619304 4.772130138310361 1.410833467272609 -0.5360994346081412 -0.09004800312803202
Ni 0.9447306848141561 7.210187124881754 2.1544174859957668 -1.1273423471576456 -0.4461547898271929 0.6392456656810281
Ni 7.415197581713031 3.826852795207228 3.560319256911382 1.6672241316263545 0.8625513745553468 0.31326166650917664
Ni 7.62939153517339 4.041545359047252 12.607077882039677 1.025450814427466 -0.5331434373036108 -0.44836696698716333
Ni 8.433269320554118 7.391463727641027 9.043255660570075 -1.2182470418590179 -0.6187025514223539 0.5880930540666129
Ni 7.00163200153323 0.8514470287293207 0.2808336839846077 -0.9983840401176611 -0.6745111737515416 -1.1704888006381327
Ni 1.7593965856821583 6.864033668032518 8.878288150047446 2.1475221429941596 1.2929427309006958 0.7144162374765954
Ni 0.23000896813897287 4.6556610995711525 1.3011038413178497 -0.5451312057931063 1.748673337341782 -0.252258644463243
Ni 6.437513283624721 2.319698667775421 6.940041834308488 0.24464457956141092 -0.7791414455691227 -1.163581531995338
Ni 3.608135085756827 4.466488321526656 0.22320610943170346 0.051764534166801164 -0.8090626586085873 -0.4161659567745865
Ni 5.931913293002226 5.570738065260205 4.566163256114456 -0.4435114386670749 1.4926922497216293 -0.019142891477038
Ni 5.3770596625122 3.1409643569415207 9.59482662163326 0.6361487719232592 -1.4101711510982617 -0.8059002017202056
P 0.2387727254848115 5.564999513072436 12.595255376655683 0.19176315818134715 1.3611533264386622 -1.332868106340724
P 4.206911757873613 6.242357181024258 12.446290539627286 -0.7390733739036432 1.2274017117750926 0.5644147366130666
P 2.3582911111614098 8.530770313886583 1.3609216752839686 1.5304524991895385 0.7846454061064874 -1.3024534986046086
P 6.672576347884834 7.70790907150556 5.690043743777538 -1.6533340039078235 0.08330965596293394 -1.3184850981461744
P 4.850844399101417 0.9947549043593487 12.393959113870741 0.5204630136224649 -0.19822074088123282 1.2688360676604793
P 3.909721840307374 6.543717294493139 8.052378131835859 0.11472082328436373 -0.9196159807788227 -1.0210020346274933
P 4.900433467769812 1.0178541634026887 3.660336872814661 -0.8656744935653606 -0.1743740161706223 0.09114894950169464
P 0.12539416453519284 5.487025915336264 3.278695955398252 0.21006632736590922 0.2961203788431997 1.7668759763927375
Ni 0.5129821439345021 -0.022107477669972182 5.01873829927051 0.3753751480104697 1.0554810422409695 -0.6570269009238491
Ni 1.7243397431701504 6.976293528603035 4.434832001803956 0.042437086118288204 -1.5741849070804823 0.5956197014609613
Ni 6.085730062306916 5.60146153029077 9.136811285952911 0.32539341677570416 1.4279940382122955 0.006845562166923694
Ni 8.882653257280323 2.606046075994785 10.11948894035247 -0.23441775962708014 0.22832758756894223 0.3772057734613052
Ni 2.212524633077475 5.519082029927021 6.589700050270074 2.5384285538710087 -0.264289350375532 1.0559957770938588
Ni 0.4815016976911747 0.3427547471885816 9.194835029116565 0.8954213858104901 -0.247096126425697 0.24831482932414656
Ni 1.9036672326271011 1.5842664890576512 11.34651831710312 -1.0797154893083016 -1.9475216845046845 0.04513263067258034
Ni 4.28272773251233 6.932098517678278 1.3052831028637604 -0.37431071130169724 0.9504951868561824 0.06087035312281129
Ni 5.769547622097115 7.858616325169801 7.655995571903604 -0.29427175567023517 -0.4024815173089585 1.6587646880050917
Ni 5.3980647579609515 2.9674207478886716 4.542267127027982 -0.14929367616322675 -0.567684408503274 0.46128778881388943
Ni 0.6607983639610187 7.3727522399387295 6.751430219582194 0.49223898577976516 0.2916906252066202 -0.19674878432139664
Ni 5.261191675921568 4.7444137471513335 6.965013148686384 -0.4469076088328174 0.27434956282501133 -0.39795071931814047
Ni 1.076907763641432 7.625556768071611 11.406877369972255 -0.8622852653781536 -0.653151734239159 -0.9121083595478678
Ni 4.570489381081287 0.36577966795713546 10.391890669534797 1.101183686484407 0.39063130283859177 -2.4868501675730847
Ni 8.242156494850565 7.278768716193712 4.275146135048459 0.17152163432349168 0.1592541298100483 0.5653058809687683
Ni 7.487496086764301 6.200419515272888 7.107011945428713 0.2938567796200036 -0.9555954841972253 -0.8394667248217413
Ni 2.5690038576073886 4.934447761306158 2.284846708801239 -0.8782664712977585 1.1354235815038831 1.0745488575056976
Ni 2.7275438270539865 5.765540607773271 10.982113000665203 -1.123861844808213 -1.8220935021051459 0.7762255574739083
Ni 0.7528635975908209 3.256070829497756 3.3786473921056848 0.9828270662196686 1.9539083047573187 1.0373105419795297
Ni 1.5272073303375642 1.173683505512568 2.6092607530971272 0.9945402408915388 -0.8482431854627908 -2.059147928024125
Ni 1.324408890463342 3.4971353496003688 7.982798413200247 -0.5234071838524533 -0.2736605071777868 -0.07346284507584122
Ni 3.698102529534734 2.7893352515592476 6.735520922213609 0.8591963420401849 -0.3118521877561597 0.7948447152369924
Ni 4.157848496514681 7.00224846527536 5.548801021683645 0.4746241009114794 -0.11948944831760067 0.7465676253981595
Ni 0.7841926475915959 0.0737109322722094 13.260112429107167 0.8752973613671055 0.5007318537421247 -0.5405052769853207
P 0.46339760808774055 5.482864785076886 7.984841809192542 -1.7907635816436125 0.5524084561808099 -0.6991631679722669
P 8.602216648470792 1.8033014960223845 8.008127820487175 -0.0834621223803982 0.9936295561518113 -1.6701844998062592
P 2.047013183958849 3.493046744487124 10.119873323626976 0.2118013077791449 1.3375089475468451 1.1485246376622156
P 4.01636100205259 6.228078792879336 3.485073511234135 -1.2574527655242023 0.2900993694601004 0.4530088366345489
P 7.298069470708339 4.213448086668843 10.240816257318258 -0.3586218398115308 0.22791826794566553 2.5052469249127176
P 6.48028498855662 7.937269846150969 10.162995868953292 0.27653448629147215 -0.8724200398193105 0.1391866696362119
P 2.6253377648661465 8.498668871079493 5.790181026171936 -1.3697590658298022 1.2728102218168789 -0.4140082870016354
P 6.879789756029898 3.8542129065858783 1.4035537693095617 -0.5408562325668362 1.0014909611777592 0.0664758722350468
Ni 5.30277578158554 2.609926171312897 0.49088101221481656 -0.1282671945102307 2.3540182365103073 -0.12143551630037797
Ni 1.5715292602680546 1.2609221906672232 6.898445036743942 -0.053086595412334375 -0.285899729556456 0.1613547210928189
Ni 7.072171771790777 0.7514484506769019 9.269137947894084 -1.122358520789809 0.5522071388032812 -0.6617885839785506
Ni 2.8353796537103952 1.8126209773004667 9.168178411655404 1.3062641305999503 -0.6238928373740417 -1.538081733600022
Ni 6.606433414611596 1.9404828099328324 2.573170427252726 0.02865725872537645 -1.1091993577000314 -0.7072431167669239
Ni 4.511734947070342 6.838713326388857 10.158020643928573 0.2917415330492137 1.7770125506061072 0.30132249186942944
Ni 8.309777127976261 7.3339512867576095 0.37894116885161006 0.7480092429406924 -1.043131262426365 -1.7031982357281181
Ni 7.35576322445709 3.946673402262105 8.225213714149586 2.331571991691649 -0.5902527807220932 -1.4318684335660374
Ni 3.246325262986143 8.5280506209066 12.068138081739873 -1.1787263580565763 -0.7169703713570168 1.46430547104882
Ni 0.4890724163831265 5.2575472873283875 10.232841210936616 -0.5568204692055766 -1.2159104233060414 0.08523232690694355
Ni 8.80652905077054 2.575757761841018 5.770769670809455 -0.48827151649158484 -0.577199804192877 -0.13090797456718745
Ni 3.9544245272550627 2.701897122252727 11.566059186962129 -0.588746885600528 1.6613329629529 -0.4495946687466773
Ni 1.0942322079239368 3.5178503444645886 12.2214562406649 -0.03858711624457871 1.2731786608998912 1.149257659173498
Ni 3.3661005418246868 8.727585429204838 7.815960660471714 -0.20295954111779888 -0.040775382145149135 1.484699975544772
Ni 5.690359228163216 7.686931172986608 3.380664497732507 -0.5149611099676292 2.2483168431157345 0.9050640511065767
Ni 3.2030730789611135 8.427884328453748 3.331862326899654 1.2213076830622127 0.04880365176626434 0.170836435331009
Ni 3.8110695102800483 4.494328911998437 8.945586046272851 -2.170807338774345 0.9552766674052259 -0.3131768201048542
Ni 7.5571746209115185 6.260044251037428 11.381560654585902 -0.1209050977182047 0.41306289236923055 -0.7714217083273618
Ni 8.489793606321475 9.182408751891012 1.8966640232036394 -0.29946152740129073 -0.5518523265670238 1.6691881973312608
Ni 4.805706561276931 0.5754344538338998 1.4128551193011107 0.2040301484741583 -2.6305018149591857 1.3556259688625298
Ni 6.272382591523293 5.760663291695831 0.15979646760335095 0.055859273061465084 1.1368094061078162 2.379850624192379
Ni 8.120840056656697 8.996028191972634 11.306182550516962 -0.1421069286068004 -0.5536227882038852 0.35632764446071535
Ni 0.22005942465386072 4.954011419475518 5.735501598809336 -1.410098131768481 -0.2464600355035949 -1.3319741337715447
Ni 7.145322447309109 6.147893178186109 2.5849131549759745 1.2326218225234515 -1.2916808334691368 -2.163031037263036
P 8.773729553431918 1.4414916732517005 3.561394442202803 -2.655673686239123 -0.14712366509510144 1.4556863619212412
P 1.741918025464121 3.165214952679721 1.29925445009146 1.2403017076662124 -1.065001837247211 -0.3350257976591456
P 5.114219467283173 1.3318789805150344 8.285558261989495 -1.6333968986642642 -0.4192247982055683 -0.3291526267078202
P 8.630184157948305 1.7180119241700518 12.373870554956245 0.5152071645401644 0.7165204283037918 -1.3134125687192737
P 6.6668649926268655 8.008462342723712 1.40143059565652 -2.0108860076939434 -0.1445520477131833 0.3154563601676503
P 1.9353969840602605 3.3274809015088986 5.6715743087504595 -0.8815466847109269 -0.05674039011483776 -0.12533125181035834
P 6.993744891891274 4.259166125662393 5.677465163745107 1.4312973915539156 -1.7622991556553327 2.331425438811456
P 2.369804478110013 8.847705202487514 10.057565157455517 0.43530319182466964 -0.39661605966711694 -0.27728242020109023
