# total energy = -340872.42475480406 ev
CRYSTAL
PRIMVEC
9.20530608586379 0.00000000000000 0.00000000000000
0.00000000000000 9.20530608586379 0.00000000000000
0.00000000000000 0.00000000000000 13.47289594325674
PRIMCOORD
 96 1
Ni 4.9413069123363735 0.7146723288909778 7.206180359279664 -0.18147951686715197 0.33031322267482466 -0.02813815299711283
Ni 6.769222902038955 5.4334593833466815 12.563730949673232 -0.7726483816456113 -0.809042089783297 -0.41326523818802374
Ni 9.02100640408892 3.7633775674422214 4.467450907198057 -0.4044216717544648 -0.008132656409463413 0.09440396610388258
Ni 9.040411188783102 5.220826023929745 13.158465507815903 1.077526709187099 -1.1735373576564692 -0.021820181198885003
Ni 0.5232240603161616 0.5908278263475042 1.1079957159566913 0.2522105648341269 -0.19992512516684924 0.8597020780320098
Ni 6.4117072341297385 2.772297520329141 9.872964823099483 0.8875298988775554 -0.9508281447155689 0.35216117178785156
Ni 9.045566160049109 7.96092338445801 6.639497129599317 0.3337543871458897 1.1882839198380244 0.014151866020349822
Ni 5.489998371767774 6.740575990289289 7.214088637520067 -1.215633772605887 -0.6749816856300569 -0.7673542231262075
Ni 3.9179622682815918 7.584214653888751 3.567932355075084 0.7028087351446541 -2.4330832582642743 0.619120869906695
Ni 4.593999928595017 0.3351753111851602 12.037897185153655 -0.8991209461492644 0.4317956928920434 -0.49699269841466664
Ni 5.003847760160032 7.2054347295072585 12.275249552321677 -0.5752208260896352 -0.16732636529522152 0.6945290116343651
Ni 4.210571324768287 6.47858378100034 1.3395294093082075 0.9740076681558257 0.40784766671687817 -1.4507781259863466
Ni 5.518820184328249 5.9404231914409245 10.465758902772734 -0.5061841351059476 -0.06405517860869613 -0.5266274905619639
Ni 0.30770483752084477 1.2864046688202608 3.781073847373955 -1.1366438270642294 -1.1644775614470462 -0.37453439727672916
Ni 7.781631642765137 6.202461427259034 5.900683886163515 -0.494098150475691 0.3361866507364662 0.058687743649195705
Ni 7.344029814116176 1.4549446133011772 7.981828634002833 -0.3760498054799911 -0.19503103029934152 -1.0142603450282857
Ni 0.8779551232111508 6.10400147607831 4.37124073276271 -0.033390916755619914 0.31806834386920063 -0.41444100366367975
Ni 0.13033332262455927 8.999106981514224 12.089417440835057 -0.24202025456468643 0.6966342309028261 -0.13759721366190494
Ni 2.798679926844096 4.52137927088515 5.941884073476488 1.81588300241906 -0.6415573445333402 -2.532802723043799
Ni 3.249104746517247 3.8788028972716067 10.119680827359971 -0.7606706404584448 0.22438531509174256 1.3253915954580207
Ni 6.034409363987223 4.3825172324071 4.928574133309338 0.4339685321736461 0.4916358049781275 1.1440218646958555
Ni 0.8702291100262235 4.424042367015949 10.475337944021675 -0.46487884859925743 0.16769377593696927 0.30229925396040197
Ni 6.993141966406112 0.7902469692423829 11.964402943920316 0.1412540936882019 -0.7924376484573966 -0.16718675439356367
Ni 3.1356769680534393 1.2424585387775553 1.1530805423308343 -0.25619191807937813 -0.7223198085943883 1.951823911424464
P 3.5220420644406274 2.5882466355210445 3.266503695070602 -0.12843457332603045 -1.5811070881216125 -1.834634314884634
P 0.7231706672352227 7.3791664664775105 9.498944041833214 -0.4017163570081598 -1.2925421530281676 -0.7027377726974026
P 0.6336647170374351 5.007106438424614 6.227886481967445 -0.8891849179824751 0.3974254429422897 -0.3519151172153165
P 2.3068312309262495 0.661594535462775 12.159396175771095 -1.803940999565835 1.8832191657718726 0.7144213796829181
P 4.5053528334313695 8.485091909152551 0.6447359383617672 -0.620028726432945 1.263250860263218 -0.01349392072137676
P 7.2696693536040335 3.896200925294379 3.1635837732141994 1.4360660165871526 -0.6467229478946798 -0.3936760032021865
P 4.3771965656361145 8.1156001383557 10.333360830050024 0.6411865914574828 -0.8783916840217131 -0.6709357976954574
P 0.21259929978535747 8.132731212509341 2.6331694485125414 -0.7840620227991916 0.4311004665972317 0.6558897019956124
Ni 6.004077881270273 5.2922960184105925 2.2551609287597834 -1.3516842106059623 -0.5928261978762241 -1.9274670798466547
Ni 7.846464611741 1.6296244967721405 5.658292534582972 0.03293737415796909 -0.036690670552814234 -0.01797252531802066
Ni 2.962838145748907 0.3927333269618725 3.8134489079856424 1.0865913904925286 3.496485869345165 0.6242949579084668
Ni 7.409010067985355 7.547586741982609 8.356644753693 -0.03351561525894228 0.4303337636345363 0.6586173853394205
Ni 6.353207515566397 2.0807489196885354 3.863931725699761 0.9924237087691682 -0.3330743303597296 -0.5801534875045621
Ni 2.735402654553866 1.9653972323058075 7.079278774669331 0.4681315512086002 0.7966537434212732 -1.8710563051570936
Ni 8.219638504870712 2.7178481363319476 11.72656545713494 1.4778945225871645 1.3022295555192605 -1.0493931841756765
Ni 0.9033479593491489 1.486923845762082 10.233553222095471 -0.4148860616208984 0.5328032803553727 0.40546991051332104
Ni 6.6717110973589415 8.318273356862246 0.11466681262881556 0.29794663341866107 0.28147768922936034 0.4776461755672548
Ni 7.937882503960126 8.450581217587803 4.487309513469763 0.01515433914293519 0.1836497850455934 -0.36096797144620413
Ni 0.8031141457345683 6.599136466178235 11.587619650373819 0.522644594654816 0.5098872949891476 -0.6866151561039271
Ni 2.147045532291712 8.5078658357813 10.594855952824037 0.7045030921279416 0.7753123016310196 -0.3554241588098395
Ni 3.2434710993479685 1.0991227216650776 9.124451028377756 0.3413381130304186 -0.02003275028115905 1.6541048206355773
Ni 2.1578801772561578 4.865335523303603 7.95404702100139 -0.949026572730456 0.5910336247521757 2.4676365707591112
Ni 2.2729925266872497 8.412646152253494 1.999836122485064 0.2877666075618657 -1.5891212166753403 -0.2380281026861578
Ni 2.1014056259758904 5.718520089051009 0.3503401320130515 0.6169562581552085 -1.4683778413459807 -0.4263557528233948
Ni 4.327985000657417 4.922399214157128 12.47883869875852 -1.189784415642951 -0.43297505791212526 0.08202641837513615
Ni 0.6934016287046184 7.441062942892917 0.45639814262763617 -1.5211530761654835 0.6486695300980893 0.3127430750015453
Ni 5.661235470857512 0.5576150829050908 9.537517034861692 -1.1283342787572697 -0.3357066257762541 0.24127180643443608
Ni 7.544917203291284 6.108972341227674 3.571247185705243 1.5505302437760198 0.596500818514334 2.0769031951250168
Ni 3.340283300784737 2.407831846516649 12.81424598365065 1.621541541987575 1.9172333179337884 -1.8528089289111316
Ni 3.5344968432315325 3.8803862098747377 1.4254729061489513 -0.1935575310776086 -0.10890987302954147 -0.27171983851164816
Ni 9.024495214999305 5.927397683688427 8.152718693062697 0.4658772079567847 -0.6475030205938139 0.2103972283427667
Ni 1.9397328396457607 2.6466543010260644 4.6403753388468285 0.30351512864537405 0.1234072953147681 0.9679568339760555
P 2.9089502854074745 9.097907529010739 6.658669020055945 0.7916262082996948 -1.6515486298726267 -0.3743953005957036
P 4.472462275693082 6.030248565751089 5.231215132091914 -0.24609159642058265 0.5993809682756065 0.9025513119870521
P 2.641941184440001 5.807001488709678 2.4862343568196916 -2.750932801254449 -0.09494312643680423 1.2855556944080055
P 8.098653170318705 1.6775197030168405 0.20600461868720202 -0.3619344491245315 -0.6033677208374963 0.4303576748939362
P 6.597893749890894 8.54747626677706 6.65301051856092 1.52629631092932 0.5789229575315707 -0.3753556076264439
P 8.098183699721265 7.102500999692107 12.436479563441278 -0.3781635093888842 0.6617497603208151 0.09379204355149655
P 5.832896014015529 3.1495309533308316 6.782497873579505 1.252867974366997 -0.8407970135973907 -1.13302962735041
P 6.323778152820998 7.5759482892514765 2.437583394966172 -1.0712994973304646 1.0341092614334126 0.9708657800927346
Ni 1.2552999404134106 9.133752989921147 8.35310071094762 -1.1574641062436906 1.0034455138009686 -0.9689791045929829
Ni 2.590805710542383 7.960352655496416 12.972363680868401 1.8893250215592943 -0.09041747065230879 -0.27434776305279845
Ni 1.3863282636282976 8.468918186805455 4.696799260945019 -1.2032891349976051 -0.9534588974701966 0.6050317388034806
Ni 4.495751699448433 2.2445021051367315 5.1710989618244465 -0.60363511556627 0.25695502149764776 0.725968203980253
Ni 8.714948395781448 3.4425818644974697 8.827131616896748 1.0037707583508713 -1.7516193073439832 -0.167713316320995
Ni 8.004372427985778 6.748934407984885 1.3840978180251666 -0.4658031601857397 -0.7337136522536267 -0.30662899168400737
Ni 5.945799090046903 2.7989376754073962 12.249718636596196 -0.45823486092017857 1.4776631233026487 1.1314365718316772
Ni 5.5311276782258405 1.282308307724952 0.6631152519862469 0.5549746742460893 1.1036491173057639 -1.0038910859788195
Ni 7.644159605467742 3.7413676811975405 0.8105538739081157 -0.2491470954174548 -0.5095512518059676 1.0078325871250706
Ni 6.415223660957621 4.878701627371892 8.64675641070743 -0.28965971081952047 0.3975308581719024 -1.8963508180578244
Ni 5.007410213517074 0.4352756478651745 2.7139662588625275 0.1120928987432134 -0.7623642261107839 0.2909820291753698
Ni 7.784623367160586 4.08339081939124 6.886872233757387 -0.6410642069470056 -0.5861544422830034 -1.6750490269874123
Ni 0.5982629518681353 2.8891496725625103 6.741177096760129 0.14550052766938168 0.0457779775660631 -0.01991036577068184
Ni 0.279378270414139 5.123397067002222 2.463869145769889 0.3867569074848501 -0.9862710589042111 -2.0946273518776573
Ni 4.08078571784074 4.6373016872294714 3.6109248154335782 -0.2860573381802428 0.5872957549762982 0.46406509444871047
Ni 0.9874071300860509 2.403790717256333 13.148117823529978 -0.37150615197336667 0.06487793162030762 -0.08479395381794429
Ni 1.39172257284594 2.7983117146108096 2.2539080866360273 0.039748997763163804 0.15426310435336013 -0.131608857288954
Ni 1.9444643668434884 6.728627503319153 6.3048299512960915 0.6724509487884031 1.147609582047114 0.671338689560831
Ni 2.9625343706564453 7.572100471413636 8.270633137589098 1.2836489643035958 -0.7529244208541227 0.7032851605604404
Ni 2.88876304971756 6.310688207927675 10.461150726673159 1.0653605061382103 -0.8267302510916794 -0.1371336437619251
Ni 7.359826118924154 0.648251444659067 2.076038564694222 0.8483288031980616 -0.5855852000430948 0.3805430653646543
Ni 5.419485729093471 9.002181553662163 4.97485288784991 -0.2092129782266784 0.1124202001756451 -0.5624388438336185
Ni 4.660756806489801 3.041377815108849 8.446818088563617 -1.1450179100605378 -0.3325282280482724 -0.3534472375891268
Ni 6.794997758368987 8.053445913376995 10.596620609952062 0.8798099045254784 -0.9004149823703396 1.3100238547526988
P 0.7284453074770473 0.8344131060944768 6.136836801981605 -1.028477517068932 -0.44029370306072557 -0.6391356224657251
P 4.129656686503648 5.314554447912742 8.671087875082982 1.3410907513608321 1.1532192149244074 0.19117231867488366
P 1.7735126322345474 2.9184317504145936 8.731339363346182 -0.9482956081017023 -0.9585769354230522 1.6505587551555319
P 1.9982141475974382 4.093222086019981 12.286337343196507 0.2581518700192264 1.4879642481183406 0.04324698361409326
P 7.643515234059491 4.386098096375808 10.286232425781142 0.2756060609399318 2.525138264520006 2.9883117003923823
P 7.91982169391744 0.9593217419921475 9.970549349695569 0.4201845910156763 -0.2966921921862697 0.7825610127736329
P 4.50608005259211 2.2936124117512757 10.84181405662791 -0.24656699339510435 -0.9062444445679232 -1.4433370963272691
P 5.499627121668207 3.9131663039430395 0.5474846438368047 -0.38972344631234174 0.3794225786069659 -0.0018247119135645995
