# total energy = -340859.0308735621 ev
CRYSTAL
PRIMVEC
9.40473102900510 0.00000000000000 0.00000000000000

0.00000000000000 9.40473102900510 0.00000000000000

0.00000000000000 0.00000000000000 13.76477450573032

PRIMCOORD
 96 1
Ni 9.358262249719324 2.9861055527065554 1.595364964235852 -1.1487629789252667 -0.4045129459166904 -0.616795564207628
Ni 7.418592904051267 6.97074901733763 4.474060964843894 0.9346505065144419 -0.2053154429444851 -0.621347959465001
Ni 6.567887959119999 7.028710374649126 12.960884599612656 -0.07319493612643523 0.6795929591498232 0.12794143573969577
Ni 5.758460378660606 5.018665426715625 0.24321292763676983 0.5628980428582241 -0.7470695047352425 1.2381139559862742
Ni 8.84809321049826 6.248258770479969 6.914803093884945 -2.2753825889842747 0.9077200006721851 -3.7443245303638424
Ni 7.389353595292311 2.2298523214665686 2.8707809789767986 -0.8106487721487844 1.1634794591998348 2.135613564482032
Ni 1.847803933008851 7.352938476760734 9.062631113237616 2.206844177793245 -0.9969853599979217 2.888889198027986
Ni 3.6923162101587006 4.613161639079768 7.160201681012092 1.7315891281659854 -2.0231532550970703 -1.3708929223239292
Ni 9.013654095474987 5.217961081881602 0.8511008841074496 -1.8840018095741684 -1.7534411910440706 -0.31384350715457565
Ni 2.8883433736942234 4.939176640086261 9.285496905300246 -0.18373900232529 0.21027227272912816 0.5831115416916215
Ni 5.176269909244597 1.6381348595215073 3.6732123800261607 0.03091648707319837 -0.9105183893529286 0.4990284978977728
Ni 0.4741696098008248 5.408068314835454 8.45486165637786 1.5155992362267898 -3.0431764707510625 2.5428757910090853
Ni 6.428237108119122 3.055484253483273 5.0703510070136595 1.9211627348951816 0.6528714839945788 0.1649028434553934
Ni 0.7578849520729491 6.270011913342453 4.705639299728749 0.3437400376036919 0.10409213992592395 0.3165987013022096
Ni 4.076207925897458 5.805446414865091 12.563261036103247 -0.8395536281085928 -1.1298638280279185 -1.20785001489541
Ni 7.591649359655492 0.9455610620566526 1.0894346372880772 -0.5041822741845704 3.6606284375957667 -3.147644505959166
Ni 6.787949260390762 1.4845461971405163 10.852175558961457 -0.7821468080543498 -0.7609634891085153 1.0642104516941673
Ni 3.5099490708390144 5.731402967499617 4.678468091322349 0.17082357981520258 0.04702264860644159 0.8522317377968935
Ni 1.201792958852323 4.250543424921182 5.537101224508295 1.364538183750495 -0.7455538394216644 0.09740392927247095
Ni 0.9534234171941522 8.06041877290135 11.685921892907148 1.0922910119804672 0.7077948755053358 -1.1414289071576988
Ni 7.485479351106169 3.823418160657201 10.87320829942737 -5.212649149874384 -0.4191152692108976 -1.2612747103734536
Ni 3.6731775825213657 3.4231339987406173 13.415740653779068 -0.10661362079619705 -0.5136637313124445 1.2732501375677747
Ni 6.1794913772199225 5.612931570768655 6.408617898726373 0.25713088495387976 -0.986880667463752 0.7141853524127119
Ni 5.929184460970454 2.047804943001757 13.200900859173785 0.10358486127220225 -0.25939602683897256 0.40049354034465223
P 3.107972057337802 8.216104690301076 11.598983618832316 0.11606473890676786 1.690582860956953 0.8653381932718645
P 4.13718820186821 1.570749961722242 1.782620682742706 -0.02390586008332012 1.6751927516541278 -1.1598598601693766
P 5.343627097847238 9.339697310674559 7.203918632712036 1.632930757661123 0.4623679092519456 0.7499475976139859
P 1.2299977471984496 6.462639614211197 0.870385285075683 1.7263921573460783 0.990165765972927 -0.03884294100912665
P 3.9896655909988072 6.646003655019609 6.836014019243894 2.5057858281353234 1.5316251793414009 -0.13325436331217694
P 3.477559177186444 8.144073855375106 4.076741174146617 0.2159814072987635 -1.5106220947271727 -0.6410454378939282
P 5.267956632014316 3.609168983160333 11.8628267644471 -0.5108283187461783 0.42477015350382974 -0.887101295980569
P 2.1643295604103954 5.769181772029924 11.227982027437404 -0.08420619963527433 0.4895341852540924 -0.8020250350355155
Ni 2.2173628386644157 8.2092016177282 6.07202727768146 0.9581848421909563 1.354122901954442 -2.4222293462689057
Ni 0.6375815137381773 8.223920021783448 7.615498817063608 -3.122074627909862 -0.13588511606680467 -1.7156531736620193
Ni -0.08709627355606622 6.302298354953741 10.520072875562015 -0.7238208186199471 0.332319454471576 0.4560496803434017
Ni 3.8593912568305697 2.6033424046908835 8.827184612481885 0.08875216713474392 0.035857633128557595 1.2127752201111694
Ni 7.602784561189941 8.56939341128215 6.744505045890562 -0.31967039824899784 -1.3773168235724023 -0.4529448161658328
Ni -0.015828162316282375 2.6329579026908676 4.112198891059777 0.5500026749527948 -0.3276073937078874 0.07867652806629676
Ni 7.291534987893825 1.34353166014091 7.176967495011638 -0.78465054831281 1.1906891868454075 0.8556397350371779
Ni 2.5307284764413196 3.5416524191267076 11.335814792432075 0.4703460423614157 -0.22275009348116478 -0.7969543053808275
Ni 4.427389987128772 9.458243945253725 9.339234597908094 0.5389253340927106 -0.6155467794021916 -1.0535678843786567
Ni 4.111259358430307 3.661929524214608 2.8426871664567757 -0.7016872199457013 -0.06300822540142052 0.3181081959682005
Ni 0.05819459464093409 3.8620622004418736 11.056830029865885 5.034370656443033 1.533281226887585 -0.06583541043757049
Ni 4.902911997251095 2.4938807402825587 6.602907415567361 -0.7287624788959385 -0.6280438834279377 0.1002416558315822
Ni 5.953034858851673 7.367722713933161 8.529493839905545 -0.99388666646794 -0.15001641326186424 -0.8792620024418083
Ni 4.121388253745005 0.42739612051752185 13.367702228172805 -0.4169290601928562 -0.15910063495131954 0.10617884725162359
Ni 1.4942236653659795 1.1675879521117887 12.402213481545761 0.21801952077471484 -0.014281449619678631 0.47974702396034147
Ni 0.09050642902599135 6.798915176766748 2.626676482838791 -2.0337708827119165 -0.7478650040533442 0.4559494073201116
Ni 2.5874860281815235 6.312116894144589 2.6430435362428466 -0.13660271095911958 1.6378821881291277 -0.4281809789575916
Ni 9.136658572560346 2.690768784305952 6.581021665997414 -1.0181900190999946 1.157547409986116 -0.6544925645377696
Ni 8.426864712587403 0.13563409037979368 12.090619695094102 -0.19600393573557212 -0.5967661563605787 1.43065821530802
Ni 8.355294709481694 2.783189076095677 12.852279706200774 -0.20589034161134864 -0.24489011991331375 1.3973151210712
Ni 5.820230652037519 5.024806716075418 4.000539341010742 0.6659627699608983 -0.9415636886945075 1.236451994902819
Ni 2.053052782914107 2.1982148062960554 2.0862994475631207 0.6821532636778317 -1.9580043292035634 -0.35700847257782387
Ni 2.1973025473865606 0.3507757768510022 10.169388324601963 -0.2403806620787344 0.12948821140152536 -0.10937807091521164
Ni 3.585948702257837 9.029218925322551 2.0184255037505183 -2.8802762595479945 -1.50750154682032 1.2969929897106693
P 8.417554028871942 4.553281716639026 5.5862550512142075 -1.290713841570177 -0.19088075557639383 -0.7121842628222832
P 6.894956290001374 3.171914823581654 1.0459010778431341 1.3361485768642085 0.5733991994998641 -0.5189411776612998
P 8.037292539309112 5.426125398404832 12.267208567671586 0.04702856214371256 0.5770144276549481 0.11454933070350594
P 6.774020853741673 0.0150851885652507 3.6128123759596957 0.4892158826827252 -0.223986279881111 -0.9270927487718421
P 7.753730494152706 2.2368118224255995 9.22493137796773 -0.03975362574885411 0.22744801317746635 -2.428345486468973
P 6.133803193896988 9.266584931680631 12.583894075500568 0.6696188786562468 -0.14764508481621025 -0.3656352950148864
P 3.3672793011788817 3.596246882730997 5.126621393686731 0.2757060768529058 -1.1418701084601754 0.02559533197060108
P 3.639433407601092 5.0888811485536305 1.2562463514912268 0.8927312405728366 0.36352673331231583 -1.3995717783158605
Ni 4.268769793649023 6.8934703424993105 10.402109334306441 -1.2788654268720232 0.7633967811403563 -0.9362535893355036
Ni 6.919737756254139 8.327475515107622 10.475310117772011 -0.5027167453826373 -0.26498406244971134 0.9286243549250202
Ni 5.15999031983908 6.623808489798915 2.7481376435628286 -1.5284406109658322 1.7295695266327955 -0.5127283639823687
Ni 2.0400930635606684 6.11122243470424 6.796508506097266 -2.5338612462153005 -0.4017760066015016 0.7786030565671493
Ni 0.6004140167245422 1.0655748346758322 7.816396097923266 0.5777232807965148 0.17625914900847708 1.7040662401553686
Ni 7.343119937569885 4.04049816219281 8.117169741329837 -0.30471429115979776 0.07832351560225222 -0.3927306085697817
Ni 1.5877066917616105 4.168900954886929 2.9541134791763723 -0.6333259577624835 1.447749623572668 1.0024276140594155
Ni 4.283977243717607 7.262615439989744 0.5079692726341505 0.40610240189099733 -0.2912229415415823 0.45139238407704846
Ni 1.3484973581224886 8.572675662410125 2.246052911131469 0.1733183212125983 -0.18851096979263662 -1.439259840934102
Ni 9.344117534256645 1.6004030786463288 10.449803546757161 1.1015878639013608 1.2936981210094816 0.24280392680824633
Ni 8.135628406914012 8.397079929428955 1.2761514647071575 0.21547387153472566 -3.982307381634361 0.5028242174947792
Ni 2.136388104532989 2.8171119409054395 7.19934887390664 -0.2019213296612716 -0.21569755750975755 0.004632356565688796
Ni 2.205240140372266 0.44783918434812375 3.90180471281035 -1.0118609915581736 1.251960117840747 1.4564705483854337
Ni 2.2770734759466955 8.345137599973919 0.021543417360610835 -1.2841827253198785 -0.3674574358252897 -0.7497961596377861
Ni 4.336681356385728 1.5500689581966893 11.232826404388751 -0.4415548291613363 0.9180396374306382 0.01065439439005262
Ni 9.11220627189348 0.5328965122178144 2.8178003672165226 -0.32410169454747406 1.1535853400145746 0.7198096405780248
Ni 5.582770598369179 9.124366589109734 1.487944126460108 4.101418620676936 -0.021237569222537618 -0.03605123719660243
Ni 9.140853082597815 9.007738519659812 9.657159649286266 -0.24165284392293868 -2.1643559267220467 0.30721880274920643
Ni 6.148305289138644 5.80026440806992 10.716895086468229 0.9167803111022405 -0.6203714544843445 -0.06158640535322942
Ni 9.096425133232326 7.146241298277516 13.293496078960588 -0.5235534796223306 0.2788358807311392 -0.9128467803757891
Ni 4.120306709677048 0.20671504747216576 5.500115238803457 0.18826568655104997 1.3122776837838819 0.27924622879568034
Ni 8.153064778235692 4.8934884567633254 3.301619231049733 0.17133240113082107 -0.8455849219043372 0.16165039795636676
Ni 5.393679076366106 7.461459668066486 5.227365812907319 -1.6700490026696593 1.0225806919685227 0.32883560968803366
Ni 9.271324916117592 8.397738260600756 4.652521378895497 -0.12258505652378889 0.1413600231384469 -0.0600267741755934
P 2.584344848018934 9.261261853920075 7.968592860112451 0.3602143811096312 0.6057508763576923 0.7417223814907161
P 5.213343358947975 4.81154503533625 8.716185274550854 0.9656847501124273 0.059526694610723296 0.39950906494419586
P 8.107912664581223 7.324216428208192 8.605392840702391 0.18401333903259923 0.506442788083973 0.9677105222932044
P 1.4291899503231438 3.1470769289427345 9.3965780643912 0.3986292334424038 -0.24331737610955512 -0.8340879770083313
P 1.1159465740495746 3.262745715828033 12.941393294561855 0.14089388213530574 -0.3931777234095293 1.5121274756281053
P 0.28293474959698983 0.44465568289591845 0.34737032374659 0.23411154124057101 -0.3085660608057202 0.28998649803131993
P 0.39764613486387 0.7004512001719956 5.681204275176748 0.1399950244701202 1.3052223195989974 -0.1932456562641446
P 6.957356680357008 6.539212934222587 1.691979766063047 1.250630857506362 -0.4415394025423686 -0.36595796846162776
