# total energy = -381161.50215157925 ev
CRYSTAL
PRIMVEC
9.30958104829703 0.00000000000000 0.00000000000000

0.00000000000000 9.30958104829703 0.00000000000000

0.00000000000000 0.00000000000000 13.62551289106199

PRIMCOORD
 96 1
Ni 3.1343684375823506 3.571564992686996 0.6387219915853276 -2.178319845101307 0.4298956476558532 1.824059110471949
Ni 8.463172750471479 5.608482753084473 2.356191711605365 1.7960297151385587 -0.6068713631153806 -0.859998526226506
Ni 5.638971631709056 8.768731826567997 9.825003432968101 0.3967232746689426 0.7472255706971325 0.01714308743818983
Ni 5.47516954944965 1.7179715064499197 5.432301720624422 2.9227110316734373 -1.9954599029468603 0.12657078064441427
Ni 8.11196879746005 7.643045189423318 3.184568492607494 0.07468283352587138 1.621321455556969 0.6614507410231576
Ni 6.3791857472264 3.8200749548258193 5.108831941142916 0.03454302808219212 0.08337779019670802 0.5847153958436317
Ni 8.430179594488111 3.281915990962818 9.56258961121834 1.4347539826439486 0.29293889579142457 -1.894242770575886
Ni 3.285732919279179 3.1851428937711996 7.642346039870736 0.29998114735018655 -0.8567491660512729 1.688153425579854
Ni 3.432647421134006 7.658675976357875 8.999419526343797 2.5317251737089044 1.0041353407791416 -0.5901921026874868
Ni 3.2514736602445313 6.561197370429223 4.1021375787817 -3.607554183478606 3.7635165299112603 -0.77524519583851
Ni 7.619715378787223 4.318789222892679 0.34932993430390946 -0.8730350476954899 1.9154895957698044 2.7117579308272006
Ni 2.7788820771915903 1.626718990945134 1.6950550412217438 -0.6097139747704983 -0.8393247999272383 -0.04561754072879885
Ni 7.485424669120162 1.7206805945964092 10.738062957980246 -1.5039004597326229 -1.4847066604129915 -0.3542465935619706
Ni 4.275090048460986 5.581596682407283 1.8868612748675964 -1.639778376710576 1.2994162544401815 2.3704712398600076
Ni 4.265668752226458 4.862952866668004 4.362303136657311 2.345000606392729 -3.652616365924567 -0.11006326990769431
Ni 6.5960803714082505 5.8944265414674035 4.07266623738877 0.9427921617849697 0.7811240232167902 -0.8031666048391265
Ni 3.58948593661137 5.333487032262615 8.448118226616879 0.20269266060965735 0.15518304506446823 -0.3457874070510238
Ni 0.49430245750802315 5.685836063768952 4.6477302432803445 -0.5647646637533177 0.448918211504943 -0.9301086527800304
Ni 8.912630024094774 0.9375399998919034 7.695798862587918 0.6310780422685711 1.3861745310733482 4.35492245040119
Ni 8.181148295798762 8.102752312013228 8.176425545225861 -1.043063385302907 -1.806659941158895 -0.8594225991183779
Ni 4.933724303402077 3.4409143292923665 9.904331305837703 0.9536342467057964 0.14563705324724596 -0.4492578542325488
Ni 4.540385185610534 7.0450907851310935 11.307159522284536 -0.49368883085241433 1.3079556593697603 -0.031959069405099794
Ni 7.854596113962263 5.567334403917859 6.093002702605102 1.3989117761343586 -1.3555439506716849 0.9006196421819781
Ni 0.6913332281566594 1.6107251303414591 10.915426307260244 0.2650097734813242 1.0073728738798329 -0.02314558487852788
P 6.216296003930417 6.870387183216912 8.871707897752763 0.935610556434866 -0.28781288741876887 0.14031744080654543
Ni 1.1737613147682988 4.096150587073771 7.789446733350751 -0.7708774057881175 0.16832909552812303 0.3530644003284113
P 0.5166454525306191 6.622389248047357 6.623348134917077 -0.5156295967895635 0.0070926451807232695 -0.6455453826468107
Ni 5.756160640602572 6.299970520290038 6.116465640253207 -1.2034215468104112 0.9212674003393165 0.9592726759384963
P 6.6351340647914965 1.6808262772248537 8.621107003663075 1.5052559453192527 0.6122215716837004 0.5103068990250695
P 0.759846160477198 4.639048127797814 10.378798769514416 -1.6192830849707016 0.5964717650486114 -0.6610691893140228
P 3.6040926696073923 1.833940960198452 3.5612592862328243 1.32022342099352 -0.3909573187194428 0.22681397913789325
Ni 3.4738609373694365 5.6300158145375 -0.5104648215324934 2.4761330382658966 -1.8337459987424096 -0.1930296835985966
Ni 6.556179506130397 6.7477613788678985 1.7392010755538894 -0.45349888889708995 0.42403147556559223 -0.6215287080172393
Ni 7.006409474998224 2.2814246025947513 1.310008898416089 0.5380138780220346 -0.6755198175217141 -0.21397157595758634
Ni 2.6274431188446865 7.903704155105677 6.575264147712199 -0.9500156761166025 -2.825095243500477 1.521436411733857
Ni 3.034942109731799 8.55624994390311 2.427330876799184 0.8581617301280834 0.1529047905532528 0.1256312995492804
Ni 1.483425916200219 3.805700961361283 12.31236807547675 -0.41128266054035617 -1.112273368639665 -1.7841375916866629
Ni 7.464729469980483 5.00987667810409 10.615746231729046 -0.7950969404571145 1.1931911273316547 -0.7116803266026711
Ni 8.028685283513324 1.1114615969802937 5.880089786327904 -1.979230328461875 -0.7939535708812907 -4.080626109411617
Ni 4.702623258218359 1.6617043973180157 0.1921060021624057 0.9551051748243681 -0.3996435336395311 0.18940159992770608
Ni 0.9763330249998854 9.25035370344257 1.376803282036139 0.17268145895954776 -0.3823335816061738 -1.0583187688000804
Ni 2.4232840018257162 5.099900328882633 5.70735981564072 -0.43772234278912353 -0.6005899009820431 2.0142677796819823
Ni 0.2616606766258728 2.274079342981073 1.9057047982947781 0.335872461930157 0.03173769742291309 -0.8544541993695092
Ni 6.823885824826134 7.385998341269611 11.440266984173526 1.0321397964118675 -2.147431383052566 -1.6303707102434308
Ni 1.4218337265879295 7.010682572796296 8.45168752007174 -1.1921729704797854 -0.22282928345853234 0.7836028237745859
Ni 1.2798719219631105 6.968091238534472 2.1488934037857197 0.014036166378091955 -1.508915396448711 -1.2141610447151023
Ni 3.5707178207923893 2.997992381713181 12.262689357002133 1.5713543796102227 -0.569945950843941 -2.7374563640345695
Ni 0.8862283808643858 9.411800461643345 6.08544052974808 -0.6686200050780872 -0.9131697109328466 0.6723473333310034
Ni 7.894040809758405 9.11238570917804 12.107072258586005 1.2036830280019142 1.021273543121325 0.9538363354142734
Ni 8.809945342803427 7.26013280264232 0.4598914522988476 -0.06979773751942818 -0.6533844190752552 0.4443979550370863
Ni 1.8044388971873657 1.0699687933070814 4.342928036140217 -0.16911173933041843 0.7594282834109114 -1.6423289110465715
Ni 8.154029485590085 7.900175823808358 5.592142576057947 -0.1864191202606144 0.2547914381874257 0.16726594437093129
Ni 8.507281546478588 2.9508952101218004 12.486910621635142 2.541449857195836 -1.2643536064090937 -0.1858917870022347
Ni 2.0634593765680687 0.6990797307226186 9.133985799616136 0.013091800186951646 -0.3844328873373637 -0.6488117121029083
Ni 7.190013036596406 2.003412577444842 3.7555455923261847 0.46995652023248097 -1.2189147573500039 -0.3085354646781009
Ni 3.718414327473008 9.015556754498865 5.173702965274771 2.5992258876640397 1.1102277989645462 -2.625989786021445
P 6.794048616889709 4.35967690378403 2.6785443413357415 -0.12824431169209527 -1.2116696457518166 -0.6282696262854987
Ni 5.1302123254632885 3.0243478062585845 2.585250234660766 -1.0543415293198874 -1.240333332235096 1.7838619694277729
P 4.49239429421825 4.685530867026073 6.58204897053406 0.09546197505475172 -1.1437830092121721 -0.19282322401474533
Ni 1.418687088122247 1.5663649756403468 13.084253386438622 -0.23193458819391025 0.16375253190103412 1.5514365576403732
P 2.147226988740284 5.00765168818309 1.9450964294777406 -0.5746065895444039 -0.21557517299928033 0.7811309651953257
P 4.442960417730756 4.9645483269519985 11.305510795443494 1.1314527697815935 -1.858086118149671 0.06600587457716374
P 6.179588325024544 8.947931956230477 4.989444940114052 -0.08674079313166998 -0.13239741462852037 -0.39705366142516785
Ni 6.449752373172766 3.6523535388561994 12.21420971259373 -3.2904430613163522 0.04922762667756038 -1.5478822646302117
Ni 0.660515721313618 2.804213447798458 5.574279351537382 -0.6584914012845176 -0.14517014091315644 1.6024927528862403
Ni 5.979851259103796 6.0133285133126515 13.270146174068493 0.2046248446353637 0.6600690301842825 -2.2720303846825907
Ni 9.477339913709626 7.102810188939467 10.640980782690814 0.5039681012912353 -1.1471763511644373 -0.21320821542900056
Ni 2.7127095735996685 7.590650866095329 13.578123879376207 0.0651502114450878 2.01662162462614 1.8489453321906673
Ni 6.542419945028983 4.700603079085065 8.414067502202442 -0.777506738179177 0.6161126792079905 -0.911075033187347
Ni 0.9558891845542102 8.144077543223771 3.9789364423108546 0.47200903188613547 0.5710270997232617 1.421599190429545
Ni 8.535899199270029 5.73121096282734 12.402377761883402 -0.9472396560333624 -0.025551880327175345 0.08077377691495767
Ni 5.770785992761113 0.5409546311152035 2.4564214563186044 -1.1456347177089303 -0.5477845842555534 0.4214763132439064
Ni 3.047593830663344 0.20147050995125124 12.220096160824056 0.8631257590015781 0.42389829242183774 -0.38339776120463
Ni 2.4607364472323425 3.374630110725332 10.019957236037762 0.027290717395153 -0.4792029785314134 -0.5910433949441886
Ni 1.6666198562229866 3.6323658678922355 3.7512538753655944 2.2048330609004867 0.6256121340579935 -1.3869651452954435
Ni 8.7343236142332 3.6684870431787657 3.6117423525282537 -0.7476724284265639 0.29827496329235725 0.8609953429221365
Ni 5.480811155692856 8.803102800577758 12.62813883125672 -0.304914580096062 0.9972046750975794 1.0060919502848802
Ni 3.9853014030179166 1.381895622985039 10.22848161570927 -0.10156525973901218 -0.7291139486980862 1.0992147356834943
Ni 8.750876049712438 5.631319155913817 8.466267255282109 -0.3015649468975387 0.09327242360260066 0.4981067574144519
Ni 3.548356206607275 2.4265982127540684 5.610018833992276 -3.047904986574983 1.3505809502394548 -1.080139207109282
Ni 0.8753156897120996 8.338145074157536 12.557382289852661 -0.4352504842098633 1.136584434581204 -1.0272392737864566
Ni 9.064404127367016 9.206030787066496 9.843397303620453 -0.07526647394348329 0.3777806721281687 0.9185623427033276
Ni 0.4933845327958449 4.2141402199555955 0.6712775972495018 0.672156557476436 -0.1805976284828309 1.4694823872640692
Ni 5.267370386158249 4.143331544896485 0.7240927136504147 2.2972531638051206 -1.6486085734076965 -2.529322992025315
Ni 7.719048610825181 3.0196557773038393 7.0008023142056794 -0.061034903725133594 0.9210120897954008 0.945641715418623
Ni 5.16741341217591 8.178541613046125 7.475010971523381 0.31552218040857916 0.14293688070726351 -1.1967875864336615
Ni 2.6226766132398667 5.852086565899584 10.55635296521023 -1.6765063282592285 0.29766509762250026 0.3212287438750532
Ni 1.3261777791474405 5.827872345043846 13.017324944848436 -0.4556113072544024 3.0059715795659905 -0.16495786506304494
P 2.779617534111084 0.7611104016122264 6.874207835365776 0.05241142372218071 0.6359291997132854 1.0110719199979747
Ni 4.719250170347674 1.166341578504545 7.9964862348113845 -0.8225329251808803 0.08157801798380789 -0.5714523601861384
P 2.402514326035962 8.162771182392676 10.67398138633919 -1.6715217305604437 0.4922274158155394 1.0509749268404995
Ni 7.761416515136779 -0.2777159804658598 1.3124117013391436 -0.547711822036089 1.7595560456925565 -0.018012120306704463
P 9.26579829875194 0.6468129486578852 3.1153098628280764 -1.566771902445863 -1.1381600065984399 1.180794810549831
P 6.777170346066391 1.5599227454088316 12.876273617270789 -0.6166495255480671 -1.1171540937707338 0.3490678775745085
P 4.6454903580293285 7.385076692724929 0.8056027523672225 0.7935036278280656 1.7072304968159628 0.005860315435518939
Ni 5.102870085304387 7.5478733402083185 3.3951102585379194 0.7926330522976542 1.6768220597274346 0.4253782194014738
