# total energy = -381172.24364467623 ev
CRYSTAL
PRIMVEC
9.21107549664671 0.00000000000000 0.00000000000000
0.00000000000000 9.21107549664671 0.00000000000000
0.00000000000000 0.00000000000000 13.48134005911703
PRIMCOORD
 96 1
Ni 1.7772401640182651 7.594089577939872 6.784282220814332 -0.50664487679245 0.6296875896789478 -0.038806174233920264
Ni 4.633106474454196 2.031686912283793 5.604664922041538 -0.38757374695919056 -0.4997941724192037 -0.21935469464637064
Ni 7.012787817286484 6.987650792380004 2.7678130346596377 -0.741272181327175 0.22031500167711085 -0.6791800399821206
Ni 0.5292011545784426 3.0792625233552706 8.97433883776177 0.8037695285304479 0.49691890775393766 -1.1009844259894073
Ni 2.655737274106466 8.606506514013901 2.6759647957974266 -0.13096351039547122 0.15692779566971685 -0.5991757942433358
Ni 2.466422040356777 1.8567317451626146 2.087019684734585 -0.25862289611837397 -0.5688069521434914 1.0643302651014832
Ni 6.774092008042606 9.238156013083861 2.2498337333034617 -0.1034658191958347 0.7907139808980704 -0.2239240591846079
Ni 7.759815247458891 3.630545389113012 10.192755949657895 -0.6072706554363283 0.07908816168241863 0.07970342666891435
Ni 1.3565242927820942 3.7639125505717645 13.310814601706316 1.525250900383941 1.8502835913861166 -1.548828687703881
Ni 0.09627600283163015 5.004745735686069 1.3365519178811331 -0.8740038393666625 -0.018364875660432888 0.7499972199049988
Ni 2.210777852282586 1.384129885909512 12.576054481819893 -0.9293447780308124 0.4095309679565721 -0.6069258705023999
Ni 4.492140175748156 1.0762404778757897 12.377420403036167 -0.18625379832734373 -0.8244617667724768 -0.1163871552431931
Ni 7.1557160750636415 4.791315906404988 3.4464233597027425 -0.6093828166833246 -1.9806225808237112 0.3070051440765036
Ni 8.24219926884123 6.119792474438005 10.057632236110589 0.3040650876115731 -0.09102939320469483 0.694582747690436
Ni 5.1149930977621665 6.489322399391539 7.653343505210265 -1.4994586219111854 -1.3841382173696097 -1.020253329386927
Ni 7.1512210702434285 7.411470796043248 7.8583405949157195 0.5617474741935486 -1.163283284028629 -1.182182692036293
Ni -0.3530605220466872 5.965838559345692 3.5786078190735533 3.520090653248299 1.0239521183947526 0.7192802504371161
Ni 7.654578710428279 7.0892489546073705 12.163700424878371 -2.31497012146891 2.667281702791697 -1.2952909194178983
Ni 1.5664631244671474 5.437288627801654 9.07734997896336 -0.6729052627170024 0.22225515612261723 -0.9638258425268174
Ni 2.0883995038371834 5.151754499888133 4.863703906161329 0.03684108008774945 0.5345565156010536 1.3030700491426848
Ni 1.065389830994209 3.630186157170413 3.3814705400506573 -1.0884947781628285 0.5237046604882143 -1.2276181986612729
Ni 6.7978105273295935 2.830747707680352 5.96340315099638 -1.1678791309294274 0.7027961367391639 0.15714865343127127
Ni 4.728689804411891 7.076510037258282 12.053464116092817 0.944252034159948 0.21211832479893145 0.23964532657460663
Ni 2.71438419150462 2.2071026331775343 6.9548750226017955 0.24172380637019011 -0.9859797529160375 0.1549274774102364
P 6.502006050287921 7.315307168332123 4.912438785266385 0.04730932660892497 -1.9523059932672056 -1.1738955123268364
Ni 4.393756678853278 4.214039385723799 6.7211218764450615 -0.05600582594165838 1.0116247071776514 -0.6420275993015394
P 9.14011332598068 7.841489853485189 7.782467124208623 0.9915315359722019 0.5741599889252885 0.5968258059539204
Ni 2.0485431803595935 3.385291294147839 10.892734127532826 0.16160077566535394 -0.4588431839281388 0.4932136909882086
P 1.147948700263827 5.351008484049728 11.148448319780446 -0.5506657624580904 0.987320840324964 1.3673422288581936
P 2.9054587406654995 6.3358290380717905 3.2964569191732793 0.49799825686104554 0.387490700327081 -0.5325844794763472
P 6.897317775429524 6.136390832401171 0.7677809042716349 0.008928412837881398 -0.24162610445006127 -0.6875919181948997
Ni 8.421962617347964 8.13677851030159 5.446110995868868 0.42553839912842195 0.5220928359164041 0.7599695006263621
Ni 3.2251567474277327 -0.06470780504508158 4.924679383433561 -0.20489223936413745 1.6426790952971388 0.42553685646652517
Ni 2.7987760647890383 8.22886163158781 0.017272608686197437 0.9587692539395166 0.9267677613322555 1.1673052607038283
Ni -0.028464986467020018 5.9677268298132 6.155391438842023 0.6722650580298423 0.7752567658027358 -0.7002209198128199
Ni 4.364087804824779 6.639564251076996 1.4798329598480737 0.20741114913124925 -0.013152992442190252 -0.6553849944450519
Ni 8.646814180188604 3.8795299696359447 5.083368712415364 0.5559246968641844 0.8472653949305536 -0.5705833273176237
Ni 6.698487500738688 0.19736479258654216 11.927588322298572 1.260227242945546 -1.7568517593875164 -0.7510778545636871
Ni 1.300327521453974 7.623924251326494 4.349821691165872 0.4232663152647936 -0.5966139470534306 0.37185453645172084
Ni 4.8270272459295125 7.555753081911741 3.541641931072568 -0.40724320036365996 1.7426698114601793 0.34798595736423943
Ni 5.242971780081933 8.558433911233791 8.485829451204346 0.18803711548001165 1.4234776383991805 0.9621502545966075
Ni 3.8436159864514927 1.117939016443631 9.275768518581526 -1.522967503666403 0.09477240518689485 0.5154537333333316
Ni 4.900752693841375 3.0702448804884894 10.606916298495408 -1.3175026796282472 0.5882637753165223 -0.10228645417575287
Ni 2.5936177812631875 7.6230491991586256 11.32842352302256 0.0987982385168363 -0.13048374254557527 -0.4734521920905653
Ni 8.795176972482002 2.6756976746093404 12.399476323204203 -0.3085064112123784 -0.6492074048794303 -0.37677074280641565
Ni 8.446648299557333 8.042236031869889 0.6367238805360578 -1.798274288198361 -0.32245361742108986 -0.3693806209899316
Ni 7.259653850455628 0.8954832543278644 7.795800155924319 0.2521732838382883 -2.047540168581867 -0.5812420925830506
Ni 5.649935515669377 4.7464856021837205 8.991663028470494 0.3753563789573923 -1.489266511869532 -0.12606735864543447
Ni 6.399182815025537 2.4802570756845657 12.354097959993583 0.30133406183365524 1.2870585042057772 0.21251196069292433
Ni 8.860980895505783 8.465061239384397 2.75229605695445 1.517402865094432 0.6272280723948617 1.7381302717186131
Ni 1.327012007036266 6.889073862900649 1.6091057982687424 0.4946141708801611 0.42160949638766093 0.47815782509635074
Ni 6.2739029778129884 4.8961287339648445 11.608323236082548 0.03394267549403187 1.1231846162355301 -1.249484659717061
Ni 0.9806939922198992 3.8604538323763906 6.780507522094407 0.955946953999373 0.20416024629411933 0.24355366049007734
Ni 8.220341386795397 5.1389603160863375 12.65905916714135 2.027100926890909 -2.964656522867288 0.35299112388831466
Ni 2.741087099237815 4.686613611750548 1.7543266927257177 -0.8300163780421189 0.7645046694925544 -0.13944429417297277
Ni 8.802868220483802 1.7539453542020358 6.0438462362348435 1.8138351187510957 -0.8384735076705365 0.01606785209614007
P 4.228353396975053 0.23018016998919097 1.5676099033608288 0.7454587086046968 -0.028446942486783266 -1.3310657630246625
Ni 7.80727991925922 2.408880452012774 3.085258933474039 -0.10290429026540988 0.11503346942877608 -0.3159728947927526
P 7.571743508895123 2.8767478184839304 8.028610087954842 1.5351419342454078 2.396238578632099 0.9604720955632362
Ni 0.9662694480632305 0.2909889267957554 0.8043359783074941 0.26791666271547404 0.40759467016580775 1.538353756314486
P 1.6362278099349692 1.3295082084835568 10.419754614186221 -0.009836269364131445 -1.2024334718655292 -0.6514769176398973
P 2.8127308440976933 5.728367823136832 7.2527722559859935 0.516694290608652 -0.7785446925253883 0.06783367181452189
P 7.744828827699697 0.9716395050513134 -0.0164832195200247 1.0645056143370828 1.039720694082919 2.7870524297951422
Ni 7.460575039273901 8.618573022855049 9.719116002201437 1.0336348929001553 -1.3416754202197085 1.2631842686913406
Ni 8.70928369389903 1.4222361050513626 10.100934422914492 -0.17698805675470164 -1.109070288321335 0.08729023787723676
Ni 5.449115648681068 2.561719826975484 8.09193162614451 -0.7474741963728289 -0.6375430811676246 -0.12008980090576094
Ni 2.9622542318979512 7.5907643797019695 8.968461250516324 1.0447199470697233 -0.2864610013765647 -0.7384912761479282
Ni 7.151902689826821 3.7210165721952597 0.8760340685125347 0.5237391132705754 0.7824692243907749 0.2992609813547104
Ni 5.744349039044764 1.8603240645886048 1.1340970850002263 -0.44558297648412293 0.10772922245787898 -0.07149260872334784
Ni 3.226197598953725 3.5541579403957364 8.68969449973684 -0.1012065908480128 0.848653533527332 1.0969747906093816
Ni 5.267657462291302 4.441479260766242 2.317388681770527 -1.1740150686238362 0.18187392409209321 -2.7567103271681748
Ni 1.3595086812283015 0.5685011290987764 8.044113249046854 -0.19686371263270613 -0.2878709943502139 0.8898531476940933
Ni 5.795111275856641 8.698497524545607 6.177594736217279 -0.7020296908867845 1.674531206810729 0.715441336307
Ni 3.465252640140202 3.5571423288419437 3.601890654491696 0.47379157770785496 -0.9683918646309452 1.0089954970849204
Ni 4.952684737235564 5.375602055504584 4.485443723895092 -0.3296943581439032 -0.10123075921772888 0.36338300864559997
Ni 5.730615325546939 6.705570817760704 10.006430630999684 0.6504474479341185 1.090837310253076 0.14482047088322153
Ni 5.772783628962793 8.37774945518193 0.23840842368979898 -0.5624642977549151 -0.6295148115465093 1.3939865709185992
Ni 0.15764202970299562 9.427719945870734 12.107901572009746 -0.20638502185958005 -1.07730482298428 -0.835135187325923
Ni 3.4593483407759464 2.872962066473464 0.3965727213708809 2.1853610682188043 0.7847760181470808 -1.095873587125403
Ni 6.772636658121308 5.496184244236993 6.0987018749772615 0.0026400087260083564 -0.10063863415968476 0.07109614461587756
Ni 4.951653096785023 1.117294241162043 3.4420020434861387 -0.7623094616134485 -0.14329374982605 -0.22814195392069742
Ni 3.4851117188131124 5.223186390012632 10.698238584949351 0.9398567333057298 0.8641426303018667 -0.04521439175310923
Ni 3.0489028186679272 5.881529585740336 13.078867747445575 -0.9735775225969426 -1.3963998083457823 0.09036476303750245
Ni 0.308328776332747 2.6310792251234503 1.3328269589686448 -1.1315409586200254 -1.5703562773630115 0.5148765206736229
Ni 6.3670914281533575 1.3545254894091712 10.11092383424138 -1.142710859193916 1.6171896927767826 -1.8039260871674998
Ni 3.8153011405143284 7.202922836751335 5.797407596966639 0.5105902345934432 -1.8828147312446026 -0.2208315363022132
Ni 8.267078383635075 5.11319693804917 8.00601531987291 -0.3978355338965149 -1.8303649980853187 0.47448346156855703
Ni 1.9589286272943127 2.066919275884852 4.743126322966647 -0.31838407533740654 -0.6837131519657839 0.25938214288190165
P 5.714449888129981 3.1364540908321263 3.8812911272622244 0.2505547743982588 -0.9403508993333289 1.162873707295036
Ni 0.8358332508130679 8.00781424290854 9.894507774299003 -1.569453048822452 0.6491433844107143 -0.43759841561674956
P 0.4547461894908406 0.5614850529275538 4.261154957764526 -0.10635188249437813 0.21247853635182762 0.6132996352392276
Ni 7.072567696965144 0.7694057379812367 4.600520452830283 0.04641689670164264 -0.27579915078734435 0.028849320131524508
P 3.827358438280024 0.1087026647229212 7.089971102922749 -1.7093724828596302 0.6728618110735768 -0.22910483205459897
P 5.051611687582065 8.820553485350215 10.639244410006684 -1.3994781901607898 -0.4010172740586061 0.07795327674702704
P 4.589188066702602 4.283758015814365 12.541920078412623 -1.825820573247746 -0.7977580322290454 0.36706817080667103
Ni 0.7143364022883505 6.894453130964184 12.758781033299297 1.168338587064349 -0.4680415625979552 -0.9605312309359456
