# total energy = -381172.24069101654 ev
CRYSTAL
PRIMVEC
9.18945609234221 0.00000000000000 0.00000000000000
0.00000000000000 9.18945609234221 0.00000000000000
0.00000000000000 0.00000000000000 13.44969787559850
PRIMCOORD
 96 1
Ni 2.2737838352209625 6.960286889663089 1.5698623225680495 0.909623131232169 -0.9829651344594298 2.071867175363006
Ni 3.5637445200310833 5.391168913024269 12.79631093098162 -0.9588240184368519 -0.6047777138111455 2.976988047849447
Ni 8.235452550447791 2.245406795351089 4.233520771335392 -0.22549731720899877 -0.02385109558598473 1.4126872326518962
Ni 5.60277451441144 3.0564406061656757 0.3213681386351365 0.21597909330591836 -0.3960421894415179 -0.1253839594251647
Ni 8.361237823031608 9.335016898125815 6.714855819993206 -0.2246033446398196 -2.3954916731637454 -1.625132087552311
Ni 3.596560067108583 0.21223324122626114 7.726205985601653 0.9094598661814273 -1.3925051012770664 -0.7424682585178052
Ni 3.1904596312505977 3.6238159933566547 6.355036240967035 0.19433708955611048 1.5827232835687965 -0.5107375588045848
Ni 0.9190374862001524 5.271081103108625 0.24981168330523607 0.2558139659146691 -0.4602179527884784 -0.8780996067025909
Ni 8.247692905728448 9.078594320234313 9.17795255549372 -0.047712218474298476 1.024664571080745 -2.0220674782320596
Ni 6.356980729838948 2.167029925840029 5.362488621109153 -0.3466991202320158 -0.22086367509172933 2.222478799006708
Ni 2.4222027377268986 7.260442088260786 8.976892773716221 -0.30898463640037754 -0.357490554420565 -0.26287755762966986
Ni 8.68994466116159 6.7974129730006405 12.430721292585536 -0.9068494251417738 -0.8205716876894513 0.27450048658057885
Ni 2.576953175359241 2.91900310347985 3.751632135698 -1.2664799087234768 -0.7965588697146218 0.47500925216504
Ni 6.85900070655242 4.609182972361454 4.787782804933655 -0.7012635021447213 -1.08501067626897 -0.1395257981431855
Ni 2.0565818551806987 8.058031725069664 3.5988032132977787 -0.20882474164932424 -1.206826201616586 -0.04758340620591805
Ni 1.6896560698943686 8.474948150541264 6.828236246035463 0.04037840381704659 0.8936067011992544 0.1311807686125999
Ni 4.665450010937632 2.097125734683899 7.374254418731113 1.457995212560076 1.6288879550503175 0.665430294496196
Ni 7.168161571948197 1.6358058582242068 7.7691106363297795 0.41602865986577386 1.9927332480443165 -0.004593790018269508
Ni 7.6926773367450405 4.431743768071495 12.734631302870676 -1.2481715973325922 0.2824961031915458 1.0070491719918269
Ni 1.4437646084830729 1.0554182014555913 13.151961253858513 -1.736000884080436 -0.3194490262668111 -0.6084163390049974
Ni 2.7838721542290426 5.896322494205236 4.3252076487957805 -1.0845525056856289 -0.8725012866792069 0.1492949617148074
Ni 7.646426805117749 7.241337209410569 5.852191970057861 0.2093237927729298 -0.7220935515161951 -0.7507608375439005
Ni 2.3558272976426697 4.5896186207154175 9.065754812427906 0.10934567501537942 2.3944465197286826 0.6216076408842908
Ni 4.913004763869797 8.67968003890296 3.348786605125607 0.09806521700555369 0.42089035883344933 -0.16536847023790227
P 0.9255619999008033 3.0083981306346854 1.0079702837223923 -2.321141026166312 0.49247861259439707 0.9995914301622011
Ni 4.888671084603144 6.748350467862927 1.3168536275494942 -1.2053514168432726 -1.17022731944663 0.20061958013071257
P 0.9431873763484774 5.039497624559179 7.456996279802468 -0.7279955188229268 -0.07701970918916413 -0.852852402100028
Ni 6.466675265113133 6.909873534505665 3.7240463079825292 0.47666375704932745 -0.5768699316572838 -0.37754850151270464
P 8.558333273526767 5.529249677624244 4.167147169142347 2.101335617135768 1.0153438079004513 -0.656942825850475
P -0.36775191737321544 7.617544345172473 1.17870026624778 0.5566937138197251 -0.9610644777315964 0.08559665222489775
P 5.437630802137637 3.9640096513821486 6.262851294995977 -0.6514676616685167 0.17526798873980137 1.0254868098717242
Ni 5.75317833939532 6.364414999675324 12.454245380785952 0.9952843181464149 0.929480018057096 -0.07722128367700895
Ni 0.39736953379180445 4.28388542237646 11.563861537078758 1.7008551894172386 0.5708185832568814 -1.2309863438025572
Ni 7.178692688428403 7.264558964511337 8.131243201410111 -3.3641840997542447 0.32373762633983594 1.0008813526182183
Ni 5.659767520005013 9.094611541896615 6.43777810203839 0.6429359700484217 -0.44338159795743 -2.233522458415379
Ni 4.600581641623694 7.26070858248236 7.9566931620602706 -0.13470240861261318 1.2687478788220472 0.2644431023445768
Ni 2.057353769477677 1.6751918662819396 6.117312367974244 -0.8929122462353911 -0.5977007523597061 -0.29279799933818607
Ni 0.05543171703337605 7.138801260295267 7.781806788623892 2.4120737458921426 -1.2334682296841468 -0.48946656524095056
Ni 8.853406703002689 7.69879751438537 3.3463651834916326 0.07593367521383697 -2.7435509069680815 0.43604881174144255
Ni 6.447965532867322 3.522851441203059 8.80695584123642 0.5982813074535245 -0.4396897509281395 -1.2355433670456204
Ni 3.167770864592982 4.769897366883546 1.9960288543651075 1.4153390684524465 0.11170723326902052 -0.3550824591997046
Ni 4.6635845513866 5.031217924778494 8.106913197925824 -0.13857628974572264 -1.1725611097861288 -0.27184479412528667
Ni 5.441995793697932 6.32398139364312 6.085665719689312 -0.4152943528029106 -0.5308384433195181 -1.0178308359883632
Ni 6.317704995252211 5.574443421821147 9.869212835785005 1.284165498928698 -0.9029004677963547 0.25760602481808537
Ni 2.6401858215200575 2.963801701072348 13.413181646683974 1.9624618507542846 1.3470716515346157 -1.8748247710605903
Ni 5.509280989917885 4.151226436767167 11.791000075801437 0.48372940564685724 -0.27584131687918945 -0.20136314316495643
Ni 9.021261304771832 7.137450410275555 10.09865149532356 -0.22921796059369556 0.0039196467693803465 0.2000408248091071
Ni 2.434360387904309 8.582841552455832 11.055274775167419 0.5429377976862134 0.6488518213122244 -0.27944831750415744
Ni 0.7675419538534023 1.945407817503972 2.9838292012965715 0.6669027652766644 0.8633270763791068 -1.867411766425971
Ni 5.895495443172759 8.93511015555549 12.804972912128427 -0.13931471057364395 -1.0495093980385668 -0.5795528778060857
Ni 5.914195985962653 0.09396218674529104 8.622749521609618 -1.7395510633255398 -0.6500119030585966 1.00244458334028
Ni 4.020874004592893 5.787307978668866 10.716261962227184 0.06748271623300636 -0.16227697579677214 -2.807763179979932
Ni 4.133784849437822 1.4501972276245598 5.085747237240879 -0.09075145695295984 -0.7853447461663572 -0.7220277312752661
Ni 8.702773141620899 2.3557721609071716 12.098621707331215 -0.9655168570759951 -1.7835842902863543 0.8809293628419023
Ni 4.543119973778383 3.6461923185131133 3.8954627428648725 1.4344199963432975 2.0006789852539546 2.052588272528736
Ni 8.13931246265031 3.802835784064236 2.5907612518192384 0.22206592292994662 0.40920906584077915 0.12012631057065118
P 7.336778898558402 8.212304310994353 11.265076486358197 0.03154949267150695 -0.8680854169996984 -0.016361472077158917
Ni 5.4131960388559035 7.534490042599961 10.107488076132778 0.13330090027939623 2.1130120250324316 1.5671663096708042
P 2.6817864884536453 3.9382791748162007 11.250497414546814 0.2579929758438589 1.0776241539969118 0.16432691634726537
Ni 1.6814958330405967 7.6737746259249855 13.15188130559204 -1.1451894026413956 0.8064316487436435 -2.0869436100801546
P 3.026924073762167 0.6186415238574464 3.3413624436907394 0.2652915663878012 2.3145296914973814 -0.6544984780750406
P 0.40130353986961953 1.5682541677826776 7.470405533875693 0.8720096917547692 0.9292527325376384 1.7730700210185915
P 7.305020138911289 3.161641497496736 10.61303496602697 0.6551242845844976 1.170478002004855 1.8121268778107371
Ni 8.59549543325273 3.1971219867899947 6.50443473947366 0.2920114988811487 0.40435456596195524 -0.04754792498229231
Ni 0.046037336250030224 0.23278270254653693 11.06669359308915 1.4016906244310763 0.14375603417444918 1.248764493721585
Ni 1.0625032719671434 4.130338803469168 5.02365040783133 -0.6334329156539931 1.0525744101171357 0.4953916724761339
Ni 6.525836982302979 8.218746119591756 1.4278870665507 1.2785643506918367 -0.3488521620192766 1.0940470754396254
Ni 0.9820679643308077 4.96813230991234 2.4772999585649176 -0.7605911933707611 0.017405339960640993 1.8035381077004617
Ni 1.6698803607622543 6.195338200269298 11.092678617583983 0.33161342954348694 -0.15413737740877326 0.4720833367674967
Ni 3.874100014695994 2.539055859159967 1.7948349065312295 0.6494714571740944 -1.8324954141647603 0.8432501031235736
Ni 1.0710218976016552 9.227408369344655 1.7665506801661117 0.3278583333764289 -0.7414367319294972 -0.30672900759698146
Ni 2.846608569770373 6.04065208882837 6.7075924740368755 -0.7748639012396914 0.3526828486192765 0.6832498391761201
Ni 1.724998717348881 2.011185942953634 11.070984150056523 2.6466010345138935 -0.19353336270789248 0.3260734735618642
Ni 9.302578118740888 2.421421633974004 9.702961794073275 -1.9842568351421892 0.0063094871577955855 -2.314986576529142
Ni 6.657163496804393 1.0447584325925559 10.59462297215285 -0.2786368773464556 0.7625609155026222 0.7017340140232365
Ni 7.3798590678945315 5.1123975783440585 7.379862743676898 -0.24070359263579189 -0.14068330878639643 -1.0171615778354806
Ni 8.892700816501257 4.8892500203258775 9.347540288648698 -0.17718346059495937 -0.2098750372907095 -0.4933571585446084
Ni 5.957827522653768 4.423914351630714 2.229529253418716 -1.061458599980643 0.8679751166740794 -0.36074505680212066
Ni 3.511768957367869 8.0973074596564 5.374082038693297 0.7059390532435197 0.036910756983420306 0.7519515154178921
Ni 5.983925577456372 2.0866589443951082 3.09322875503584 0.9130920636173758 -0.7996354517574165 -1.469553863931953
Ni 0.8165098075951756 7.061894703730833 5.388258612335543 -0.16636914358827476 -1.8924219153170636 -0.4945612061550386
Ni 7.9131048158119635 2.087145985558678 0.937475210550837 0.2431847071864328 0.577883974744095 -0.18822094935604358
Ni 4.535529483191429 3.2148300683409166 9.945822572923339 -2.0679449574904645 -0.6782163905172707 -0.027674840207449113
Ni 4.393919967519552 1.1574579199514068 12.02990755071626 -1.576103464259434 1.4461596533777286 -1.499891852793862
Ni 3.261071410512291 9.335660160039964 0.6068542087534674 1.9748663950662246 -0.5951509893546589 0.7460765446943538
Ni 2.3741510727399913 2.537778524787586 8.487795009912405 0.6026719803220524 -0.9147311418826956 -0.6053227876813382
Ni 7.539103149469999 5.868855210471088 1.3104743072523224 0.6251153969272331 0.48392712347996014 -0.49108378912939943
Ni 0.5224426235421011 0.30935568186120554 4.648242754734154 -0.15213654492866058 0.09924483913595167 0.813673160797405
P 4.111638260679274 1.0669509686306857 9.650669195180944 -0.2830496617021706 -0.09628678494889224 0.7241131530493852
Ni 8.380076207660249 -0.12455480443661117 13.239237192479026 -0.42235331653222097 1.4851740869677132 -0.0856699286649944
P 5.893887288387388 1.0507315789382223 1.1435956257015023 -0.35710077518131406 0.5022729729769995 -0.01268659432873299
Ni 1.7493140177037017 0.43122440833345016 8.873034461894548 -2.2680639438356747 -1.1524139454142925 2.0920027697706165
P 3.841982866268142 7.623103966001901 12.497902647953632 0.38062971154118963 0.28308077205042215 0.16442024739202005
P 7.163318728680249 -0.15471919348222662 4.633070963016161 -0.294883421112305 0.5104207988951145 -0.222998462046545
P 4.5607821080497235 5.967577535381079 3.3997880854616818 1.3531178577286955 -0.17233615980498707 -1.168780045477142
Ni 8.079149094765574 0.42597355322281355 2.6262013075064647 -1.4728469328609282 1.1782383626765645 0.06026537254896072
