# total energy = -381167.6906349754 ev
CRYSTAL
PRIMVEC
9.26808656939797 0.00000000000000 0.00000000000000

0.00000000000000 9.26808656939797 0.00000000000000

0.00000000000000 0.00000000000000 13.56478152685851

PRIMCOORD
 96 1
Ni 7.072662061363674 2.4279235108072075 12.673358306103967 1.4001978419356338 -1.209871673311129 -0.7717556946280129
Ni 4.307389475218936 5.140525562180573 5.587319615700083 -0.6119678038016816 -0.017830086202885422 2.2421999315847194
Ni 4.201149401299484 3.668790520907502 7.887730013970782 -0.3618837983922542 -1.4262842546100405 -1.108384317997904
Ni 7.419103129418206 7.736627768036404 0.7310620178600168 -0.4824716219803562 1.3406019846498718 -2.054528426974242
Ni 6.465639477273262 0.8877714560408633 1.5211413560292266 0.533639403103423 -1.3303862204591346 -2.1450186598460155
Ni 1.7398607796042 0.13224169019625692 5.369998746356501 1.9819574975850511 -0.8703682994966041 -2.2289237833011035
Ni 9.070296126837341 6.60469784498568 12.562058783841794 -0.43187925374478525 0.8684230028447754 -0.7413531710767555
Ni 5.398817860886077 7.297060968258707 6.538414344971972 -0.06320208657978148 0.1523316916586022 -0.11007252587907496
Ni 4.740070086832788 2.440833955103622 13.11406415369504 -0.29599773722240635 -1.0456550572894832 -1.8051311632191944
Ni 2.6504595323443225 7.0880934251494105 4.5606019357917305 0.05162440904451109 0.48249296213659487 0.8311710604718524
Ni 0.6693310018652598 2.551800753065551 13.058394466178282 0.07567039425012129 -0.5779752489063207 0.5834213596225566
Ni 0.005196616020817974 3.804920173330856 6.1178109766909685 0.753626846237786 -0.8578953638405741 -1.5400686821230638
Ni 2.7628258113462794 6.66643256821498 7.092766394291012 0.959658084302373 -0.3708566913148258 0.7991274017727463
Ni 2.8159782866082574 2.7974791862380903 0.9937195852400441 -0.8486131672076999 -2.3183588354354847 -0.3791700962765276
Ni 4.377428403824824 4.795205932575335 12.455466522640746 -3.294124109712365 -0.3378892352498697 1.8108636948275973
Ni 4.366658887477062 7.7720596621822695 8.594292772352592 -0.5225414934180485 1.4577396449058444 0.7056608598814685
Ni 2.000785214835319 4.268055716716437 2.7155066696379 -0.22280717197134528 -0.15160612634648726 0.24621500937232435
Ni 6.370585983587674 3.868740215990661 2.975651658806328 1.6155920092723597 0.7620880896312616 -0.7047848850344185
Ni 8.953101174842972 0.6423951624835882 11.230052192924811 0.9772649987508588 0.7124038350322569 1.3493463065014053
Ni 5.3301506090611435 5.841424592989132 8.473403561136003 -0.3245464953943765 -2.130431763170776 -1.8064413973901858
Ni 8.886472902016754 8.597030565062687 4.323339851840708 0.626986902918333 -1.2281406468236462 0.5314951030669104
Ni 9.002555683648188 3.1589160180195406 10.749383283767544 0.5468939541204839 0.6702495702617102 0.2000804197977909
Ni 3.730812554813894 6.841933051486265 0.8095877331437414 -1.2757384512072676 -0.07183533677474725 -0.7027639979496477
Ni 3.85345714158665 2.0703978114687485 5.914177217280584 0.3170306466333056 -0.1998611046981332 0.6680191382692947
P 8.767118485901015 0.7717554046312054 0.18543587184684507 -0.4498461226358511 0.014581240248284564 0.15559442157027398
Ni 9.167175433535416 1.4156909230674597 5.181176315754516 -0.40758412864284643 1.5371774766181978 -0.31978789766346866
P 4.0238323731020715 5.644051425913442 3.62743910000491 -0.130787132718607 0.40720309115434383 -2.4531442906802075
Ni 2.0115176588376507 5.811683303866955 11.978448312699818 0.43565389029586904 0.41327809370383023 -0.7154778459718903
P 6.188421746225132 8.946020356865613 7.7577117376917615 0.1481518492492997 0.5470608187156514 0.08170168804586574
P 2.136998280035893 3.6181589651348456 11.549380401148236 -0.18472784860112057 -0.26130249983306614 0.20735767018549447
P 0.9717032460970924 7.094460600477218 6.119425477334497 -1.8136731392519345 0.6924104226294656 -0.7503366055222884
Ni 6.531609715968076 5.078725962346769 6.357650515458094 0.2330854139689018 0.3717756035846694 1.2720877418285574
Ni 7.1602176731858025 4.792295753458986 9.265139106337353 1.1784772181602479 1.4296719401353506 0.4641851649663425
Ni 8.014976205620187 2.8665727700354826 1.3174946212979421 1.224471168391859 -0.2337485014741974 -0.3484844942672128
Ni 5.605134731297044 6.682401481009468 12.932405027038996 1.0838063715482238 0.07667878090997762 0.43751485476400775
Ni 0.11298075312747877 8.237818074007107 9.531021967769894 -0.24881105223427472 0.6745389416656835 -0.14980249747884522
Ni 7.779576080218445 1.5409120378476837 3.1801408625875367 -0.6709540525279025 -1.3911814973696364 1.8824817733852162
Ni 1.8564811102443863 0.4142955087058864 0.48306748990666326 0.5376097006050806 1.2957632310686265 1.0550246714298412
Ni 6.03573929156675 2.3779221849068812 7.067454323639227 -1.7217348610797252 -0.8730137075392512 0.4366460790058093
Ni 6.670946126271228 9.158305874891003 5.477513182150149 0.968251482398339 0.6835784261601324 0.18504615117248777
Ni 8.700295583261285 4.3951767892000095 12.938183678883085 -1.4976580783673368 0.9903704257845654 0.43636248632711944
Ni 5.409309334643106 9.069193224560763 12.970901877343387 0.25309476721129315 0.554587980330632 1.61026236952933
Ni 0.6568524503931191 9.17873273722359 7.298014654344925 -0.17559477595160083 -2.9574507491474678 1.0268962886247412
Ni 3.316853477642796 9.313314619225192 7.169556196999921 0.3706360906635875 -0.2649526949911437 -0.5225438074108936
Ni 5.678908698705125 6.518384156735498 1.8831036883071643 1.9794131338966428 -1.406484960495926 0.10922226206363769
Ni 4.942457288628048 2.504125716841032 1.862770433646789 0.12875107612518472 -0.2691783030367171 0.7284554891784809
Ni 4.474919404222513 9.090027882693096 4.868902048058011 -0.8734086289848249 -0.19092780676424537 0.8807704686665347
Ni 1.9802193312073626 2.86965904279263 4.605771808273736 -1.6528802041998565 0.003898820833773931 -0.37662650391906755
Ni 2.7066426718453007 0.07932277071049544 9.45241469332622 -0.6028869245463359 0.27588194030913776 0.5446563230392167
Ni 3.479397176185877 1.523608520617673 3.4412219284781025 -1.3546767175753829 -2.4178402160622747 -1.1923755734088948
Ni 1.4965920488846884 7.574677227020222 0.43308840741359567 -0.032325965826215296 -1.9242226047674278 -2.7203513289231664
Ni 8.814320849721287 5.419226187045951 7.651214937780199 -0.24412753071567633 1.8439422225491209 -0.24376037718424468
Ni 2.004890977091824 2.3309978636773443 9.727833488812301 1.6884223629705242 -0.2913540678028079 1.6011712058613392
Ni 4.210584313211724 3.2937852106982337 10.441978468643427 -0.7792450610265225 -0.09743992471672895 -0.1408846261639251
Ni 7.057610689118608 3.123094864246647 5.179562741919623 0.2659420554876065 -1.02677416122458 -1.0831342851818637
Ni 0.8850197612012327 1.6632507777706325 2.5016307479935125 0.6646373662812554 0.4361933077391068 -0.12125193953466214
P 3.413779124772659 5.145178141532189 9.019738715755548 -1.586021237593778 1.9447518350690314 1.8530722098748476
Ni 6.135260002876797 4.084371513191215 0.5024025716663039 0.036880932186749385 1.7707202898394923 -0.600219919237134
P 7.139253261844461 6.189839763437876 11.216351180862075 0.7083864863427478 -0.5215583035691728 0.034991942694152636
Ni 4.822472642639981 1.2618128852689205 8.898510292578262 -0.018644611684380794 -0.32577419715389055 0.10169869999308291
P 5.875911142326503 1.1198165341810802 11.397902797716366 0.4110726014120792 1.4319093141063015 -1.3432777317098221
P 7.733921486819927 5.138449510836427 1.5061650552836592 -0.04405970932337573 -0.4110977982230597 -0.10435207845552995
P 2.2272694411608565 3.7580607287058236 6.466886961697022 1.3493704748711213 1.262954926289354 0.47745951347774546
Ni 8.049536899648418 7.6477838922105414 7.0117438565424965 0.25595486236790754 0.1380834092697041 -0.8635433061549708
Ni 0.6376220980093216 5.467651938265452 4.271997433844408 0.31112867932657384 1.0807981808495193 0.7545699268773456
Ni 1.6713140129019175 1.8044871457771334 7.109397048451447 1.0217785077822017 1.4225420139587888 0.2535439389335698
Ni 8.007876851470112 1.1416614137264127 7.158202791211616 -1.077528766069628 -0.2787867726607586 0.05442125506335788
Ni 1.775014631159332 6.73680514792975 2.4037338054133515 0.19900698422795404 -0.17003733646848135 0.9680342241812104
Ni 7.209533160695652 0.3774057445759385 9.65594001612622 -0.3868872624151273 -0.7899187386902847 -0.6330835027343743
Ni 1.2137578575037322 3.9166191501150514 8.439070862032173 0.1868235547878847 1.2473904961921936 -0.5099762551585281
Ni 0.10407597575490536 1.6244174959314541 8.882829617269502 -1.1790330906637179 -0.3231825251673144 0.958012321168834
Ni 4.401126900641716 3.391684006895666 4.013276022740539 -0.42331388067327735 2.291598279512189 0.6063373449887816
Ni 4.984432451742521 8.601414369909925 10.66357285260659 0.19454123514711658 0.8478930012122236 -0.8323748509719663
Ni 8.375189650002406 6.920582032318548 2.491809356880153 0.3920664926232216 -3.7951814651147093 2.483257822236136
Ni 5.803406902749441 6.854491308501083 4.29234459063432 -0.5418203962523184 -0.8625608876370435 0.8197131963438979
Ni 0.17237250412552718 5.924309089286931 9.86961296667937 -1.318286094761491 -1.2150089945376945 1.118223672685829
Ni 4.017659827587777 4.649474542685303 1.5310433794938991 0.3796133544615333 1.0319361650414938 0.6310060513800553
Ni 6.9422878905685135 2.7198033544733757 9.563848602840585 -0.6156259693795592 -2.721458445944416 0.05357844744708836
Ni 6.117187234479088 4.172399797417591 11.35210732940521 2.717304828787359 0.11620434980842567 0.06979979440195722
Ni 4.884476140373656 6.303346017061841 10.758377034769154 -0.798350928618038 -0.5840291684098845 -1.1669882436840417
Ni 6.8504318866763665 8.47641568920229 3.1436514797882458 -0.49229606426994565 0.9501941106759958 -0.4986798563091024
Ni 3.5036054177524485 7.977292166489375 12.300693187700045 -2.1101295612783146 -0.4723157644932769 -0.1545731793946112
Ni 7.267949909008859 8.258467370412284 11.791430378511697 0.3862056629670704 -0.041173131804200055 -0.23885651212472409
Ni 1.7260420628447215 4.616387474387959 0.3123511928132748 -0.4189836287290397 0.8913292180189876 0.15334753451762623
Ni 0.11231252410108146 8.664492965661106 1.8814484080836615 0.2677436274727195 2.6248145347664216 -0.12427221441822467
Ni 8.92413840497485 3.4182926828289073 3.5806816043298135 0.7250804020586609 1.0358889790416546 0.04418235094416907
Ni 2.1321603389571218 7.002984588125741 9.73338136530608 1.9137669566517428 -0.6196363760905328 -0.10512983716181896
Ni 7.130272486163753 7.052921037421562 9.07915178335222 0.5949758972293753 2.0172206916627196 1.1167887400115155
P 5.603651837479796 1.599458539369901 4.1993439780769855 1.0356683783904164 -0.29755865395162306 0.3351376406466615
Ni 2.5282320094576676 1.4376006792172968 12.1880914993046 1.0580747711100744 -0.018471576441626256 -1.7028840469218092
P 4.260696856148344 0.6310297081830191 0.9880781010740518 -1.346696527583384 -0.08151116930161446 0.382044075390213
Ni 7.5602004761293395 5.3210771525168585 4.32609340029761 0.7255977080147117 0.6604636945195399 -0.1944039382383039
P 7.744116381813505 3.457978628613003 7.543048955515596 0.09292378201393028 0.10974548155695939 0.7301629587878908
P 1.6157425671005539 8.703344783673 11.307696513195909 0.06625655713538911 -0.32116395207538884 -0.276136222411789
P 2.129880389713103 9.1007881309545 3.0435162943526763 -0.6498434958015326 -1.2285257980772069 0.33575470540537017
Ni 4.253532625393765 8.003372561500221 2.8359621344129438 -1.446551746609825 1.2587069496462773 -0.833065706391404
