# total energy = -340857.4051214057 ev
CRYSTAL
PRIMVEC
9.35309504962005 0.00000000000000 0.00000000000000
0.00000000000000 9.35309504962005 0.00000000000000
0.00000000000000 0.00000000000000 13.68920003045885
PRIMCOORD
 96 1
Ni 8.259858466269023 3.3272700053679785 4.369182337829832 -0.009031256964332834 -4.19214590926018 -1.532443304367322
Ni 1.0863900402920863 3.575940741390687 3.3619989823088114 0.32355173558127504 -0.03425017943212166 -0.6384619934374681
Ni 0.4777037138420371 7.1400778769266084 13.117963555359903 -0.7792864557874192 0.6063800253012589 0.14661330111758622
Ni 0.44011549576823933 1.0027266057668247 0.9269066766851499 1.278496730678695 -0.060417838966424976 0.13190427704218574
Ni 6.44256146628872 3.509842419222993 11.818584836363597 0.4754144580232586 -0.15406718629247013 0.16803290444394287
Ni 5.550594211181275 3.709802236631106 9.545533965821734 0.019111524018470313 0.4284116069111589 1.7449871467394464
Ni 3.4358313787089187 1.4273851767842034 6.857700457243515 -0.642142527612849 0.5926063685559343 0.8723341649737234
Ni 3.4151797450105645 0.10358178557780462 8.99329824407568 0.03618596300225381 -0.6876271423082093 -0.5372181215936168
Ni 0.046439051845877745 7.579504984904903 7.559641817112695 -0.803581580889358 -0.2738407415093929 -0.27053198885113405
Ni 0.14260944496780564 0.73120719403682 10.031869651013505 0.17354637806300433 -1.266656286400341 0.011917834483508506
Ni 7.31040708946317 8.724538930671935 6.893812756930719 -1.1141734138758554 -0.7835267191210119 0.12032299996248955
Ni 6.904725948144143 3.634949417569544 7.770729011609092 -0.521284995303128 0.9605829101094877 -0.8609200095995109
Ni 3.8122653920502496 7.164031153150107 9.461906073057367 -0.8744064741217199 -0.4590542714976804 -0.4762392679173992
Ni 5.177751786309224 8.678372053889746 11.657708796915317 -0.7877726388815594 0.35909749389636864 0.45987702450929185
Ni 6.231359228724167 6.9458328005464365 9.66208381757833 -3.550966774001865 0.038037157278379655 -1.8515614296572755
Ni 2.670925918797189 7.3973254010387155 12.273051721056996 1.1666216043732425 0.45412469540654693 0.3013345760542875
Ni 1.2356467298565497 6.193011539338636 8.949766134147124 0.8313271264337424 -1.705489602865456 -0.7732664748455844
Ni 0.8660545054872959 8.015172148704421 1.6603081068024201 0.1926422183521908 2.199231912663625 0.031084894330262593
Ni 3.5610973796699956 4.9966010428899645 1.492793240542958 -1.7899020049742658 0.8838185114642392 0.9428140161618408
Ni 7.079282759608084 5.800658558354824 3.980052433373399 -1.0598164363915297 -0.341670813779489 -0.6631705519277418
Ni 9.101141299722762 7.260209028748013 5.146687351978452 -1.3569246330692952 0.43872944389739926 -1.0781995668844075
Ni 5.535367372566728 1.521112541499424 13.078633791002304 -0.2722448577771827 -0.6427994444705575 -0.19154358597137336
Ni 2.444478136428144 5.3432828611251075 10.836849381642612 0.3634480575555805 -0.03916612867650029 0.7845052809841973
Ni 3.154826993367727 9.284817378784483 5.227357796112647 -1.2718422014766548 -1.9676901890327598 -0.1576983552871542
P 0.8866724680437506 9.276998191387824 12.524700482518814 0.749687916194696 -0.7478421212352088 0.41473950874070514
P 4.127922994263 4.012945397771213 11.601980251143168 0.24330143526995518 0.6567435653554755 0.3104522220848395
P 5.800303140745885 6.231789471092883 7.571277067257964 -1.407808050182724 -0.19292401125866776 2.1128209920675483
P 8.758518724705503 0.6064116537528392 7.831180870342141 -0.07862073512769686 -0.4105830633701703 0.9321138561355172
P 4.710807872923067 8.347637262582 4.134193309132283 0.39186980323138315 0.18762419631230912 -0.6680972998053978
P 2.1239101593550513 2.9270417184176742 1.3411019403572622 0.8429590542457159 -0.2762174692716856 0.9204613594982535
P 4.750212462040444 6.625218057998484 11.332918832771828 -0.11371732172051383 -0.9728650699109502 1.0155057873996123
P 8.969131717286817 5.225620926376332 4.306335151474434 3.8948880743784278 1.2713680900537139 0.13927948646033433
Ni 6.096132181617825 7.250584694021741 13.466340154403985 0.8482493561103778 1.3371420511257293 0.17193532482214258
Ni 5.851632925952663 5.868982917125874 1.9272070896162168 1.3374202444877805 -0.5313670621294785 -0.09706197255201994
Ni 5.582076728857299 0.2855453129501369 9.294405236440364 1.4618770641129857 -0.39152244719429347 0.6292613007748066
Ni 7.3264102349604 2.079847728941579 9.43488404637353 0.8629290696097396 -0.8416691317896988 0.7627030975074413
Ni 8.052107520749168 5.462815414868297 13.082480718964321 0.16352627482284096 -1.5130327610511942 1.5063712898706185
Ni 4.41386581374945 3.229717224809177 0.6626873555808542 1.7196119011994513 -1.2906565059696804 0.21190775145002214
Ni 0.40718698960953204 7.269936247518976 10.750635358118464 0.24330709169691 0.5220820372831266 0.16899141170247026
Ni 2.1394456501036774 1.2702064157783879 3.609951400637664 -2.668110112230263 2.9588985373375882 1.7982609184619225
Ni 7.517241431675762 6.562664558825208 11.293261710090205 1.1798093067081101 0.1936513763429955 0.512441428869569
Ni 1.8322058333657993 7.286201279675425 5.535132609882928 1.5459166562634086 1.3337533371591546 0.8035661542703901
Ni 2.3610765885621006 3.9390746536817196 8.847316073060941 -1.5727335193459366 0.8647134152036721 0.44825152445522154
Ni 3.600950917346031 3.224376607580119 3.369363609289828 0.1780352670722934 -0.08966233765383913 -0.5881799573534645
Ni 8.195537232146023 0.770621136249168 5.332244338439057 -0.6879598430572798 0.31378977109850476 -1.5940641625029128
Ni 6.118345782176515 3.6082089190443654 3.539013787131416 -1.6356862089190733 -0.6342875503448044 -0.2062423256341287
Ni 8.0605720716989 5.858572922421947 8.724305103297633 0.5309906526266662 -0.7999324141725449 0.31265334350121643
Ni 8.539338297129765 4.079651671112092 6.329666804047215 0.917323328089904 1.5744728706345466 0.2332201397745532
Ni 7.800630856234834 8.45611445806819 9.349093718051616 1.1604216462101176 0.8577596095936583 -0.1415058046876918
Ni 1.8595262237792467 1.647267086482848 8.774571441606087 -1.238575726114041 1.1233388824252075 -0.1770757313725015
Ni 4.609233261526271 4.022859678441618 5.565987534886325 -0.207260739596314 -1.0307526862563536 0.37291305962322224
Ni 7.51489380483777 6.2731207977745065 6.481548907370341 0.9586543256282072 -0.2580580247538395 -0.8347289530264398
Ni 7.002203903943167 0.5389028848633554 2.8906937207371746 1.168838409518903 -0.479090107102633 0.18629570730887268
Ni 4.945159020543522 1.2711978438454283 5.033778660094488 1.5053490192536914 0.6705244211896516 -1.4529877320431555
Ni 5.114450039538181 9.075803765443396 1.6041960841364165 0.3482194135312841 -0.7992490149522752 -0.4743798461111572
Ni 8.253573186447785 8.894624962739222 11.732095831847268 -0.5618616311739099 -0.5189486338604675 0.7707231395984404
P 1.1275904236441017 8.784510975632916 3.9786157979856878 -0.19765561240638216 -1.5321216593618452 -0.38968153733081273
P 4.552936982889318 5.457325148119687 3.9974379663075026 -0.49069118167667103 -0.9798795535555704 -2.431788707822567
P 6.740841018043345 2.5991315617914985 5.665467053009376 -0.4239430296168441 0.13027008387287242 0.43882174650088945
P 8.006801128704408 4.428222814531594 10.383723730768208 -1.0606839265981474 -0.18969856234283458 0.5196117213657632
P 7.48320551907236 7.5535314401674345 2.0891634115337716 -0.3755456121500629 0.14916512100516247 -0.4112034705629886
P 8.744788381286488 1.8713578889189288 2.6654655819524886 1.0360352748115318 0.7453350385426389 1.3243207309913452
P 6.655119902624226 0.8395048100995477 11.232700420145983 -0.15355399410147746 1.6265284536792053 -0.4425493318641217
P 1.6373528058124425 8.22774929122987 9.216061842335222 0.500144613780087 0.7500753814411018 0.36590706061903433
Ni 1.5161086356893607 6.427933225752386 3.087092814889416 0.3648462234546878 0.41816473237217017 0.9412875522149853
Ni -0.05310593794197685 1.8713578889189288 12.404071746044897 -0.38058574567713166 0.5494984816228665 -0.35872236994513707
Ni 5.440592461214634 6.68273959207678 5.427439203755398 -0.6456885930928945 0.1424136612139418 0.5165307684475943
Ni 2.1988003907965012 2.8716152776131243 11.46088600756084 0.21694634231519414 0.5434823573357737 0.33140671284931955
Ni 1.5188397394212083 5.242634206130547 6.746037597609833 -0.8477227941829465 -0.4823407528294467 1.160529889653208
Ni 5.222337990041132 5.2495554964098865 13.335443590269717 -3.164594503549943 0.823484490460872 -2.639965788585563
Ni 2.780908962573886 0.15793636169855424 2.112531184012018 1.3863054002242576 -2.8633398888039716 -4.352867110534059
Ni 7.703770204703966 2.1339366771651216 0.9207682404549734 -1.5422896010337825 1.7104294633692347 -1.4893014788725254
Ni 3.671435841055631 6.344597149551148 6.824065792414416 -1.613359777507731 0.5360886359748639 0.011071170212497062
Ni 4.281397929659872 4.4620716652355545 7.8406948385477415 1.0981099326550894 0.2809606403836258 -0.2978970111276482
Ni 2.812587895244323 0.41900088386876716 11.252508404677855 -1.7269202619354065 -0.8772516568799988 0.9289254311052066
Ni 0.4447275068989723 1.881599527913357 6.517647177415086 1.675824471700856 1.6775669083132592 0.08045727411580336
Ni 3.916084746240345 6.999575684256013 2.461756108770069 -0.7042693788505807 1.697456705258651 0.8717937190892211
Ni 0.39805088644080366 3.0121829419485247 10.123751650090735 -1.6644360273582561 1.7599180570176658 -0.5658661243476125
Ni 7.108670184010362 9.388169078225975 0.14802395164714313 1.1553272624063458 -1.0613369868011142 0.6152130502118566
Ni 4.352949106196289 2.065313019354966 10.814700317439227 0.9223506061011664 -1.040514650739124 -0.1626083909942619
Ni 0.08521043643364375 5.924091352701373 1.535106642196651 -1.0691855363112555 -0.09013619196646412 -1.6435789814035886
Ni 3.0727161726078305 1.7603927701701636 13.334923558189269 -1.6931519072357097 0.013970346137163036 -0.15513753653851348
Ni 8.243827261486876 4.275926369101205 2.297116383905024 -1.7578267217062757 -1.0206991586750938 -1.32744976353863
Ni 2.382626119377775 5.303625738443485 4.703787439837025 2.3105010299539623 -2.5747482142376494 -0.08692462700770191
Ni 1.5924766561363994 9.163545149376485 7.221080355932314 0.6608485886627845 0.44627228924166373 -0.46589751967175885
Ni 4.746789229280663 8.451297614157571 7.153523886258472 0.38632599059501854 0.3892560197576199 0.07679448055223548
Ni 5.769653048522376 1.505118749097166 7.263503188797179 0.33163502681004176 0.03510198590945567 0.782733276685439
Ni 6.936835123183296 7.97821807046973 4.414137053503641 0.1931572103153964 2.7747679560008343 -0.6849156569143172
P 2.0132630458353367 5.922604210600812 0.39877855722963157 -0.40980941842893936 0.9929795812726382 0.016081993163527143
P 2.510857051445001 2.4984735537019658 5.24066350901993 0.3280773913657704 1.3272060229589402 0.609019519806635
P 6.585233576992839 4.094177027603733 0.398974036914548 2.7677092493818396 -2.5726324534462277 2.06722067772993
P 0.23224763656123237 3.8398289629329714 8.027935382103323 1.5192381185309578 -0.06589043204522202 1.605679635254654
P 3.938681823692892 2.451614547891842 8.659514343807036 1.046245125464998 -0.5777129963838696 0.5261837181563261
P 0.24284936971208584 4.0893882429780275 12.234694678576494 0.42630484498080135 -0.394506726633598 -0.6414233900586372
P 5.150440748990748 1.5150330297675714 2.7889965837962443 -1.1494422643804785 1.7950475537309474 -0.07091076807794884
P 3.7527703549328444 9.1768733097117 13.580740664935997 0.6376019594300181 -1.4324495028804878 -0.355917039285858
