# total energy = -340890.59037928574 ev
CRYSTAL
PRIMVEC
9.07312036887657 0.00000000000000 0.00000000000000
0.00000000000000 9.07312036887657 0.00000000000000
0.00000000000000 0.00000000000000 13.27942878491586
PRIMCOORD
 96 1
Ni 6.527711011637065 2.1846713293613935 11.414439296065373 -0.10709261731514459 0.15345114997502604 -0.9433297794559946
Ni 4.687645873527099 0.34202398114558147 6.067384426387086 -0.19135229589617367 1.633904177317986 -1.574537919544527
Ni 2.9886949791846353 1.8709772597916912 4.635675946382763 0.2300939354407457 -0.07356414654039589 1.5119863220645509
Ni 3.4711944564116615 4.622791207903098 4.666178870328109 -0.2575898268681693 0.16149278933257993 -0.13961424409193374
Ni 4.066436529475824 2.9297559881530857 2.4883795224641436 -1.546909359193981 -0.24724036531304516 -0.4968086074283186
Ni 5.175679954283874 4.933645390743602 2.3988886126363296 -0.7512007532947966 0.7982791948398381 0.4475719818896937
Ni 4.932474958193868 4.775809385819828 11.396764857252343 1.020477786692907 -1.2487662934937978 -0.004723373617598317
Ni 5.935807846931834 7.993655097377125 12.28493262696884 -1.4098428212245655 0.7263297010847297 -0.41399825969930637
Ni 2.0262274253614017 6.552181217734986 0.09088544845489993 -2.3304196232547607 1.0337307950480714 2.6686135342292427
Ni 3.059619562450279 1.582951048231264 0.19516373013973676 -1.2375148889496947 -0.039663637138209105 0.7855836016500406
Ni 7.975998804805174 8.93105361914676 6.962816136408365 0.5716207674432027 -0.45388352593001835 -0.33485224819575876
Ni -0.5063518038161335 2.7050329386042224 1.2829256347559317 1.2418999053912676 -1.205808301875033 -0.626179062305057
Ni 7.276397699283365 0.7223873404473999 4.643404430459221 -1.122770668626563 -0.0639145392657738 0.5432972379081612
Ni 1.1069388521907457 7.472104909343481 2.474608340107665 -0.915093667428437 0.4159458703439804 -0.09228820531246042
Ni 8.02218098835668 3.8099938505171242 3.421444721863603 -0.949208606834275 0.8620032153613606 0.4620022983824108
Ni 7.420424414744389 4.2813606088408696 12.716394893843098 1.4321844221445594 -1.4567981069281815 -1.5797168926423053
Ni 8.283278178152692 7.340971098170608 9.330976811709942 -0.3938446675695669 -1.140685858344087 -1.3275886031093393
Ni 7.259449110113577 0.6415077293246416 0.16896872382705416 -0.8267299939813632 1.1917523380025992 0.06070271719669546
Ni 2.0316985170473663 6.3177862216898735 9.05140493386922 -0.10259112990036526 1.0244457702017196 0.07919409113266361
Ni 0.10043490782385092 5.045752868142897 1.044750776693618 0.7253423974707959 0.02528525692935 0.06690164691855575
Ni 6.603489714391914 2.022580030904092 6.773610724527622 -1.29385033031663 0.7247443588754808 -0.20551341788790414
Ni 3.4003243118692614 4.693017160887118 0.3907448238243397 0.6176702535030976 -2.7640752521736784 0.7397128072598551
Ni 6.222963038920366 5.755933232215013 4.466655505768627 -0.26851084465604724 0.7850323571322609 0.5518631252003012
Ni 5.131403126045887 2.888482362814028 9.16766608585199 1.3375925083995868 0.41147086529176236 0.5982836214463696
P 0.20266810813884303 5.795473891530821 12.218229766690724 -0.47881294218184633 -1.9617756233205377 0.6666032317583745
P 4.004811894764265 6.30533790030821 12.648244870838763 1.8108364411340878 1.4516420166485386 -1.2100575640696902
P 2.3339967472181113 8.64454261871661 1.2497778961730095 1.570226436653367 0.7879371894838817 -0.5284012946329351
P 6.563776665785835 7.7610293598374245 5.575222075784352 -0.22700269810993165 0.4452860140689944 0.8575732046144651
P 5.1207603556517975 1.1882521584753434 12.790838940566431 -0.43943161217074644 -1.4797053505436581 -2.2152514280203337
P 4.091659804578611 6.168070659649912 8.020841795764893 -0.20802358590426756 1.1655114020281991 0.2635738123657461
P 4.955148686424756 1.3357538791034063 3.748118797678646 0.024850997605408813 -0.5411341688185712 0.9705104536358446
P 0.2659476800370016 5.591138143836622 3.353480697830347 0.4723126791694834 0.18702178684161985 0.46790992211609744
Ni 0.6901405627341564 9.224097266366124 4.482431847764572 1.1541242432371799 0.1819806248732866 0.23163351201372367
Ni 1.8218735314261207 6.60407039410651 4.670720874470718 1.1951222829160966 0.2710603505507783 -0.42822237371848826
Ni 5.915620153729063 5.563392541223555 8.918278665425637 0.18676544785643964 0.8618165532718512 1.7331377036000282
Ni 8.9313530321246 2.1579509893694118 9.992637756379299 0.21302463866328475 1.0410257860475878 -1.1093690505086764
Ni 2.4822878293332042 5.438292355210161 6.850791224405989 -0.4691450800747791 -0.6873098681781067 -0.5455508098290281
Ni 0.9148155247441544 -0.3006314979274424 8.868175079176496 0.2584241498440065 1.0497631659205855 0.6400571058387299
Ni 1.6183725108216531 0.9401567504139693 11.226176581408795 -0.3991902481521964 -0.27263283724422077 0.9522453367780696
Ni 4.149872945966915 7.387851912003739 1.5603063539861066 0.24758592157792203 -1.1592199125925324 -0.5125195904056722
Ni 5.7807391437729345 8.168385252747441 7.714790922938567 0.10971154299523041 -1.4075967055028662 0.8060714371907473
Ni 5.392872313784063 3.3623260830453496 4.544765093190349 1.1312928471649613 -0.9206505926909241 0.4837767139450249
Ni 0.9679658648708195 7.469673313038608 6.819451758746802 -1.02303114924238 0.5147672487892683 -0.0043968435161150085
Ni 5.091862466730079 4.6558264397913165 6.8340458731363105 -0.17933701660285242 -0.9605371444732167 -0.9749301799700952
Ni 1.0797194905690328 7.411278709239493 11.227504886255934 -0.4281406126379594 0.8666191168668171 -0.6405422730052646
Ni 4.907369633658108 0.26658461309894965 10.365736268064284 -1.2078050205900877 0.23939053025132317 0.5521333481425523
Ni 8.4019183023412 7.36070513534635 4.480280610884403 -0.38336022309847523 -0.9150309325113016 0.3233061952293722
Ni 7.1942315196679525 6.047089670361936 6.967876215733841 0.5201781353921945 2.211940104258913 -0.4703506703471061
Ni 2.336301319835416 5.381630717434296 2.4303741555362186 0.5830012413660024 0.04101937983515516 0.22363223897580195
Ni 2.3167850375526484 5.3631396977726125 11.42674970601482 0.34268562819724846 -1.2204576763570916 -0.838360636241756
Ni 1.462750347309779 3.419268987557974 3.543894649367095 -1.0513685627344926 0.8080429590948212 0.927464530288964
Ni 1.9207796184388854 1.3614217371126818 2.5980272768848907 -1.1509445599576178 -0.25294332923509344 -1.9383757563393584
Ni 1.2040303150953962 3.463300841541365 7.9419355883597085 -0.9645336672271196 -0.06727651375947123 0.9550604376293617
Ni 3.504492808795557 2.7709673055725523 7.1711703691899835 0.6604438970251981 -0.3965538389706138 0.07811988423187835
Ni 4.268930433700287 7.099154289523309 5.843705693012443 0.003351690081052292 -0.9277193266122475 0.07501399161304499
Ni 0.6005035756656391 9.48159242730753 0.34528758260402487 0.4782115611524216 1.0207783486524613 -0.28590847130720437
P 0.17937014921476477 5.8198080008206325 7.87078417708055 -0.13653483383566165 -1.0290483019707375 1.2579741852453108
P 8.438274296347268 1.8386043657029336 7.79455998410716 0.9955558266402468 -0.39263650619407864 0.5071776093674684
P 1.8797237479928015 3.4704958261300374 10.368936357678942 -0.9496822040365839 -1.8131509481998773 -0.22771206547213038
P 4.060529928003912 6.532510692403027 3.7183462599368164 -0.18514102487913922 -0.31631485151320365 -1.17007922390454
P 6.879167408896624 4.028492739375156 10.212306170475012 -0.002773191869762966 0.350166509955326 0.8246777394380248
P 6.309556901359576 7.6748347147019995 10.120703945497405 0.29917433517817504 0.4087138713719155 -0.9861856982792563
P 2.473668364819662 8.488330702369598 5.763352322881039 1.0055250220378167 1.3997556121918926 -0.8297032176770742
P 6.886135565471783 4.102474964262972 1.4512819229464973 -0.08202281883071035 -0.15014779663340594 0.6584361225665499
Ni 5.240779594162472 3.147601612332196 0.10827317665885024 0.5509832936985092 1.0725714220643527 1.1695125527677923
Ni 1.2315853821771106 0.9932345055763098 6.783636522724952 0.36239081993565975 0.7166158162310756 0.2545279001133939
Ni 6.975977605064518 0.5760823644186381 9.155767595575083 0.5647605499882595 0.981768028827535 0.09789449575564431
Ni 2.8160788609002716 1.54094250012842 9.327935501704742 0.11491545579367307 0.47479045128601455 -0.6687287627418096
Ni 6.4681096828060545 1.9374741602335361 2.3563021067550514 1.7977855214874006 1.3705370816464073 0.49353147933894354
Ni 4.2207521636298555 6.81538337149641 10.414511549466285 0.4954850035208887 0.2658255845144002 -0.7163612770181083
Ni 8.521583689150791 7.500648946564118 0.008244744635216888 -0.39301163014531026 -0.9771616404037751 0.8454298843837117
Ni 7.641218803099185 4.018140308838364 8.111964959977955 0.9324745819090458 -0.9508610548360333 0.2531161073675318
Ni 3.1469755670148967 8.238711010057408 12.285423482790083 1.2167370329723948 1.9987092631220933 0.05904821231240799
Ni 0.21589762519904962 5.017490097659018 10.074067198606818 -1.06846665586736 -0.6252629782486909 -0.12008363025817384
Ni 8.742332711902884 2.5380058625728505 5.40867133858136 0.6112185843404829 0.6605606251087205 1.052711449915632
Ni 3.679495157782091 2.6362314655450727 11.50836514721342 -0.054772210644873406 0.2921068868084324 -1.0786978466770647
Ni 1.0818244545344453 3.2331792852708623 12.456794768936282 -0.19396556514930466 0.010591402362601114 0.19609341012558487
Ni 3.34961464116801 8.51742819994321 7.992794965549879 -0.7541786049761978 -0.9730553315448853 -0.18281880450386578
Ni 5.767011512395051 8.23683287410551 3.5843698400985824 -0.12985716470516992 -0.5835625131861111 -0.7156025444752128
Ni 3.373141242729711 8.813747243677717 3.473619701532156 -0.4940382437720331 -1.341984209709379 0.851400757255166
Ni 3.3883659389967886 4.3934136475169225 9.33404443376471 1.2554861287161345 0.2962918714240575 -0.830378389367228
Ni 7.214464578473427 6.128330391682209 11.293171596168317 0.382008079945955 -0.5905955087734925 -0.32884512276973044
Ni 8.171569918057182 8.836575214957795 2.3799793221177254 -0.4776065805785709 0.16330875949539617 -0.08412520988569383
Ni 4.821882691924848 0.6545331011726855 1.5434412375252933 -0.4861624405683821 -1.4967049704254483 -0.0015164366445264206
Ni 5.967137332158425 5.868040709614309 0.28587951124052796 -0.6323381399279174 0.7745209160779758 0.18102006073223018
Ni 8.338370166075041 8.741089694388824 11.2573971891889 -1.1751473824560663 1.4475773596608617 -0.1295972261755639
Ni 0.17341364557987987 5.1460289963572885 5.755370698741498 -0.22703072313438968 -1.066065245514719 -0.41613227532317365
Ni 7.42935236535631 6.216158198514938 2.36724429012698 0.00291100299920789 0.373010504433035 -0.2512271178749351
P 8.703753803364375 1.6779829127732047 3.3485803054263847 0.6171755732548662 0.5735766056179928 -0.9229913250089588
P 1.9303789799708095 3.367216495016718 1.3154627523264733 -0.31610170706113305 -0.7482534977410146 0.3122039146686236
P 4.747292567960813 1.096441251725305 8.230829190243814 0.7598160057676333 -0.34946922677798525 -1.3364337122047951
P 8.539893246401663 1.7294547255998642 12.035770219931894 0.9032961605728765 -0.36250523402633694 1.560797687140299
P 6.552235656458229 7.888470410950285 1.0509749373844497 -0.12461494246962411 -0.7632157754778017 2.3747593257124007
P 1.9431902261740959 3.465178977493263 5.908934171202716 -0.56416148295168 -0.19530073902096043 -1.5084847366691956
P 7.07580007725188 4.280825294728976 5.828381192419418 -0.03155026400245534 -2.2464677057221376 -0.7365534356952669
P 2.6640042875197607 8.238838033744976 10.07851574960786 -0.212925136970943 2.1122383800912012 0.009796674375447643
