# total energy = -381166.8021291415 ev
CRYSTAL
PRIMVEC
9.30595056136005 0.00000000000000 0.00000000000000

0.00000000000000 9.30595056136005 0.00000000000000

0.00000000000000 0.00000000000000 13.62019930645738

PRIMCOORD
 96 1
Ni 5.414443999010502 1.469102499358556 1.6337294179983128 -0.6598000927936121 0.6276890711916803 1.5094005636152457
Ni 9.321119274025035 2.7230979511855 11.212911076812203 -0.305918338770228 0.22482163129821284 1.537439986250965
Ni 0.15961008068499646 3.2197006976478377 4.364933782729336 -1.471061558825731 1.4575815220614252 0.10326835847304795
Ni 1.1520208454306033 0.5067899705563403 7.986544526767788 0.5046437872020212 0.9430613562859564 -0.4495589304127354
Ni 6.936404297632721 0.24904864106230865 10.55716633897877 -2.270224698932419 0.08549535076034308 0.9585249991391943
Ni 0.6006367597208351 5.388647904017743 12.610561557064011 -1.200037975050159 1.1324362167407853 -0.18603808277211187
Ni 2.6580493566691263 2.149953761247171 1.1785567634940424 2.691886902934886 -0.24389510298989608 1.07430100316095
Ni 7.739889376193263 7.464963678368196 10.260845330187665 -0.9418894474650423 -2.631404015058481 2.6569080728668566
Ni 6.764616450025819 6.520754015218728 6.065974071828705 0.11505480958501475 0.6603289687138886 -1.2715593801289133
Ni 3.6737473321325833 0.662267278591162 8.305937778818468 0.15869440065183638 -0.6889795425710457 0.7584188683097907
Ni 6.957547417338186 9.182600199722286 4.9368868109941175 0.6971834185380767 -0.5953769893225359 0.8595838072865907
Ni 1.034375018266656 7.321828852580452 6.444247934354921 -1.5381858632780543 0.7109385633406401 0.10387539592942757
Ni 8.463315361960621 8.86707263954029 6.521242577623894 0.020598907197274204 -0.4909518915372254 2.105528572171193
Ni 5.092141706810207 6.776984058339446 12.891709213443248 0.14656085061309598 -1.2402880808194574 0.6310297055291391
Ni 1.7381096126181843 5.594542060480514 5.182894267408651 1.1986914883245936 -0.18942936784184797 -1.052961104032593
Ni 5.282541455566287 6.0146591991703096 1.647608312685254 -1.599167545167749 -0.5518088749235981 0.46714681869782776
Ni 7.6479279726151805 6.519441876187711 3.3109613631476544 -0.28015974174888525 -1.2576309429732793 -0.7423021652535862
Ni 0.3850392885939421 0.8011744110328716 5.060598256742582 0.8421291021452529 -0.36572348385331854 -0.593715542459713
Ni 5.41689146401162 2.0094711313731835 10.828861941359397 0.7322383532596809 0.3342611515789792 -1.3586027921026667
Ni 1.7119226677012924 0.37425090009282175 12.03637417006627 -1.1251566523602365 -0.01743825008110545 0.6715572333295402
Ni 5.347766863143576 5.303703187172901 7.435974711733296 -0.0662868961526923 -0.8340270418634087 0.7673501093611494
Ni 9.040116790474762 7.789099242831687 4.432952836669118 0.36547254418477704 0.21226744878228604 0.4325467121254551
Ni 5.198229543360514 1.1927250732438532 4.063313965681063 -0.0903447084328444 0.46401290105453635 -0.1367556915972161
Ni 6.696217713302593 7.600355953277884 1.3740189493626982 0.8951727601347939 2.2917738858581047 0.23491552519910514
P 0.6984916217978051 8.704925756728661 2.7240946184920376 0.4011813104402962 0.9341463131845138 -0.37515223336638615
Ni 6.6499764448974625 4.31906847472742 2.0467209903331463 0.7933061671052789 -1.5943775799782733 -0.194564117965252
P 2.3614873237581415 0.23134779247438392 6.257759476625341 -1.091358729974185 0.554206171511181 -0.37108911904060604
Ni 0.9637893831584027 6.522875771949734 10.4712640398198 -0.6373222234060701 1.9031884098049479 0.2328185334607603
P 5.267717076300967 4.701515125491281 12.056137217301526 -0.22409118089009147 -0.2585583614290257 0.4149629376054208
P 0.7611551011819113 7.700246026745517 12.574045007009326 0.21942797108646722 -0.7844245483449329 -1.157688820659987
P 6.2886356900367675 6.529082840982984 8.953782695209133 0.2358917730694454 -0.993802591394566 0.44756324013894533
Ni 4.2426014788560265 6.442397911380693 5.72146405917721 -1.3063068109124276 0.7190946167888712 -0.2675114568572554
Ni 7.729271286587657 1.95109490341879 1.027059610519972 1.4778994076831709 0.4783498865024987 0.7416429344030324
Ni 3.462353358880232 6.018781735274851 9.758109962296675 -1.4193399620817233 0.08067761765672558 -1.2361912850422647
Ni 7.098811747060439 2.0878272352112184 8.913562376825762 -0.6258923843025738 0.07728530414572496 -0.7461737323938504
Ni 2.792873968593764 1.1874113754657631 3.9730257720162903 -0.19989452903922994 0.5719740370175633 0.4456307990029228
Ni 4.132093315782789 8.86447627932998 2.77300483352196 -0.7379824548323097 -0.5383378370203568 -0.9290146483849032
Ni 2.182515282307656 8.15893633056698 4.2752988667949 0.29001555149704245 -0.7433730297202616 0.02687625556555371
Ni 8.340020822797898 6.693863307807223 7.882295546051018 -0.05314727344694073 -1.5292744197210373 -0.4972971170289629
Ni 2.8632548727893763 5.322119663360011 12.229562912209557 1.9600203311923277 0.6183616231431672 -0.03817779662130199
Ni 1.7079862506082415 3.332256169847485 12.84248631847402 2.4948547830451164 -0.7751541787866005 -1.0588651282218537
Ni 5.662717454389949 7.573824688189732 3.9053882620500664 -0.708075125749916 0.10934490368443105 -0.11614341466350321
Ni 6.212354813176867 0.8994238454142041 13.326588381529513 -0.08314073448523747 1.0039381371666711 -2.2381802689023647
Ni 8.901718693529483 5.302297988636138 5.761889108473222 -1.3077147470035477 0.3270857168764625 -0.24019091466543152
Ni 3.809009323734226 1.6784305515833484 12.239465374215975 -1.4266915173507881 0.3245547229244926 2.925485766205097
Ni 5.975239192536352 4.163445063268577 10.113788046232733 0.31347378251998276 0.6038238345383086 -0.32449790154462826
Ni 7.104237116245423 8.338345751694472 12.7653548777316 -0.2289585362847218 -2.361633329853404 -0.9811715328941166
Ni 0.35535237566594746 4.267587956148796 2.0182140719380097 -3.4450820609518926 -1.388569513668086 0.6638899465922696
Ni 2.313077768869132 2.6667038907034937 8.132226391227798 0.7044652969114708 1.6623580617833047 0.4008514379047032
Ni 2.4787702188496796 -0.2717374791582128 0.860828346001156 -1.819896751564143 -0.0018347392158936141 1.9908396305660294
Ni 7.339184450402059 3.964409392379279 7.337868588990812 -0.615313837455779 1.2560342879101207 1.3426182437489522
Ni 5.3108222393624605 5.276483281742229 4.0640091201889845 1.2130307877654014 -0.6187987106805859 -0.315563832279792
Ni 7.460440986388946 2.039380456519911 3.6144740105427995 0.18641577782650476 0.2801530568806659 -1.0857534679722654
Ni 2.451531701517859 8.462682557321548 9.818066340658634 0.5052464537830266 0.1273873630084387 1.1195287646504977
Ni 7.028151664347589 2.846373878447073 12.552797660657426 0.19676961025700307 1.8959170729545156 -0.8105143034534493
Ni 8.564284925694905 0.7263769026945595 12.029032705657979 0.5717809471701507 -0.6026562965927685 1.7599501958071821
P 6.34692816443599 0.9511798201298353 6.667196175840681 -0.8079640262277699 0.15999255063796963 1.7726786991174437
Ni 4.664784538573381 8.815964358984651 0.3380944903253732 0.3324063577584276 -0.1603090534371239 0.8123665261708396
P 4.328197612241091 0.11251638720723411 10.959643117759375 -0.7221814832443111 -0.47796962034494456 -0.8827723295879119
Ni 2.979849127538395 7.91894517119892 12.646123316589744 0.5531350499341893 -2.158327975360412 -1.7128547849812759
P 8.771928600865698 1.0409729372240393 9.879111515237819 0.9532655505124679 0.07482347286879372 -0.5642352736124089
P 3.3395241172462384 6.708557403764497 1.2211175284469227 -0.6723349920358291 1.072768111456191 -1.6083060171339076
P 3.2788865433022205 4.8292206852263595 7.627147784982124 0.12168594174828722 -0.5135061226886576 0.27455345130570136
Ni 0.7363370615945414 6.550458609452814 2.159128497918658 0.8891432661112623 1.2671975036157916 0.6228032038542887
Ni 7.193397428700557 5.96557961583993 12.017156451534689 -0.037844581651599346 -0.8701554121548497 0.22062353405646523
Ni 2.3065822153680693 4.4362490043626375 1.2657618957334533 2.353546439080211 1.4155889796797234 -1.2794475246277386
Ni 4.289410410246206 1.807783264570128 6.357459708701252 -0.23061175561742864 0.4900700031529044 -0.5605650238496732
Ni 8.338904108728947 5.994502510225751 0.714629070689199 -0.7077336832500972 -0.42018561945694083 -0.0985454990760819
Ni 0.7252452991046895 1.7171433059736365 2.766139833783086 -0.2071015883106304 -1.1718993078324142 -1.0463333143034304
Ni 3.5558595502536967 4.094720618275241 5.559724777000748 1.0241084414669588 -0.03329681437991685 -0.18668882898223332
Ni 3.088198310078328 5.698573281953838 3.06323695885211 0.30682876639963935 0.46429752217449066 1.7641025274126587
Ni 5.206930607147755 7.8675297942743185 7.576658350139694 -1.9694909896869242 -0.7847991580755322 -0.8879705859593998
Ni 4.136076262628712 3.212963189431836 3.1695425546458633 0.37728959142436314 0.25967730552481727 -0.5541436937043618
Ni 9.192836745354333 8.373029029485965 9.069418437048968 3.231312059482151 1.1947417596482262 -0.24852463134210748
Ni 1.2792983314392496 5.265213775596402 8.098094025710322 -0.8490952490504409 0.33949874582883466 0.11733640653033985
Ni 8.061233155484377 4.982666504250748 9.73514659865882 1.056766336711296 0.4987497903150895 -0.15606647611068605
Ni 5.800948044224885 3.207174888174442 5.1471547642269435 0.5385787493865692 0.6940718694922885 0.13322171030202865
Ni 0.07497990496957412 3.00788795661963 9.007664149036 0.18777537717819273 -0.016368928276326647 -1.2082246246260095
Ni 3.6396503292272913 3.8193575407731686 10.234204254882735 -0.08789444712013894 -1.0870289922505796 0.9222732158960116
Ni 4.377091076559979 3.7901926916724085 0.2503570577130958 0.6865256817139144 -0.27397161066030234 -0.2413250282698747
Ni 2.7995556411063185 7.6635154398276155 7.653039731265801 1.1713930576199567 -0.2043368810812997 0.3366718179030009
Ni 2.2581447426273367 1.7006066318025927 10.373388704651568 0.07507389831670297 0.7974636409170781 -1.340016801570363
Ni 0.8233579360125756 1.511109560252248 0.32447150927923313 -2.5732173794154196 -0.7653667603825335 -0.4087359828591025
Ni 4.185528083982075 8.885088959852693 5.59218114081974 1.1948217209565422 -0.9123677838568417 -0.5207193526076452
Ni 8.97310464038715 8.511008358655387 0.5457139700246715 0.3010360709772622 0.47794468064428014 1.2918525831603107
Ni 6.9786719251425025 8.626448675533156 8.454970716080387 0.8490060317707443 2.4869787227311493 -1.2750712499369137
Ni 1.3875358425722881 4.375341557851955 10.55203131545171 0.6744756925279158 -0.7694525004161329 -0.833803355888377
Ni 4.792536628061331 2.8631804251847797 8.439824350925187 0.1373601579504344 0.3185599387936385 -0.46054859665501974
P 0.11579394299960415 3.5565388846456414 6.932477186490245 0.491191004131225 0.06781053188607032 -0.019307956299992553
Ni 1.7627331578385455 2.650316111741643 5.868126770827782 0.7448575846855882 -1.0579636994535069 0.01494710822813555
P 2.096472463295011 3.7083840801712014 3.607514090108065 0.19609520989779775 0.09890288241550063 -0.17687004311959859
Ni 5.003437385933229 7.403339673663271 10.620772511156083 0.7550000724362288 0.9168615579621372 -0.20635648261448977
P 9.072650393683523 3.545771899830843 13.456402669664794 -2.384429758922629 -0.27085903317324966 1.1939241488429375
P 7.62588217570398 4.494550784712434 3.9370415223344715 -0.2689651585846465 -1.0816546153125437 0.8112871770637319
P 6.832103203592734 0.033440933389783614 2.887264225271814 -0.8919403692404252 0.03767977393896091 -2.505774258171097
Ni 7.852705415008998 2.3063030368508315 5.917704222513901 0.7544632260961522 -1.4786599399982794 0.08534596966667236
