# total energy = -340853.5714979717 ev
CRYSTAL
PRIMVEC
9.48327136031636 0.00000000000000 0.00000000000000

0.00000000000000 9.48327136031636 0.00000000000000

0.00000000000000 0.00000000000000 13.87972621957736

PRIMCOORD
 96 1
Ni 2.8635402144335296 9.372706044481331 2.134646483135446 2.370584882619737 -0.7114219307349618 0.5745402550828428
Ni 2.551132801179047 4.052676078508426 -0.05428414276026192 0.5040102673830804 -0.2574638428132663 0.7166811222513721
Ni 2.2307215067726727 4.8532348925847675 6.242643225979847 -0.30801173096414697 -0.8168788122188964 -0.20773150858514547
Ni 4.8624146994035256 3.1107027197199812 6.602849172610967 0.3630099415768974 1.4494120988767554 0.9161431917388738
Ni 7.273119216107195 3.4555903378858748 10.292331125636423 0.22173990704909552 -0.7051155289009597 -0.15844243254203036
Ni 4.455003872192105 5.887063219189833 5.817478766180207 -1.697013189963329 -0.016667947573984196 -1.4134392803265723
Ni 1.314352981053077 7.410000757038961 10.117917641061476 0.6619865589219696 0.7430963790201073 -2.093615622783691
Ni 8.784932876478635 6.659466200161947 11.146558618152225 -1.364750299761301 0.9410484396209857 0.3466644103393384
Ni 3.9274115451727116 6.9357802820608585 3.5520304674761203 0.4028412146412223 -1.088879158085441 0.19416662541651722
Ni 6.684928784158192 6.303037440572058 0.18235003449913917 -0.5957878516077094 -0.8173938041821021 0.3415926522433859
Ni 1.5564040029972657 2.354127318893019 5.958302503077427 -0.14395863710355852 0.16394125087307249 0.12163811922948728
Ni 8.316411847676227 6.68879795893304 7.859714561788724 0.920352601834531 -3.2221445340502703 0.7427315394815208
Ni 9.094770323154725 0.14424530125693794 -0.009594225783612905 -0.6527164464739533 1.4490444311246915 -1.3524732821661611
Ni 2.684799513069948 2.7089818554127496 8.719758144719755 -0.5431339728574195 0.911192789712134 -0.9248047240686138
Ni 5.865725858299125 4.199306422549371 12.015276549530691 1.9294864242695289 3.49914670400678 0.06220064189846062
Ni 4.561330312328378 1.2266042697989794 8.403133520626119 -0.014843235660419599 0.12063076101089548 0.783562971675586
Ni 1.4393614660581033 0.42154564339257594 10.107952619361942 0.20094148224650554 -1.036429682036473 -1.5035582459018557
Ni 0.9371055955239116 8.125883439829467 2.5653064987733813 -0.5555590859946498 -0.3803777434313836 0.32009565871187456
Ni 9.265564042995457 4.4931076571071555 1.9303094836473709 -1.4653675937647472 0.3036246576400448 -0.7471139848199327
Ni 7.095554440410479 1.0216328394470875 3.166285122349549 -0.18187855207778356 -0.7513586190288996 1.504114889736274
Ni 5.730200425192856 6.873835552577257 7.299293045466463 0.9313252987959508 0.9374131568612436 0.40435328041037455
Ni 0.6340742928083815 3.6278539648101886 3.9254779061124383 -0.2794138647217962 -1.8408530421008358 1.1963903509952427
Ni 0.6250632882224479 4.702906072656101 8.39369482049522 3.301077401101747 1.3550469564306082 -0.969531377552027
Ni 1.744684875496871 8.978913195153936 0.05095077282555803 1.4055963872433856 -0.35468059577559563 0.10203628583815977
P 4.67454160757872 0.6645639590304768 13.420667988723638 -1.8259069623139652 0.7899884155859556 -2.1531091501636337
P 7.948119515431104 1.5308655528289652 1.1460723281616951 -2.6507261124258603 0.5304478927493187 1.1544147778944054
P 3.88777147027353 2.922602029379009 4.549566314023968 -0.018449979175071452 0.40050896696361993 0.39726629165660615
P 4.795709367623419 8.614641770027772 8.303823753077861 -0.27657870926584627 -0.9913227623955055 0.07835951104651022
P 0.9372355163435573 8.543887081314187 11.848123457621488 1.0824915093915422 -0.4057113371001658 0.8173071580055666
P 7.1521506047641425 9.654634223112376 5.523853920472452 -0.07196774858755348 0.13184437033852778 0.08259051840872228
P 2.57653848554625 4.901040064251459 9.53358121065291 0.7163142258302567 0.3765601694575063 0.8901529383226994
P 0.7264736004095024 1.8274453859382962 7.924865585368836 0.763488312412898 -0.9196779443650097 0.5673992731626872
Ni 8.19429576048083 1.1070202160959464 9.407429043104143 0.6690496364163381 -0.8750060553789317 0.8590371907545012
Ni 4.73724499878288 1.1690977113806456 3.5754171633394867 0.34615687457530064 -1.114960171443209 -0.0020000611491642977
Ni 6.588702028176853 3.034068402672066 4.900014922601556 -1.3540794503110165 -0.3138548200084853 -0.5429138864268134
Ni 2.728953625206452 7.106289503756381 12.749403150046328 -1.335389844321313 -0.36949349241871204 -0.8816153331653334
Ni 0.9392355383043796 1.1345786030952338 2.3179837261984617 -1.1818155385048614 -0.49635712171319685 0.5789759222566931
Ni 4.261962397395996 6.695028468313127 9.811356664691049 -2.2163161218394216 1.265939977059607 0.17750639115201688
Ni 6.79855734335484 1.5169346269852098 7.4855587227708344 -1.0165239442514817 -0.1198501740911291 -0.2063515975184833
Ni 0.1680985740784478 2.522398488512894 0.6464234089647725 1.548006963133534 1.0690096728550236 -1.482530478697279
Ni 8.479941381542611 6.58289826601458 2.814781025653235 0.24806594653813407 0.7028488443539702 -0.1408080072897188
Ni 5.806000214348157 1.2808201330043911 10.984942808475948 -0.6121197559985135 0.32607527333407715 -0.8044038196803373
Ni 4.568831580090401 2.8020127488962356 12.74383741799888 -4.512577868265551 -2.0885119830085386 0.5363400898640376
Ni 6.666028624044778 8.783216404335871 9.824972745920773 -1.0801016690031269 -1.1602460398642018 0.8217322836564557
Ni 2.296649210289206 8.83253889944368 7.859991473316728 1.0717944346890123 1.5443287429509982 0.368297672338398
Ni 0.6430454676539857 2.5773824967103716 10.171785468202582 -1.1944198575324332 1.5530663799343123 -1.5135670362881095
Ni 4.6816066448514215 7.8935053548224 13.507666573201533 0.7168536432734944 0.44937561075733573 -0.46214088084280414
Ni 4.212298504513935 8.833591542580955 10.885980128664848 -0.13975359788327543 0.474751370517963 0.1316692782132442
Ni 7.373224630134889 3.95298792842704 0.3905334489104459 -0.5826682835066158 -0.6380189923627786 1.0081845711478508
Ni 7.448151958311547 8.584655665522698 7.558663366163852 -1.209887099930097 2.6238087192097264 -1.62792944779179
Ni 6.24170912373641 5.951312383649631 9.374089653794199 2.9194475304308174 -0.0868732049444762 1.3323176331538926
Ni 4.2065800917952245 5.1411280489937035 7.972209870040289 0.8886593844963083 -2.3959997231484156 0.6007413389582428
Ni 4.008237468226713 4.246210683422899 2.4747137543943407 -0.06832860917306942 2.113685911171005 0.17637176332694143
Ni 9.082223954950988 8.33603273642417 4.782967644026639 -0.09147188005875215 1.3574326830539654 -0.34457153236605176
Ni 6.539607131585211 7.738453865683257 4.155965026781014 -1.0875128738655335 1.8543911857965867 -0.6981105583380365
Ni 8.625263034115592 3.121153284920675 8.270220728820023 -2.83208093078969 0.08440417457869336 0.17170546819952365
P 8.760646218149255 8.39902062577354 9.285120445497155 1.2212099811420838 -0.3758243197327463 -0.000888059031908148
P 0.26824571450077234 1.3893087590442563 4.365423941210009 -0.2741600725220246 -0.021707566880420682 0.45626179635420777
P 2.2651173325284937 7.468256493906347 4.746532914896817 -1.1809246512594758 0.3449453707657027 0.9383390111096227
P 6.115941977010825 4.09246788575172 8.441885961312247 0.08209815215333602 -1.8968136166268559 -1.543837919357509
P 2.127401263704112 1.7448555743839964 13.556925530390245 -0.1670923949075445 1.0458748866097731 0.3408920266319355
P 4.826748115265769 4.611458885514281 0.27396223056518065 0.3743873301759036 0.28694616854309934 0.4455757773952713
P 8.000201642547445 4.138518652189621 12.2918580596861 1.459612436448525 0.20791482824054514 -0.4111764739797951
P 8.586182472235322 5.076698702375274 9.675515438643599 -1.2019997267622202 0.9851770545090839 0.9789097334431334
Ni 7.976550363409035 8.826545471851269 1.7371864527163008 -0.3508972174737634 -1.1790701145492404 3.009421228677488
Ni 0.4820934869831989 1.3170557134325667 12.062050889584576 1.1212313491639012 0.34851071951945783 0.5200017577153302
Ni 7.838075632864094 6.404726560941418 5.215529055601724 2.1971184658650484 -0.006518517844808129 1.1337976158646859
Ni 2.9492310557706123 2.290760098683371 2.61432932250157 -1.0212007809018606 -0.2106967618610565 0.004771196136398235
Ni 6.109303686955938 0.06650428642415793 0.7283332699520214 1.032866390165247 -0.32925109995889745 2.2379475840662684
Ni 2.1227354941226775 0.19202581641771213 4.691319411528871 -0.4051531506038506 -0.6710481549036056 -0.6825471566821406
Ni 2.52055873384054 6.527051280109968 7.861810364791767 0.5789034171475449 0.25132481979506394 1.9936393047983536
Ni 2.3478019767978626 3.223060520534695 11.54269952550475 0.34123963977934135 -1.6179697654759164 0.43079450532103875
Ni 5.049955876725586 2.544788492540877 1.2315478992355688 0.870047682932392 -0.7003654158104842 -0.07588508136408867
Ni 6.620129589950988 2.0129192100718347 12.993533853431998 2.5307468689560353 -0.8271699097322592 1.1567971620836528
Ni 3.697612910015543 1.3050593749762351 6.08856377217017 -0.8844134647357607 0.4364640449019903 -0.005877027606067299
Ni 1.2852108877121236 5.540013415120348 11.390966233065898 0.40850715467774806 -1.7487944363006784 0.19511587670366395
Ni 2.6001328650556195 6.7871300011889275 1.4905995820103228 0.04415432591971105 -0.6999843783219816 -0.369353624406738
Ni 4.8685219262540205 8.931781335764239 6.069187551827106 1.325108002779331 -1.0289490573887117 -0.20610605716658054
Ni 7.193042471502245 4.695670336496275 6.4582501453268195 -0.9403848378950579 -1.4357939938726885 2.0237350957424693
Ni 3.6304618644746087 5.115665464997458 11.638692044679864 0.40115714207058006 1.1467354069722766 0.5228309996340093
Ni 6.738414435457566 5.168345038218741 2.369949209075267 -1.8057567126183354 0.8318434039485288 0.6105123023020775
Ni 7.638888998131461 3.251737933571806 2.9228618710183003 0.5219889633486882 -1.1862884866745504 -0.6512401190387429
Ni 8.393245313425789 2.3707514938447574 6.161044416298028 1.9067735560530452 -0.3425257055806165 -2.2283640541428915
Ni 7.278363465250556 8.022506297131866 12.698922747487515 0.6294736738959287 1.6312081185430616 -0.27351498273885794
Ni 0.6197185164011133 5.963991517654465 4.587596129421264 0.7923162923881838 0.9899554497343337 -1.1112246156601766
Ni 0.8768849248002794 7.320971804131422 6.802301338945797 -1.4534520732740839 0.330505798301605 -2.4847300359062885
Ni 4.680677284243737 3.657527121355533 10.04227337755889 -0.6180991135104 -1.0459749025227472 -0.5114944915752675
Ni 0.23434586384476655 4.750123281489361 13.614332514457756 -0.5219393410576753 0.9116162504027977 -1.6402020945115559
P 5.093787557630853 8.475749775536526 2.812865404808825 -0.13769877223677576 2.2692628492397824 -1.867479900659745
P 8.988861146964759 7.615702399296891 0.43369940415592306 0.47596390276882544 -3.3681525974836894 0.1885035135934689
P 8.007902059011114 0.5571109062391739 11.900463529722819 -2.3835977499396366 0.44139876319944626 -1.1600434369350925
P 6.0611002178859525 5.430424729585673 4.582155576557709 0.2973444810582879 -0.8021556470761089 -1.531587127014614
P 1.5203011883701882 5.06062455717094 2.6902798956738323 3.2987711215660735 1.946466503767293 -0.46048714728946505
P 9.400378230738703 4.92837085273458 6.275052306354955 -0.1953472759881797 -0.4944354792104517 0.5933406756187974
P 3.276489272205027 1.470362280614425 10.425562555365154 1.5896405795139203 0.16929248788265683 0.252340662654088
P 5.829158363368205 7.07258595682057 11.421502367318377 -0.9807131052004594 -0.1324699197376686 0.33599150400652456
