# total energy = -381168.33402937104 ev
CRYSTAL
PRIMVEC
9.23643595554773 0.00000000000000 0.00000000000000

0.00000000000000 9.23643595554773 0.00000000000000

0.00000000000000 0.00000000000000 13.51845765420028

PRIMCOORD
 96 1
Ni 2.5981447185528332 4.206965568580987 8.220776945684332 -0.6031964853669547 -1.147743793632133 -0.6215166238323813
Ni 0.8707243390514754 5.893021494265268 11.290413075802666 1.5081466366034866 -0.4824649371121369 0.9933999566395086
Ni 3.7198544205359263 3.2157297578581714 -0.11354442819281614 0.10990514706327523 2.243756734548878 0.8976700726353509
Ni 5.394651131053402 2.732230056187369 4.330016136437195 -2.2128551598740147 1.1592286543432808 0.09328707889061999
Ni 6.497915670864135 5.888671133031826 6.689879285774918 0.16534430186818622 -0.46683648654626053 1.9479230337081612
Ni 8.358484813416013 8.666215142958606 10.173734460367037 0.7892116853209311 -0.9527510727698946 0.698663602628029
Ni 9.557771339177606 9.607925185244666 6.569267136954014 -0.8719035051942081 -1.8746447938393007 -1.6255190385780844
Ni 3.683712247486127 9.211580491214525 4.287919233265953 1.712117135484303 0.8776802597769853 -0.5916674016814326
Ni 3.146927548032474 7.628030529370437 11.868827314779127 0.987960530791492 0.6747356310575218 -0.5472904182279542
Ni 8.23177015150183 1.0536002248378795 8.227157475493378 -0.6468106225124796 -0.5335391300801328 -0.1940936060867367
Ni 8.284011432046084 6.143883088957971 10.069303623318671 -1.326180409907903 0.48187281205409277 -0.9786320543017146
Ni 4.181916354854676 0.5560491334761337 10.572258029588195 -1.0013539213792624 -0.5870268175856278 0.20858974282038267
Ni 3.4523672415115993 5.607661812084446 12.821053962798514 0.5199788748971947 -0.7704488028911312 -0.5177055054819858
Ni 5.030643198548267 6.516046794221342 10.213829827913464 1.6587852568303818 -0.3287129680672403 -0.030105046915496536
Ni 0.6625877251603189 3.2337685168579817 11.568001220952027 -0.4178433444770094 1.0730617314372102 0.14584325572078108
Ni 1.1622946006237318 4.764753922906923 4.920853381483675 -0.30708459116418724 1.3474269779915051 1.1957583738381987
Ni 2.9853268683291025 5.825050563656151 9.907366737354373 -1.340789932290962 -0.9615653286274148 1.184269913582625
Ni 7.058280990761473 0.894444429674831 0.8824952527582642 -0.04711777942340918 0.2844123463776521 2.338124448098186
Ni 3.400874112262268 5.556205628578074 4.7646209182322705 1.2278575683655888 -0.16797711150534297 0.24171917838449986
Ni 0.9818608284469282 6.212352787097037 8.596724818670294 0.7042215563317807 0.2674271246735653 1.4045530335805358
Ni 5.736371544118424 4.230601607639111 2.5908664071898784 -0.7323993043175774 1.4031440690481514 0.668869659195048
Ni 5.660503460951786 7.705339496512481 7.952016062171487 -0.6355869858825183 0.3876395672001195 3.0814946496049704
Ni 4.689264533605617 4.136519273193606 9.29964436413198 0.7847405369234549 0.3279166974181901 0.16397673209669825
Ni 2.011760359176506 7.346494731585889 0.4277079352281736 0.3959861393926019 -0.9756668010258035 -0.7029660866581249
P 2.2570339102466375 0.6386625856635401 5.8555197178745715 1.2906709041473836 0.31735074897688575 -1.8515966537705855
Ni 7.263283682006118 1.6224168834371255 10.259008929691078 -1.2982258336765062 0.07073696150424591 1.1640348174826727
P 7.135756213746833 4.822786448660025 8.63034544476313 0.8346556765863433 3.634212152385767 0.5077908174714352
Ni 2.752217703128275 2.434244166350254 10.081375644830578 -0.4142458569337382 0.527281322095879 -0.7828353494809421
P 2.6823810124997203 4.185380018257097 11.35509860621914 0.1739148171460166 -0.317247390629802 0.3048469600829201
P 0.9764667499748907 4.669027502899737 2.8029709938748484 0.5536490134561304 -1.2020925435863425 -1.7419069651522259
P 4.792961997656243 8.694469399886625 13.053922980670107 2.157908114214174 -4.465430778266104 -0.8056060675185546
Ni 8.26169620329875 7.50235958469485 7.961276512644201 -0.9326378469597874 -0.6447234009661477 1.3026728137042662
Ni 1.2531718918675285 3.5907937039438362 0.6813857191779402 -0.22969412889916568 -0.7970275818209241 0.16530496398981853
Ni 0.10109833103344872 1.6079988072473128 13.235570420503118 0.11570401313323944 -0.25188326340169526 0.44414701536854473
Ni 5.641845860757409 7.157443364863861 3.2656674713289218 0.7449899964983945 0.21225073661173768 0.9830322402519392
Ni 2.014318851876428 1.5063887776738796 7.743399153621862 -0.42384815591019265 0.6707429649583609 1.6842443203334347
Ni 9.173073790615339 8.700029734201978 4.189518865112097 -0.7723632463050246 0.8177316471374948 0.1741161345235453
Ni 8.800383608514801 8.676135074943142 0.5154494565383114 1.655756240196071 -1.6094861534849378 2.5829760014640804
Ni 8.228334197406628 7.051870904358058 12.386488897677118 1.1358002481170117 -2.2143623405471606 -0.21931921342274488
Ni 5.9704967172506285 1.9021146305094554 6.3289092169845995 0.48838027415530727 -0.4384008569133869 1.1181727648432356
Ni 0.19736046431354323 2.63879427224365 6.576378268830079 -0.4713850251488914 1.26961305503582 1.0801381786680173
Ni 4.940587950085311 1.4103390824158002 13.01101511844091 1.6310078296067976 0.6695479162089952 0.9472460837912654
Ni 8.989074754242976 5.1349317944862385 6.991854392208048 -1.6348349166623715 -1.4374274157110536 -0.11365972900970102
Ni 4.144748937437759 6.0725962779182705 7.7453323396222 -1.025709981626124 -0.5496964565662855 -0.6720457429301845
Ni 3.0790951639594537 0.2201716896601033 0.45639907556668413 1.944472870376032 -2.93206110542977 -1.7475204546842615
Ni 1.0587172102377234 8.885931476336738 12.135303104089948 -1.4690833520534377 -0.24983332285120197 1.5780798712595145
Ni 4.760394325237742 6.699556299499497 1.1921550737268998 -0.43653423601829333 -0.3893079560414779 -2.126886211911363
Ni 2.1898018944967035 7.640037895832164 4.422942069128077 -1.5095764270714775 -1.5894806568972883 1.2851959970757416
Ni 2.8661399015428484 5.010082892591493 1.4827176401599451 0.5099443734793282 1.2595613272267727 1.1025402005123013
Ni 5.008143241086138 2.594838074557988 11.20839629736405 0.4854011369223253 2.1175844748944623 -1.1356922617842375
Ni 7.3262022822655695 9.014123967969288 12.496299958543911 -2.273747624484013 1.4586780975597136 -2.38712607480787
Ni 4.176226710438965 2.095571777079363 8.13763794030333 1.0009001216712956 0.6235843049946873 0.55762316761253
Ni 5.116154120627245 9.225952385225638 1.890056463651159 0.06021832136110919 -1.2082032844697708 0.047392373241034506
Ni 4.90143469898434 7.37018618925845 5.492562891756624 -0.34327235393865396 -0.3958182463561699 0.32821494538489926
Ni 6.106817272334194 4.502448384332618 13.26107960872927 -0.10117162384501932 -0.5460213217075436 0.4360099880837071
Ni 9.062402817581171 1.3618200854746818 2.246645690970095 1.0009466586385147 -0.8181306823481266 -0.5268030969078799
P 1.9169391098718187 1.3296957619716914 1.3885891235357422 -4.0527574080258075 4.115761005441537 2.904515077490701
Ni 7.739468126571007 6.788807978053089 4.914499637338273 0.18616535237859552 0.1631454944446545 -0.37460998770967097
P 3.4383370956228574 7.150174289936646 2.75341197426943 -0.5221730543350361 -0.09568308992662232 0.17970519857554856
Ni 6.901132273084681 8.296231236529826 6.387633551774613 1.5328212565320312 3.0160225360440895 -2.37409058178015
P 1.9074440539313142 5.632692552939278 6.761594667432946 2.1004768686798987 -0.2247272718121936 -0.6141902653742971
P 6.025102525344269 5.3830039855855265 4.67220853136852 -1.075344871044432 -1.0621859650649708 -0.4859552096535825
P 8.915626617240164 4.652651302333088 12.869463046154328 -1.1542512557333475 0.24138853451795844 -0.0867976145115344
Ni 9.253984967695901 3.8429853453830707 9.375198408483467 -0.4997982861842618 0.13767717497022094 -0.9735476978002717
Ni 8.107401544265553 4.813125136876205 3.6431698364498915 -1.0901099451687484 -1.4372376682977508 0.3803072952047644
Ni 3.209310435019017 2.593942140291228 5.771799740685538 -0.20405431684387437 -0.18766661951447036 -0.4210505385603975
Ni 6.133787664694381 8.592813188134492 10.346783702169878 -0.42944236216851844 -0.14782506203750026 -0.4698328501704231
Ni 5.883461783274584 6.693571089140113 12.435074396955564 -0.4259330634636794 1.2061867682603744 -0.20453562735566708
Ni 3.4310218385169438 7.912651296692076 9.05755553610493 0.24041871440552143 1.1174891085126495 0.6260520498088896
Ni 1.0085818370421415 8.586670958367533 8.568227643482318 -0.14650222946101865 0.4277469767439665 0.6414622137163728
Ni 7.52350178610323 2.4435360207044834 3.616619701915864 -1.2800733311371955 -1.1573332370927811 -0.4613011585503281
Ni 8.11989844182149 3.6277763926459565 1.5887159003533526 0.2190083670505454 -0.10669898142115171 -1.4501762307362895
Ni 0.32350523814258125 2.801983618894265 4.341763959054635 -0.19778930977076903 0.25549489201235354 -0.8229931526467503
Ni 4.7530883045675685 4.096322304854039 6.6546228869125645 0.7159054204276122 -0.2405166734359664 -0.3614562239365323
Ni 4.470527262415903 0.0932935428333259 6.756538642508985 0.2981800895857058 1.0768132280598421 -0.20998430917506417
Ni 0.5764625801046444 7.221100879982496 6.329976948956119 -0.9922756132270782 0.38289871008102444 -1.8461400015313885
Ni 1.5940794985874487 8.45595691977802 2.3574164175102523 -0.12443265125548893 1.1112148454681636 -0.4293361756079574
Ni 2.849061731859976 3.5643128426778574 3.464929717761288 -0.5953199108323554 0.573562978771238 0.4649091876165606
Ni 0.27984368275701854 5.9942066477946705 0.9470080618264035 -0.2851692791483347 -0.808870082981807 -0.8226072300622415
Ni 6.802681104534255 2.9447604425599434 8.305537869181238 -0.484864804802881 -1.5469700372285875 -0.6155061559722432
Ni 7.365216986830444 3.709241755870907 5.649782729988612 -0.1409645874722411 0.44424960238468 0.631111723719984
Ni 7.077335757692659 5.913701873886658 1.6045730132314244 0.32305268445766944 0.4384579354035674 -1.1930952251837386
Ni 7.219789306107446 2.2980159756240868 12.640865879812388 -0.3545978062538022 1.7622328211937714 -1.2205157832885367
Ni 2.6068362045839755 8.087173749995413 6.9140420393181845 0.41622766325045735 -1.621205755914711 -0.43283904655489325
Ni 5.986106293650875 0.5088407867664916 4.464497717164968 -0.045026187001703105 -1.6566432707867147 -1.2321163436419424
Ni 6.7572286042587475 4.425822913435318 10.776833073858088 -0.21649357104849168 -0.48868957786560996 0.5540305651652652
Ni 4.076962735543439 1.9905719755894271 2.3984178794027553 0.0882770272705383 0.14195883306471035 -0.8569556256351242
Ni 0.3203362170402592 1.4201666500429373 10.099720129853374 2.1406884079017776 -0.0828874808238508 0.2191281804578613
P 7.644314365579687 7.765496402485736 2.423480947782677 0.1547791247578302 1.666057622122079 0.03609160351623462
Ni 0.058072242426783556 6.56816800110098 3.1591685963184175 1.8526582622658803 2.205601306525079 0.4797228555906255
P 5.970819992501521 0.840184064277859 8.378659036358863 -0.2517783623927148 -1.3832756122589984 0.8234909182187753
Ni 2.3586531762558103 1.8259509813991446 12.341229438908572 -0.30432811146497263 -1.081573111342331 -0.15211006256609932
P 2.006920466848856 8.800078806135387 10.405711238546166 0.9782199064649606 1.187497162270671 -1.5097078104430193
P 6.036842035169542 2.7581382584374805 1.2151731952340314 -0.5990852914120586 -0.9467840565531824 -1.159350781743442
P 7.865018997581976 1.013412492934052 5.355242030682439 0.5006578059710797 0.832066318592612 0.0947801184963787
Ni 1.8097225638043328 1.3478268853288995 3.7558737489903864 0.8559050728834227 -1.0979145288148318 -0.391933309479467
