# total energy = -340867.2567319089 ev
CRYSTAL
PRIMVEC
9.25782674958561 0.00000000000000 0.00000000000000
0.00000000000000 9.25782674958561 0.00000000000000
0.00000000000000 0.00000000000000 13.54976524348464
PRIMCOORD
 96 1
Ni 5.378214052238342 1.8121825393621798 1.801346253244847 -1.1201327167830837 0.1367153252775839 0.2599048481545911
Ni 6.540052783680491 2.983529058794504 0.1893660671885585 -0.6234830035301326 -1.1129819646709154 -1.7645694397467482
Ni 1.1855017364108822 2.1913183149821123 12.327725697013957 -0.9385724672766674 0.0006330055983085872 1.463629528027718
Ni 6.150724140896796 -0.04113437546051534 5.864839675976615 0.130167239746421 0.5638223544447064 1.7045915165312193
Ni 1.6665106367084146 4.444988092587237 0.6348684248583193 -0.09545323330400335 -0.22433132192535557 2.9947579702383584
Ni 9.172469508185404 6.867418792561316 11.324487423170346 1.5194918864129765 -1.900161450053166 2.914897192055973
Ni 7.649927334023461 3.52471383244758 8.85562501931513 -3.493035191792403 -0.7869403727882511 -0.16948583484038554
Ni 8.097932082242146 7.013127726521761 2.215101671697557 -2.1993509547399928 0.4281195295920369 -0.2215416749953604
Ni 8.323100942511918 2.4431312004083856 4.186010575100987 -1.5784655367337075 -2.061309197341502 0.3882702588055829
Ni 2.8783601478223546 4.218495363103643 9.255681631644118 0.05067438642641596 0.0361013737082475 -0.2124235147441761
Ni 5.435945859352983 6.557272341286846 1.9617890183507303 0.9831847066694035 0.7004937138582323 1.221590247299638
Ni 1.1186602278528788 3.069256533759478 5.239464226585799 0.35539227713063953 -0.16725386018607327 0.5059517073801674
Ni 9.07868772401746 4.150292954025137 2.6974325896435776 -0.5442634584761724 1.6285120597681373 0.32810310239738333
Ni 5.108635397432179 6.333566217630947 11.369404546608258 0.4809721546166942 -0.5320478902465868 2.1397075320457475
Ni 5.717087539670081 3.8697622902682647 11.536581454833959 -0.5243710904276194 0.13366959647272464 -0.35969836070516115
Ni 6.887971167768902 5.6258238843563975 10.117027047680692 1.292005306688091 -0.9787870918223401 -0.9648576262254415
Ni 0.2807334101609473 4.27244071911022 8.140929132428681 2.0930348105795566 1.5889489527635343 -0.5985096214142467
Ni 3.665081000419387 5.451878579052198 7.266237633464514 0.2872783550715375 -1.8260416881196164 0.8608950698988462
Ni 1.1258350435221935 4.503404978875465 12.07621461673713 -0.2768283633828071 0.7611123559815538 -2.2841299961596015
Ni 1.2674057289611116 9.19510489439376 8.292524192585965 -0.4787093267244465 -1.7833793733643994 -0.3706402044286456
Ni 8.75108101164321 0.12450017884195093 6.423415277029442 -0.8299952949961964 -0.06719758089241976 0.03731390595910993
Ni 4.05540948848345 9.005125033296975 7.930379306253638 -0.43455294392220645 1.6292149993724327 0.017428479889092564
Ni 3.516344757137824 4.032487109648324 5.219884848961239 0.051000402307267004 -1.3289163207818275 0.8521553760330033
Ni 7.946548100532938 4.047021897520355 5.6676905539065165 0.5864442056092803 1.687703225416313 1.7971890255539822
P 5.599096538759866 5.255807068006497 5.654208380926874 0.045098177890219096 0.08364621336674627 -0.29734113862417827
P 1.018768278082677 0.9818943544557341 0.8289911633899668 -0.858948744805753 0.7301315913293231 0.28947947648791433
P 0.5867258746085506 0.3262967299004307 4.566013809079906 -0.1662573006007588 1.3540763649872227 -0.6984152340626487
P 6.275565933542873 8.520079720571285 1.8127824465304012 0.8377140037966928 1.2736982808487871 0.12751566105618684
P 9.205297761557523 5.022917180293875 10.189043681347272 -1.3069866105882717 -1.0186625878610394 -0.21094538753675282
P 2.4141819764110344 7.467242640342702 7.5949552850391715 0.7163152542715212 -0.7451141807810844 -0.677579271153904
P 9.150176661563844 5.726271303726804 4.718556870688207 -1.0823102466186716 0.5693633388675936 0.45485283182182307
P 7.208690057100607 2.2479391828963435 11.678949239149173 -0.32140332177970454 0.5514455780469083 0.5911133289501755
Ni 3.3686176169633004 5.808073460183662 1.7473777526715946 -1.4359258914648625 -0.4664716470076741 -0.6096802933190855
Ni 1.6922011057178965 5.046830146582701 3.885652423964796 -0.024026959042216682 2.4750174366042152 1.5090246683330657
Ni 6.282176021785313 9.425856224145594 13.208649564892424 -2.017652122773183 0.6363606308237493 -0.06453134691416627
Ni 1.2155618996086437 6.392408963945997 9.149790610191701 1.5692422183632266 -0.28679678744942866 0.2845247035858003
Ni 4.787064788046825 7.257265873638535 6.838444572431956 2.481540582434713 0.008661789440056052 -1.304627880548108
Ni 3.056860303848236 2.4416869794478524 0.7387856776646735 -0.7906386475754448 -0.08540124838464001 0.8975741704874349
Ni 3.7050377803274674 1.9383111699153983 3.8690948009653514 0.3315838618571322 1.3951389393554876 1.3676947271016058
Ni 1.5778484306890241 7.516447989094195 4.8835517091677705 -0.5629499791420822 -0.43245492374259714 -0.7007631654695351
Ni 5.851742628586448 3.0288090890378827 5.197364259803593 0.06172807313741627 -0.33528882151254513 -0.015177736181702893
Ni 0.27303460150210584 2.0800022071010273 7.517938499188078 0.48871940266228087 0.21809408276639214 0.045811401907159814
Ni 2.664708023930166 8.247770006897447 0.8518978039197546 -0.8938715248248671 0.04089596688341344 -0.3064274171961626
Ni 1.731574642545762 8.22359782146186 10.515850517497224 0.03808857934160537 0.7315097026237724 0.5565618162275511
Ni 6.878852208498869 4.884383062002745 1.353307251067483 1.0749620337837165 0.5604248987273832 -0.21580014452589283
Ni 9.635083106889482 8.920989904519255 2.558804967303079 0.08392954893511997 0.6230950240630946 -0.5242859869129809
Ni 3.745401904609032 6.290369198388337 4.870612044830994 0.44709684202548805 -0.5408564896771524 -1.1219196334801773
Ni 0.9934666377933387 6.835201555749425 1.950366711805181 1.7306655879104518 -1.7359376349426683 0.0024361202453183853
Ni 8.367788471848412 7.839360983346711 9.586350833080829 0.4614790788890891 0.8624642141581792 -3.557346966496596
Ni 7.748773149379943 1.3976633502091875 1.8590410290528077 0.5223098370232166 -0.5642185614418606 -0.07890047115164475
Ni 3.7396250207669 8.500869730230862 4.82764554547247 1.189808584012667 2.0089152571208175 -0.7058282386972683
Ni 5.8648980002846365 8.058123427560785 9.472031486227968 2.1707757142054613 -0.3948353136176103 -1.0182812932622205
Ni 6.912504408444624 7.243073625353297 0.0523835606473339 1.6653662524820092 -1.3056558075919902 -1.1578878240446704
Ni 2.0435911748075886 0.1194333703054142 12.603354341549021 1.4840186332070313 0.058643777785137706 -1.4276299700046573
Ni 8.069982703525163 4.349039976978491 12.229421464517676 -0.6864601185833016 0.9200942059668219 -0.5785509189041327
Ni 8.310658423467325 0.8294160976341236 13.023248624866664 0.2894473376983983 4.011540053247233 -0.7234158698720444
P 0.28285252668572947 0.6160000483220219 9.89888950676685 -1.2835458630668282 0.6508493113582275 1.384380929508035
P 2.481227157155779 2.82021173850756 10.858659507046417 1.0584280406844353 -0.010583689053117257 -0.6843746968091827
P 2.9948698964653566 6.387307901450782 11.186482852564744 -1.2076726087772813 0.11405747866875195 -0.0880389431178032
P 7.167539017552085 7.411954899468962 11.311466289958874 -2.102913760256165 0.7730402177673912 1.7521396986238278
P 4.27354240048396 0.7751207957794174 13.721169329826921 -0.977015344633898 -1.0669587038632657 -0.721709428703899
P 7.478389063653482 1.9817766661314407 6.600646185018855 -0.3900633461502637 0.8527814396527764 -0.4224088523605048
P 2.688658021525672 3.8401557605773373 2.733950086943722 1.8895222251717652 -3.309230112115868 -2.236687229296606
P 5.1918354857162194 0.7499756127608034 9.617406212645623 -0.29080308039534436 1.2251098304171224 -0.7502641004131401
Ni 4.596807192149938 7.5612836436574105 13.531378328394206 0.12072846293102435 -0.26484136622425997 -0.7559835193954207
Ni 7.067110113835019 5.604799359988637 3.832482873833172 -0.21447448373593386 -0.8649988076545748 1.2162906894635959
Ni 7.249859612302468 0.2996240054812529 10.641403311231564 0.004720545404120902 1.3916736065147064 2.745321882825575
Ni 3.377782865366683 4.032450078341643 12.51895351314587 1.0151319489999613 0.6225082983216892 -0.4747637118131371
Ni 4.1764277987147835 6.7838854225171525 9.250139896599405 -2.6604330553009796 -2.0207194488445968 -0.7160738276846765
Ni 5.40454331128806 2.5284050418665256 8.084589702445221 -0.04310171628548061 -0.9624603296378585 -0.364342801455708
Ni 3.4232202786634534 0.4277069632445261 2.3325510897475725 0.2679639710136417 0.3904667522362695 0.2737420111479995
Ni 7.554090312334756 0.8263536085716601 8.482355928456029 -0.4281696661036819 0.10945828933384374 -0.880801064794154
Ni 6.183746808628984 0.8596345696679435 3.724694923696056 -0.29559844490145865 1.1607263219347301 0.11848748941564756
Ni 4.28468882379474 1.5784039002892292 11.336546668190795 -0.5593465780615399 0.9911641253304543 1.6112206196775412
Ni 1.897289739940258 6.587267699697917 13.1283814303148 -0.30293611621345246 -0.44421334983010596 -1.5383786960151504
Ni 8.420539568214547 7.88907551256506 4.5985328510412415 0.8414485311384605 -1.0440401473938794 0.061093781987527046
Ni 8.78753833307 3.260782451910167 0.5789594838150176 1.2208628822153103 -0.8870948682226657 -0.14976958735838078
Ni 7.540518338436412 5.61943598395404 7.711943663321016 -0.9834207339396096 0.38277735401181173 -0.5603495654047574
Ni -0.22140555372838375 2.8176473205199466 10.442018424020642 1.0237430877077403 -1.4341181488321624 0.5422477135977242
Ni 6.352831754931391 7.9161546555750535 3.918321442718187 -1.9590978193780584 -1.4941935168575042 -0.5910341389728079
Ni 1.5421409932225119 5.542151646912182 6.444309266041154 -0.13179963314352142 -0.7152875843379551 -1.1253050050126425
Ni 0.08259462641981763 8.370760234209508 13.364106064553802 1.416842135360534 -3.7363178580092815 1.3781930555297686
Ni 4.864515765968745 4.5087652605174435 3.177067628463269 0.5100407898478764 -0.9483030643008701 0.26207023123702605
Ni 0.0910433190389359 7.106687322849626 7.262945550300632 -0.41850103266566635 0.9147206003597343 -0.8995158675948379
Ni 0.8650763201846186 2.0369070239517884 2.894893700472457 1.9919238647691435 -0.53254976958367 -0.9728095340826666
Ni 4.115409463132262 8.487186662412478 11.152933414495028 -0.18061125532958572 0.26898752718214963 0.33669495783145237
Ni 1.9461803225849692 0.2947932715248033 6.165780144410353 1.4428825252883537 0.832236011401257 -0.18664486311817532
Ni 2.6657541583438853 1.66489977486782 8.27081736639262 1.3478730643899883 1.9080958744088945 0.41637113080685706
P -0.2528562424919917 5.752156187096358 0.4832826225277049 -0.3797156843673525 -0.5037757827747711 -0.6014617620640351
P 6.86885375569518 3.2582643230559043 2.7812788742291903 -0.41420060551809956 -0.29641322749327015 0.2273387412931117
P 2.858261406121603 7.643715332327834 2.8229307622005635 0.5534451249754404 -0.5755432424260604 2.7476001373367906
P 4.383627217417923 1.6901088368904575 6.182270185275106 -0.805320932177968 -1.2939971403071393 -0.5319627867319483
P 5.027249843175475 5.151313978381264 13.648136186791966 0.219465509192622 0.33277351128985916 -0.4724160375165671
P 2.242939956494498 3.457390916902732 7.152718162835949 -0.6388566577727256 0.6778394667938261 -0.3991437111849771
P 5.197732721305063 4.507608032183683 9.056974417345444 0.43832218115665156 0.6914899676977252 0.619862633168726
P 7.3033050456688615 7.836370705332273 7.481096052171814 -0.9306375287003069 0.3876629642388872 -0.24059792029586305
