# total energy = -340858.32504509523 ev
CRYSTAL
PRIMVEC
9.37727609292874 0.00000000000000 0.00000000000000
0.00000000000000 9.37727609292874 0.00000000000000
0.00000000000000 0.00000000000000 13.72459143159596
PRIMCOORD
 96 1
Ni 8.571693205382694 2.5403510235339537 1.9132222308708726 -1.6524541724060318 0.477206516926675 -1.347846582027427
Ni 8.97879827666489 6.970467021389915 0.4228879649449551 1.0332993639376076 -0.35537325096724603 -2.157895772919
Ni 3.5876708764913987 9.288342165802616 4.004081019000234 -0.38158873302034924 1.4897473081606925 -2.150231828615839
Ni 4.124004191827123 8.107686821792479 5.7789593555712635 0.37659462223986756 -1.4222445373230281 1.3970454123495812
Ni 0.5367787359577798 9.150261772965505 10.030095970209192 -0.6259900862227025 -1.102539172071037 -0.18540404873253877
Ni 6.79779385645256 4.428803179180431 6.3293839039335635 1.7659277535468554 1.5396315945856451 0.5313056127639237
Ni 2.8487883940737326 3.361331559553583 6.211228347680514 -0.376361680293455 -0.8101263239864112 -2.2776333326916647
Ni 8.245982891983427 1.369757496944138 10.964480596604075 0.8394446133345544 0.6447835647801219 -0.001898245463977376
Ni 2.9453930940403144 5.213484278821625 7.508518253735335 -0.3270669478233851 0.7845101660802037 0.9347515508686804
Ni 3.198063802698783 2.6839640093608024 11.625429473804088 1.5288517303613218 -0.8064293347507983 0.6071755246193608
Ni 2.616335093018443 1.5577625085564455 -0.020609377750587562 2.924908039324756 -1.3953788232804356 -0.6423459018729066
Ni 7.322902572112493 5.254594257918256 3.5018294142089212 -1.4521037867763058 -0.21601894540491826 1.5849436882588832
Ni 6.3187181899225 6.731871604388391 9.42690079972867 0.05311230644394724 0.9905560594328101 -1.5660890174462254
Ni 0.7971125547708484 5.452858009752214 4.510148237499214 -0.5952576901358523 1.490373886001098 0.03689764435729775
Ni 1.6800703227346754 7.683440089518349 13.423542825476769 0.04420883330673031 -0.8064285634198497 -3.42654183605586
Ni 3.767667694182967 6.06209027068493 3.8538242329475714 -2.1185224133276996 0.4689900425541536 -0.21554560531292555
Ni 1.8014216547350184 3.5722265025014006 3.62367680412309 0.45229535550729205 0.9939494013850753 -0.2803734004215881
Ni 5.562703423789152 7.757389290055767 3.879928694582882 0.84591813687404 -2.0073908500564914 0.4708525496841891
Ni 1.1063310524225682 3.063490511180591 10.957713954059338 -3.141095134876423 1.4004076439535946 -0.003666135997677557
Ni 1.5723723049598561 8.264174807915788 4.673580096688456 -0.6081368600913655 0.09468344501751434 0.5924330762028636
Ni 5.671742392068264 3.145663582992584 5.05984510922422 -1.6178260408092007 -1.172750600089116 -2.1749666123583573
Ni 5.400026435338341 5.958161917964135 11.964838112354897 1.7854892206185509 -0.006870501867588167 0.228119071102562
Ni 5.041842614272187 8.181945472446271 10.66231943706096 -0.3033804028397227 -1.6397233551029247 0.7039263936888651
Ni 1.6237785333831527 6.801197807732686 10.089469132537712 0.2049089515346858 -0.9979934895474618 0.06125961814142998
P 3.62559258166174 0.170067219866426 8.883378864416787 -0.7835693994334892 -0.6417517199323335 -0.36991643888874354
P 5.296360646352652 6.046486482998617 2.4478629478427876 1.3518130228743428 0.39524463324088704 -1.5068785685243402
P 8.19442662714007 7.0248833554906795 4.62959316923716 -0.17721302828131416 0.7622801510374098 1.0190243420758323
P 1.5108386181824627 1.1736317640960447 11.92586052587838 -0.19085710142731 -1.739347689065482 -1.7637947663642526
P 8.13373689522552 8.747170175919933 1.3716920290352956 0.8921825671582183 0.16529262269464437 1.0383402687956245
P 8.985418633700068 7.065533848050874 8.943548157499253 -0.13156026343920568 1.1560219744805251 1.6393754848452022
P 6.569560329711477 8.949644324791846 12.10208392760542 0.25897179481736043 0.6284218355926467 -0.1310992646423871
P 1.751290735882238 3.397115245738059 1.325296079314401 -0.8371470755496292 0.6017926630408926 0.18291959174778818
Ni 1.6247068837322782 3.5086485695006804 8.332240705331573 -1.9076461884659857 0.30985958280616316 0.905232458363641
Ni 0.6992447356928807 1.7179545188000016 3.217799218302517 1.0321192275865771 -2.283429113437835 0.6137909730533493
Ni 0.49994573256050395 5.497400071957733 7.807577410293695 1.4153681219181689 0.4660774968930489 0.6890710738435875
Ni 3.4555731859042087 0.9442167005469846 6.600773531449855 -0.7530889714564449 -0.7600288931093878 -0.024477930536706233
Ni 0.6162014526445354 2.1721335168762406 13.615769486858534 -3.9655304192863383 1.2567750227308871 0.3653758707059127
Ni 3.7146860833490334 2.6567699082248013 8.148193842025991 1.3825238216946383 -0.4250807427657131 2.058414649402526
Ni 7.348005540643899 6.731093290459326 1.7963429219159637 -3.245009868684218 -0.28656307417206783 0.023655691745727
Ni 7.573285225365037 5.0180993507975815 8.40871426863651 0.039580076285467315 -1.4140272916195582 1.5153788926858676
Ni 3.7676208078016975 4.589904785220605 1.7919787375474483 -0.048422100057129505 0.3401836877110012 2.002684702830073
Ni 7.48452930562288 2.4659517137363554 12.733442809586586 -0.6463786771813835 2.9107751994678 -1.178137575432642
Ni 5.316024794656857 4.7315110339291415 10.026157514182602 0.5140879633340566 -1.1101668638196234 -0.7709607095305432
Ni 4.686856444408576 5.632957977482573 5.906474371253225 -0.1021545565835789 -1.2878177509693047 -0.06622596100776983
Ni 7.315035037335561 8.946727991876916 9.974045176857395 1.0183566265848463 -0.4946743346941352 -0.1129544754125603
Ni 8.60005946605042 9.344943405270515 3.932328914289081 -0.6149777942725989 -0.6173694344332271 -0.448722293444053
Ni 1.1663925068281162 1.4314224655890846 7.583509269664548 -0.28602391383914616 -0.7587466839628545 -2.1678647112062537
Ni 8.188181361155044 6.742252249201341 6.932236803830824 -1.6784639662062317 0.6067476930533228 -1.9477615684296328
Ni 2.7558033227411154 8.768344065701 11.053992324812288 -0.8246890522919346 0.519535359601873 -0.6098918951092592
Ni 5.0491100033688765 2.5911852381057687 2.650369917181587 1.4297120493446667 0.7733214964532359 0.6028288176148908
Ni 1.651750948448219 6.107279364951961 1.5683091311590873 0.4392452071915532 0.7418033712402966 1.4716305439553237
Ni 9.319859191291616 7.199263184706225 2.870580246359923 1.2043142338280097 0.641772802978256 0.25854653435448377
Ni 5.752311949640858 9.374556843679994 8.499900778383651 -1.2152108261358554 -0.5027090320731535 -1.4208209175026238
Ni 6.2937558805349 2.8038712408180615 9.502262218069907 1.2749864035325913 -1.8388144144042524 -0.009232831452177648
Ni 2.500713276809168 4.979765045472074 13.63455873528826 -1.4346688791293098 -1.0602627799003288 -2.6144977262214457
Ni 8.651531335407494 4.34206337383284 13.71864852236653 0.41612121957958015 0.1286369191448236 -0.7948375161481408
P 7.1556963592311 5.8480070538108215 13.303233308868222 0.2970164082949078 0.07323967332144161 -0.045286896862257495
P 2.422206720012408 6.36892412698531 5.694236602345864 0.06000723379156762 1.015520956908264 0.6525341552598182
P 2.9729622862264673 7.879096958553753 1.1650806258802104 1.919718032028855 0.9841347292874986 2.0042741588043804
P 7.705279765913435 0.8117364170886394 7.759390400808325 -0.18048578549531497 -0.15935697393649975 1.3143510213731429
P 1.1756478784906106 5.203600629650126 11.867915522723312 0.11152159962077568 0.2610111938448924 -0.5000080882022228
P 3.781396026618521 3.9126966487241384 4.214685266384183 0.8643305779429565 -0.3293979099494069 -0.10216612654780469
P 5.297260864873016 3.3301802478384803 11.760191248574982 0.8522798174260098 -0.38731766508432647 -0.2531089082786802
P 5.290790544257899 4.060763840771539 7.912117161426236 0.2431047458781168 0.11610047724070972 -0.7735603519369193
Ni 6.786588011329277 9.003844981538771 6.154669305955759 -1.3251972200590274 -2.236120043939226 -0.5454909031253702
Ni 5.928698515974716 1.9523395387635725 7.140149772929936 -0.4419993728979227 0.592543890749115 -0.3949700394232617
Ni 8.375098608721911 7.648725412826806 11.540336318166664 -0.06342757232702624 -0.17635068028101886 0.6096836357531951
Ni 0.028992662721479035 9.206431657725728 12.86716183123806 -0.44761851885691295 1.248320464205631 0.6488394800170503
Ni 4.909660528198712 0.9919189048500326 10.520105540851178 -0.24063674395359844 2.4734881444438823 0.7751336099613101
Ni 2.0957180926840766 1.5242950096066563 9.583813576466273 1.1634457777484222 -0.5722440028494984 1.0734540817796223
Ni 9.262873483497312 8.823323036376992 7.313780357772803 -1.7380037734430778 0.10165756234250234 0.013784198268285936
Ni 4.068265661774574 7.2173050642185235 8.089919696474416 0.41430884896118975 0.9327178082681034 1.6367092508669487
Ni 1.9772268299411409 8.305800537206377 7.278096070716617 2.222559531645972 -0.8366955898345074 0.18449593509597256
Ni 1.1238946908459237 9.036459148349467 1.6661928916066866 -0.15073606503670814 0.5693425129319872 0.43047491719809095
Ni 6.230487397650555 4.312815649197257 1.1236471307528235 0.7172871312664874 0.7586911481345707 0.053251403124972806
Ni 7.901077294092645 1.516502493039754 5.643126695852187 1.7142074423544287 2.0608967923944315 -0.6870980092776167
Ni 5.367215345726317 8.34367535599545 1.4559187243468694 -0.6273789961504292 0.20200154807990373 -0.46965261583881696
Ni 4.118068375958472 9.199483096021668 12.856593640900032 1.2904348768771776 -0.4604254408135941 1.244517802630089
Ni 4.258418069649001 3.3807800305039506 13.683829757908567 1.0955470570239196 -0.9899729332358306 -0.6369154748859547
Ni 7.898817370515481 5.586587346407565 10.753478752706965 0.33733567673924486 -1.6788552881073795 0.46034290840211683
Ni 0.4703097886880147 3.858177164584583 6.274965694377548 0.1530873388777041 -1.182894116281021 -1.5009503759653635
Ni 5.957861845124014 0.44419782523170104 3.311112494304017 0.733074218897415 1.0547559911494868 -0.4217239104783382
Ni 2.9271167826216704 4.29084469093462 10.04911871281764 -0.20514343614299504 1.3055408792806806 -0.08054186340980968
Ni 9.164027614506074 4.830797634904307 2.2190742863474804 0.7189562914387941 -0.5063191180219151 0.11063071237539013
Ni 7.146591023988666 0.9575418101036253 0.37313776350807853 -1.2098621602294324 -1.8904956448286279 1.4160394369535807
Ni 4.177107707252357 6.516794396231381 -0.030558667855862566 -0.029912471288716224 0.5918944300905743 1.6823956971604703
Ni 3.0234870506819074 1.8328917938427498 2.12749018008718 -0.9094830061098788 -0.6221475725481609 1.7806259789889787
Ni 8.605629568145174 2.767318617980774 7.828287124900197 -1.2446247605215983 0.517639685241057 1.4501554048006833
P 4.802346978750298 1.3029162718070972 0.8383228707233951 0.41605668489023184 -0.7753814643060581 -0.032491287759485975
P 8.362945658696995 3.3998534104041673 10.105334546231505 0.27475194046975265 0.6587292283269365 -0.512175319692376
P 5.9114255731152285 6.859074356771101 6.990661923530085 1.4791067977277108 1.58200183202174 0.8143113086020363
P 7.156568445922703 2.2589202086051 3.577053924316854 0.6453042131702822 -0.441602137459504 -0.7987795315150243
P 5.065642141404315 0.9916188320099112 5.206025593289357 0.31668663303032557 -0.8599314204339964 0.561622261469594
P 8.333313465735007 3.7810490673971304 4.728258994524326 0.2947168136274537 0.4644137360373808 0.5798151303285369
P 1.1321748257780233 1.3339456789309 5.340458225663742 0.09686091228480738 -0.8251600783910822 -0.05594386235547139
P 3.954125455213399 6.215296210119409 10.396968775452114 -2.0991411805876106 2.5467008211821303 -0.8530457490577565
