# total energy = -340866.21810018993 ev
CRYSTAL
PRIMVEC
9.22848675756756 0.00000000000000 0.00000000000000

0.00000000000000 9.22848675756756 0.00000000000000

0.00000000000000 0.00000000000000 13.50682319943502

PRIMCOORD
 96 1
Ni 7.265633933084158 4.621524760690307 2.089397740572406 -0.3804443350032609 -1.2978720498815133 -1.6698574554841434
Ni 7.232549807300494 8.751346507188329 9.28581986708688 0.356900743355366 0.44379091758070666 -0.7288501535137383
Ni 1.3710947659498918 2.3354347402566242 7.880650758701558 1.4750346845408662 1.336027220794996 0.010957013232135968
Ni 9.237438601303495 0.749562628532417 1.0594376868243027 2.011565293149155 -2.3398907959699895 2.653883684218236
Ni 9.082584589964622 5.945637299481307 3.1148625983179365 0.27496482781150705 -1.2396802720321294 -0.8779872494944427
Ni 1.1677081416413433 7.11771051545896 0.8289626847158141 1.4660342808144686 0.5309646844847372 0.03302993387177537
Ni 3.936651057264094 2.2243514426114497 9.893248107869717 1.5573292689757245 0.5247716683001479 -0.3862586276921928
Ni 8.488500741338877 5.377919238125833 5.575144001685218 -1.5388101271256143 -0.6160059784267972 -1.7189213028903298
Ni 0.7446549191623327 8.770615587979483 10.500109719552663 0.23373281774491358 -1.2258029998294049 -2.9160971259013455
Ni 9.029068594031719 3.38745456925529 11.583046825594684 0.09516732663246835 -0.6915966684789185 0.10680696775392573
Ni 4.218562877191383 5.3457395040651265 2.614461735157422 0.5723350199014078 -0.42021184470918593 0.015331231040431659
Ni 7.873754310389666 2.856825797028001 4.7635327181684115 2.7208910034767206 -0.18793992778051502 -0.18354488403661295
Ni 2.0283014654432114 2.020355738162951 5.164725500715388 1.3874932498847719 0.5853625425093273 -0.8501848825701939
Ni 6.7512657548961466 1.9153632419172797 7.0450915515003425 -0.5371728701779781 -0.772353990333644 0.12552434165777093
Ni 1.7355092593795374 2.467983498591561 0.8449464241460245 -0.08714291366609508 -0.15526763435847454 -0.4028116469548676
Ni 0.7034331135694555 2.9849541101048143 3.1406340710274083 -0.6621140856387694 -0.350178594140184 0.32379701882286166
Ni 8.432603795767985 7.579134863906141 4.449310119665456 -1.4415802615371625 2.03130210945645 0.7381503478687416
Ni 1.1711872812286348 6.551552068401238 5.262690504134209 1.3974645021648706 0.5111291378160487 -0.9639731667379593
Ni 6.681562992819715 9.15877497838022 11.944624482130077 -0.2403888896088505 1.5749865770461713 0.0982379951379921
Ni 1.7071132049760978 7.009091223834494 11.972529581026768 0.8690611506494066 -0.17186667636773625 -0.7404175466363636
Ni 1.980931641831624 8.045976334204093 7.077643193585897 -0.09664751072242064 0.4326264163234549 -0.300277852654999
Ni 7.359810642602227 6.795184124381349 12.327083436130096 0.8253649953130366 -0.68815241868406 0.40415067748126526
Ni 4.703335297669993 3.403189139537339 7.85023366565192 0.3185460548365675 -0.2035439528663591 -0.9825445019822435
Ni 0.30510116198285125 4.20976812910998 9.314048885876183 -0.5948920792663174 0.7677344892837616 -0.31390187119633683
P 5.785172368065315 2.0047042242636226 13.092352949483658 0.05842137736168648 -1.555405055369818 -0.6630864768543677
P 3.315260115697244 2.854527903772734 2.562919712587175 -0.38347849384389443 0.654153436030796 -0.6364609038470393
P 1.0000911328244202 0.3394043708951116 8.456068146735221 0.443571602481049 -0.5917604756158712 -0.41449756793322806
P 3.8970977621152016 8.09718520839476 5.52615457861058 -0.05409318229997781 -0.28092567338063235 1.252128010877179
P 2.619210714551641 8.71734876119474 13.538834531830723 -0.2813038826556575 -0.515588459138983 -0.05804625341045487
P 0.6618384771030328 3.7805881141322883 5.3350464562142115 -2.1871317869659817 -1.0869557158104828 -1.6972222206503416
P 7.955869387439326 7.693180505868346 1.2899911310720276 0.9087839231603252 0.44828572012726664 -0.2953721878232655
P 7.66265267097508 0.34595751949175846 5.646270719300957 -1.2653316540516466 -0.5360274437196253 -0.17609331285457414
Ni 4.206353588931472 0.7766020953514218 12.036497761300698 -0.21235512340008592 0.24372720995346414 -1.1662922460582816
Ni 6.041142911122903 7.340384677532601 10.731346994684786 -2.591639847786666 -0.20488709715781486 -2.282433839404102
Ni 4.757783370786759 5.286492617724509 9.398466470424593 0.21370803788355455 0.41817270279197016 0.5998859329364831
Ni 6.141068968022625 8.493262640614851 4.179807846165305 -0.7046069646956575 0.6086086575214614 0.6865493358629983
Ni 6.333039953950591 3.9980297240945375 5.919122010722138 -2.2259191921468244 -0.25890597457643155 -0.8160897406586977
Ni 1.6107032016115437 4.753381382502574 12.760503940870018 0.6131420266154408 -0.7037903823316332 1.5802905057575882
Ni 3.5355810135938044 0.6279957696905227 7.421419098758197 -0.18131908002988772 0.7530632604248321 0.3039445028733088
Ni 7.417525600106001 5.3051064759408675 7.590348398422105 0.8167453719648256 -1.0241454653524815 2.625997242220613
Ni 3.959510019486167 3.912177109822456 0.7224963991012023 -1.5390716083171172 1.4886021388126558 -1.4077458294862206
Ni 1.345984052907396 0.9543916653542113 12.197485947927827 1.573558329240077 1.039420903454313 1.5284179852580129
Ni 5.008752073907181 3.5847503921643358 11.640504308312025 -1.419161784632646 -1.2144096703907987 0.5169686273159613
Ni 6.431784764518288 0.049574509148468233 1.7191886801749605 0.1953896991903409 0.2031392612287727 -0.18170577394534512
Ni 4.120722458346643 0.9504418729315035 0.8273006342127074 -0.5683922332035759 -0.7071950371378078 0.7618003831875138
Ni 3.927994736487225 5.953324629126437 7.277544218366275 -0.75690603120969 -0.8384172005113044 4.233065273182361
Ni 1.5102142070067166 4.699274763403658 1.662297826557514 0.6671683602332252 1.2998919085250193 0.3583210207416603
Ni 8.69122291458566 5.798673644500879 0.33482704135851554 -0.16916933204123122 -1.7744974974937373 0.6751791463528436
Ni 8.112199956693232 1.6613860520449821 13.124863986226547 -1.653978322360042 0.6362750130884783 -1.0883747076451966
Ni 6.747555903134631 5.091725400244953 10.809848196237407 1.088343340186629 -1.4985980736831028 -0.712739878215437
Ni 8.729281194845585 6.626127471597271 9.441364169251031 -0.48506766484230646 0.03642070472087921 0.5486387047257325
Ni 0.6650241508047121 8.20980043487678 2.7034852575520336 -0.2838446467996402 0.036580113116878935 0.6727409692249963
Ni 2.406650974195962 4.535561404574597 10.567198051270793 0.9831733938154938 1.6741694525959359 1.288916383350122
Ni 1.8393851087019666 9.013601649871768 4.681816311755809 0.31871163388015433 -1.488850764488352 0.5594422230991397
Ni 8.539995698625582 1.8191008943442284 9.111054472263813 -0.00541731436082938 -0.3240397309612871 0.41887898483037533
Ni 2.418924861864657 4.026591891263418 6.24011185871942 1.0396777566601256 1.7585556294525002 5.511729382676856
P 6.895193237663792 3.4687667679386522 8.927659519276087 -0.385379310411033 -0.04541056692431534 -0.306018354683202
P 6.708011836472708 5.231343179598101 3.937725253147279 -0.3179603575364266 0.7269043426412772 2.2476131321804904
P 0.06941114188821255 5.456758202301518 11.504949831771302 -1.3168766160084742 1.7086389471277155 -1.5085667548600408
P 6.297150368128369 6.857965521231073 8.007547068768018 -1.5054984003473622 3.3462316290408824 2.70616603856172
P 5.701110080265208 5.644770167319806 0.07287828444244467 -0.007862176356896138 -0.022318460991542208 0.9223644900582373
P 2.3034488044222656 6.272574907330072 3.2967459251401494 -0.9301065958975014 1.0193328744551864 -1.1182851220513839
P 5.2972899474781725 0.27911097413221536 10.013864432553811 -0.73945878226752 0.45012611577011513 0.23690813014910167
P 0.48605702586468535 6.061307155150046 7.2357133326334475 -2.560517158239932 0.219219454620087 -0.4121810039849095
Ni 5.925666853680512 2.0128529782571998 4.073306492300211 -1.3284362958216154 0.11330131722901779 0.12407115415101214
Ni 4.4327745167145025 5.726026995081356 11.796859794480746 -0.36170690649475773 1.3932494356422584 0.003537837949929391
Ni 8.147452776914596 7.632530889508448 6.818109531709599 0.03553264568897106 0.521678888307437 0.714201293252312
Ni 6.091751933660591 6.759848247777264 2.3702445931034797 0.946739319358176 0.2408673719071658 -0.41520256442005266
Ni 2.1736224497431667 0.9489837719904105 2.6650716805438055 1.0933467069384912 -0.0907771679845727 -0.20335600522526912
Ni 3.5088184013838677 6.064841665659151 5.336222165454054 -0.008377682540733958 0.46398281914754924 -4.561321099107525
Ni 1.7927812495088014 6.312331229192281 8.627105232822833 2.9991771823519766 -0.37724279734682775 3.2100122695631104
Ni 8.476134568800493 3.4353781020850143 7.14180055784269 1.8382803962776533 -1.1381178405065948 -0.32092303970917635
Ni 7.619730978082524 1.9188792954524472 2.501139606573582 0.8300973677916994 1.1977594634286275 -0.7950905126992114
Ni 5.6146852998010495 7.909468554959478 13.522221409589232 -1.534108607884887 -1.1611875778418648 0.6438515398841557
Ni 4.301056322206771 0.8611581072043678 5.2465904857681895 -0.12348442840960669 0.9658572711345494 -1.0266306936681804
Ni 2.6505321993242354 4.296626648461678 4.0863546500256005 -0.19425327159305256 -1.3171332121039705 -1.8695401256228832
Ni 3.851988917811005 7.717128429552755 2.4563777533794178 -0.961575355929744 0.9899333382471468 -0.15817503781325665
Ni 2.921212950610321 0.16617736484976778 9.778845323461816 -0.12976486210167973 -0.7198134972327668 0.3339503052067797
Ni 6.8908373918144505 2.3505786873726606 10.93428696022404 -0.10406617178399497 -0.401738982715979 -0.9279550967721373
Ni 4.376351547386381 7.876402886149753 8.575076868989324 0.12261128177603399 -0.4444169812004798 0.9855400942754576
Ni 0.41977987815112605 0.9901059099240231 6.240773541235093 -1.5991765440288137 -1.2240824175938727 0.8199569369235878
Ni 1.6731800583912921 2.435646880252383 10.308164573388211 -0.6191195843551144 -1.7005026911738261 0.109216862746999
Ni 3.370289583493055 6.3194648496192745 0.3383310978606235 0.2797987588650407 0.55140495461696 0.40206191327303664
Ni 9.146971743546942 8.330287560743306 12.536547019107694 -1.8501100419227299 -0.06639462537515017 2.272772662165254
Ni 5.818191894440195 6.251423215197254 6.094333141465804 0.7527660408993874 1.1169147240664183 -2.8209873919796897
Ni 5.901100621369185 8.884227491054148 6.90252711625801 -0.2334026880990045 -0.8023960452216891 -0.4624141891088488
Ni 5.561280045711773 2.7330994722353736 1.5593226775632532 1.6073750206792057 -1.035319736801746 1.9943023923036494
Ni 7.096420396021607 3.6912932742207896 13.042661238550682 -0.6091920408287573 3.1018439026852835 1.1191374427493501
P 2.883016243045863 2.9228371643168543 12.616737033775633 0.010626369365594603 -0.4726155551218828 -2.709115608108347
P -0.05234859233133268 0.9121510347999626 3.5168933274816934 1.2389027704361566 -0.7318017799428946 0.24575555323740256
P 8.502057388696254 0.7840891668293257 11.224453661745047 -0.07825306737563298 1.1424781743578196 -1.1697010146295146
P 8.861737668310832 3.5307452864220776 1.0161773084599859 0.4968839407509442 -0.4909385218007867 0.07072282043685885
P 3.374202461967887 7.260115297876729 10.596440357929284 0.475846917574987 -0.2757826957271121 -0.9097336886681041
P 4.614344997828469 0.5096376557677301 2.9402060996411037 0.3167025738699255 0.1321439038568176 0.7718243430824192
P 4.160275753495536 3.1388022163640734 5.5931616996433835 2.46435790000784 -1.3433049854033319 -0.6124470574309452
P 2.7665988799326393 4.170251747908964 8.596796113070733 0.05474315717915088 -0.6135708866227433 -1.6272969564141138
