# total energy = -381171.6590238765 ev
CRYSTAL
PRIMVEC
9.27414093255074 0.00000000000000 0.00000000000000
0.00000000000000 9.27414093255074 0.00000000000000
0.00000000000000 0.00000000000000 13.57364269931737
PRIMCOORD
 96 1
Ni 4.83923732967771 6.680358284609165 5.864790353716507 0.433696252348866 1.1930674572695967 1.1648819959743164
Ni 2.2981135107953006 0.432781484219675 9.180017420537046 0.5790936787814801 1.062736438251802 0.9470221407059174
Ni 1.7261865295555996 6.2763674426986 2.4833524143803665 1.6883030637838405 1.7766392264270887 -1.0709061185467879
Ni 7.213806856191444 1.3737320873717864 7.779054601317558 0.05220033615263913 -0.10278447685809394 -0.39360504075493497
Ni 2.9924406006536195 3.6654557152425356 12.70788847663503 -0.03155643465004243 1.030068772815452 -0.5969049959312881
Ni 4.545098684053516 7.908792410037633 0.48954015256009065 -1.1475774432575978 1.1091481927471218 -0.9589150354887616
Ni 8.551805679545383 6.93712214331617 8.24828160355886 0.3298601942978061 -0.42367743466028324 1.1261971778096087
Ni 0.48913765485482863 2.614064935285306 8.76784029465333 0.4163094243309862 -0.30749468211841235 0.37345350550772455
Ni 1.6354761596208593 4.333555535274105 0.9787575650247177 -2.2874444052448153 2.0667766482139758 -0.4025794763394035
Ni 3.6393211868225275 4.611130565654105 6.731508880083868 0.9244956774686272 -0.15393657425187682 -0.0026137834737632406
Ni 6.274707371517911 5.911624764121418 7.810626558414872 -0.6843602986314794 -1.8092418429534585 0.034661041717295143
Ni 2.3413124580559104 1.2572396063626587 3.3662635903649494 0.5957572554800901 0.09611169282360868 1.3014057740663845
Ni 0.49084316932482136 6.524803123080138 6.236505331252582 -1.8424473831711494 -0.2917554170062846 -1.4124918288116384
Ni 7.487598037176355 9.127943120651189 9.544306593635259 0.5875662350288655 -0.5684369703985822 0.09977988570381525
Ni 4.887388668058363 2.4384683557592473 12.3373281296129 0.610079328529717 -0.866522700498269 -1.8524458891447582
Ni 3.565508301196252 8.48261131597488 6.912730225928852 -0.045264014044122045 -0.6252786619779748 0.3639242258610506
Ni 9.051839522278376 3.231843268018449 11.330855722597283 -2.684529691238867 1.2468287101514528 -0.20161202595096891
Ni 6.5408381123059 0.2858865152522542 5.439759268858294 1.5194281230545768 0.2605432530695384 0.7875291554121856
Ni 8.665274790694708 8.647663197554328 6.106265791522029 0.14806031797675792 -0.26990463967978034 1.0091780454093715
Ni 4.123384959314479 7.371615633904311 11.315517221336158 0.5930791944272946 0.26320203084862415 1.5928043219538828
Ni 0.5059136479204612 1.4852629031201954 2.0524433791628205 -0.5479745887791724 0.46636160379237107 -1.0508232317539838
Ni 0.7503503188432676 2.3896863758127456 13.128427167750642 0.9148185593901793 -0.9410466398487728 1.1876002635074385
Ni 6.235078968416884 7.449175272362979 2.055728279789636 0.9950804296657251 0.1268767419206073 0.32935445830598115
Ni 8.472057343887595 6.006434304234173 1.1824232587154306 0.3319546149329896 -0.04260935003009436 0.5106941071611591
P 7.567374195256167 2.3322608967578518 5.060837356604267 0.3051562637932228 0.522872394394906 -0.1622705480388689
Ni 3.041111290912031 2.6225136774395383 8.22412061227433 0.249593438926254 -0.10786574803574325 -0.06033376389305093
P 2.344493488307174 6.346303737523043 7.095771158174123 2.033813048803762 -1.038483222131392 0.8728118759410904
Ni 8.454937280202948 4.354125579289568 5.5868165352875145 -0.13327467502715112 -0.4622192994892233 -0.2378848922400742
P 5.7264572714195445 8.022289343608982 4.2655853582726 -0.07854874423918086 -1.4100281977624942 -0.9294725618579283
P 3.7912130627852285 1.1037247557819656 13.587487856984842 -0.005154547617745962 -0.4087640078835605 0.34847575251646434
P 1.0908707968074691 8.151505945623168 3.6577025336388713 -0.17833248659773804 0.43580944203712685 -0.5432244756886966
Ni 7.321321969027907 6.5833600472972895 5.339246132230882 -0.32409141013482895 0.44273805083616 1.7592107465379963
Ni 8.534527955469274 3.1658484829805578 3.0389624725178095 -0.17949128279252957 0.43270252097702894 1.5235254330524022
Ni 1.2191970813169266 4.35867918236062 7.123556483634145 -0.781859358720918 -0.6077151991729146 0.3069413807181036
Ni -0.1422931403648629 1.8095425059356682 6.672178492534485 -0.3134336733106666 0.5159252736531114 -1.0956840968224162
Ni 7.886664310388897 4.265705922101366 8.030492321035346 0.7563668708767685 -0.681188328661401 -0.5737280435941925
Ni 9.052321777593438 8.48066374643329 1.4003655645600683 -0.7374767188404847 0.18360273385774187 0.7219891647278469
Ni 2.2383324000091505 0.1920609614650365 1.3612602229930684 0.7129679350658431 -1.4102565117232164 -1.4483669454416928
Ni 0.4253937037585755 4.667517340953483 9.695095774271792 -1.6689508845094743 2.480532452885173 -0.6796148135266941
Ni 4.639694918930764 0.7901159792262734 2.0457650704633004 -0.30381929014935416 -0.7872861861634441 -0.2641764789467515
Ni 3.972216466324369 7.7834153022625845 2.912795207957315 -0.21643006480040788 1.050060128335714 -0.4182138404425507
Ni 6.7844141429741365 6.9609937814116645 10.424584841082424 0.6050669629167902 -0.8729795118672061 0.2557738567053531
Ni 1.0811051266774945 7.19616744062904 -0.025042962062650023 0.19163074636854094 -0.9904760981244942 1.3432088261450994
Ni 7.505432209692917 1.3669712388202655 12.32144709112233 0.9246890244263558 0.1331368638977062 1.1382152853164074
Ni 4.973461967655983 5.295923838899306 12.186768947665085 -0.2543949740799554 -0.8627609194629915 0.20704322426886923
Ni 2.712713969637196 7.660097053717217 5.009692325613969 -0.02089766938461562 -1.478521357537886 -1.299333464918388
Ni 2.004874456816509 5.343973161732543 4.872964597067718 -0.5211109316191089 -1.1560610552485768 0.83860411971113
Ni 6.936417308624929 2.084706259740366 10.143515314496371 -0.6962609067238074 -1.8186399963389066 0.06582049803923504
Ni 4.414055076326507 0.5671424520658606 4.527162495989536 -3.0232925873429415 -2.137145684855842 0.9987619922823703
Ni 3.9243804487266396 5.706796093190156 1.3079450430849981 -0.4560211410983114 -0.41647757447773437 0.1348669592149355
Ni 6.661197909976185 7.9810565141713115 7.4853481306487835 0.003189710581891281 2.2039696844589267 -1.1573154964809682
Ni 0.0036317534880323478 5.611791796123242 3.5956854275361616 -0.3259755145314192 -0.3128832001238353 1.1586961788785786
Ni 4.914775205469393 5.667510833294076 9.752038070597557 -0.1880312019427407 0.24310140344400716 -0.4119748015113744
Ni 2.619926192191426 4.895995070604058 9.03078815036192 1.0223639479720263 0.5978352210550414 -0.2753679767871967
Ni 8.20007462033416 7.907456933780544 3.6969989225037607 -0.20657914014825715 -0.6092861432044604 -0.568592265029524
Ni 1.2906357869305969 2.6769528831973264 5.186203335410508 1.0726786370661785 1.0359159756248484 -1.1071514740320674
P 5.161430250841478 4.16962582471624 2.6891557974964915 0.2255420544040051 0.0583954092197575 0.2458231732505444
Ni 7.272206120017133 0.6457760360146058 2.3807757814529356 -0.8325681979296952 -1.1850502433920753 0.6020024650588536
P 8.659330066522521 4.03101451819905 0.2320631124352355 0.1964821609235713 0.6916766297872345 -0.20315623050963724
Ni 5.064738060171853 0.5027632223334219 7.713154412514543 0.22716159228529909 1.746438277363676 0.4608856682794643
P 4.857368274695849 0.6733220886452332 9.836479121436513 -0.3323040278526083 0.9697396369080912 0.9286212696012266
P 6.77972142779297 8.990101567809962 0.29483049651849125 -0.0692979150648742 0.12083850614632738 0.48527669552931907
P 0.05663717709758311 0.5471585337410083 8.458415082955788 0.011693377177528249 -1.0497148291811536 0.376669441341861
Ni 5.69479535515769 3.063369228530207 8.16156004152811 -0.5487189231443647 1.7369033412900476 1.5426600969993238
Ni 5.7245467984406515 2.029348914055828 3.7734317528705086 2.1319551417938376 3.0796534826311737 -2.072603025087766
Ni 1.3262670354010264 5.53146846374365 11.698593021198176 1.304491869190876 -1.0492944538142834 -0.10415487484305933
Ni 6.88545590561998 3.722324745856975 12.446500531387848 -0.23652992087407654 -0.3051313240925584 1.0638947202259614
Ni 9.053434674474346 0.7723782577727222 4.16797688250436 -0.13662739354946793 1.0046469903082376 0.2417379474375772
Ni 1.6207673725115148 0.2420550715976616 5.6118863923581195 0.10422223774588503 1.1927432411609586 0.24925019665422235
Ni 5.518076604610048 2.7752495002035955 0.8907719376200688 -0.08267665036462535 0.5395411132998384 1.47046789110579
Ni 7.79353338973818 2.2361066062473327 1.020757365896148 0.14186164536521373 1.2270170747421643 -1.776216279957057
Ni 5.337805858184173 2.3020457464411783 6.0981898698229005 -0.19581238855005634 0.37431893883181344 -0.3751866861487474
Ni 2.5656631951064477 1.102231619133413 11.669572380200343 0.6278705910748671 -0.08490168304040216 0.672090737235507
Ni 8.372276864373447 5.576911753047426 12.164712258899542 -0.7852982091991378 0.6014620191743513 -0.15312436276322663
Ni 5.869418149912953 4.662602046396136 5.300249298109771 -0.037084306446807096 -1.442626957634122 0.3800643259560229
Ni 8.341848408821267 8.334948448159633 11.728591156623073 1.0385382437390438 -0.8585386538515278 0.7001934090089941
Ni 6.008836306668801 9.141409172910185 11.570023754203055 -1.4237717726008319 -0.6394752651933309 -0.38767607686500977
Ni 3.585392058801822 3.3572389240748466 4.490418350638198 0.3837582298678423 -0.3936266380214898 -0.5181598194105851
Ni 6.241116433995813 5.185570839016524 0.939466740644233 0.10038075251260777 -0.6092221227357443 0.07018391721425334
Ni 1.7628286593595217 7.901771885547234 11.566494016262437 -0.03411622495741866 2.0168946757818684 -0.5839705472578073
Ni 1.9066705812169826 3.2621326114605163 10.685292991818185 1.418143627780777 -0.9187556896610564 -0.49425575909947783
Ni 1.4686065464692606 8.17531266473394 7.676845224360827 -2.1922562526767404 0.7633646423508402 0.2817918780356695
Ni 6.429724632887831 7.001150810531123 12.93865413678994 1.1558031736014998 0.4491187575515233 -0.09079053772101138
Ni 0.22866692212032885 1.0492206310394576 10.89495163521259 0.519555414206531 -0.9377031772978367 -0.772376101820831
Ni 4.03558666955145 5.753324456952817 3.9851130863459674 0.9768376814054531 -1.3510062107023313 -1.6892518008503552
Ni 3.065094218695615 2.7738491049617853 1.3528077711825661 1.1325719709877011 -1.8398078886657736 1.3205802901123063
Ni 2.7031152340393576 7.3681656535734925 9.532103679336094 -0.6632281446385545 -1.0631311025870593 -1.265930206867594
Ni 7.135301255384003 5.345178800020194 3.448139413893409 -1.8712555656520933 -0.4937109423396013 -1.612733456777642
P 1.8274879681403222 4.094922621585237 3.1312902525861377 -0.4519657400820152 -0.9109706463989989 0.24739386017177395
Ni 4.991917507597721 7.881415146767278 9.204503934159241 0.2875822594652015 0.7325430289842931 -1.2379882290416873
P 3.2368605781232125 1.6385273519026842 6.246373016929972 -0.40374161496830463 0.5076386081642871 -0.2891570601514891
Ni 4.368723076710822 3.672429869029564 10.319199070944766 -0.42302540289858115 -1.9787189360430957 0.18074109603923064
P 0.35524781335489447 6.955855907478135 10.245819287687977 -0.8478161252277011 -0.5213891249811602 -0.3946576503891655
P 3.0085405088641 6.184701836274413 12.897634612587778 0.6006742331657332 -0.026730731126624933 0.5970044976236298
P 0.605472475472494 0.17152615918413452 13.19782927207225 0.44577169545616135 -0.3144176344904907 -0.9988326976193056
Ni 6.882256327087367 4.184677755030531 10.187004542360084 -0.1755199568496074 3.1561543432023904 -0.4239396871827344
