# total energy = -340885.38050827547 ev
CRYSTAL
PRIMVEC
9.11438922653209 0.00000000000000 0.00000000000000
0.00000000000000 9.11438922653209 0.00000000000000
0.00000000000000 0.00000000000000 13.33982992961552
PRIMCOORD
 96 1
Ni 6.686188135459696 2.39046724861101 11.512473097801834 0.7396130484571971 0.38815558760458957 -1.0336060965447489
Ni 4.618014794663163 0.327058910359806 5.690464839609149 -0.11262614553886409 0.828433092715399 -0.4345778836228709
Ni 2.647410987622856 1.7574455925651173 4.466468026641532 0.44169701116615545 -0.8047082382946334 0.8688791165455875
Ni 3.5142258347365676 4.171355049566694 5.396454703597786 1.4415653491388272 0.9578575407585246 -1.667769462606863
Ni 3.936322301601085 3.1322782512159253 2.8201204553575727 -0.8057814167541542 0.8483149192409907 -0.5693327427399743
Ni 5.537930071824869 4.93953397941652 2.0249857201752812 0.6326605562643427 -1.283923558121221 1.6714849637852374
Ni 5.6503013732429475 3.215684024537106 0.3711023721038713 0.18807028271079224 -0.13231745332020436 -0.37307426779143493
Ni 5.9429826313447665 8.082722154210792 12.589584241259072 -0.33013401678448306 0.3460632864202298 -0.34154534394521824
Ni 2.41698100607919 6.584389525228654 0.2895933031240891 -1.4149364336973889 1.2748367653286046 -0.9411913929567532
Ni 0.2200878843971749 0.1951363331957691 0.45317288744324097 1.3423441641519591 0.3244122838093574 -0.28515719496347663
Ni 8.19358046706245 0.2584120670723908 7.15856595186863 -0.6176499417881234 -0.3513574449396336 -0.6582394331747116
Ni 9.09849346000531 2.5790439560763394 1.2310559072127543 -0.5294312785593464 0.23933833685714906 -0.18973301512519583
Ni 7.156062229222874 1.1142887360019966 4.480794934638862 -0.6967566154133032 0.27876851782831347 2.517951259853264
Ni 0.7222515239088978 7.328515582627972 2.177100314628767 0.8361001223423536 2.276573781078899 -1.8756105001866794
Ni 8.113838678100914 4.098339679653463 3.687729165749207 -0.7549877311410546 0.16591688654220457 -0.2380594701447255
Ni 8.197909801815761 4.137194319765822 12.461628246167963 0.3520719545081549 -0.3028389285139559 -0.02603370505960033
Ni 8.094005767736267 7.430487366249147 8.902922370456418 0.7167081188345656 0.8002723140104668 -0.23893313099893043
Ni 7.148187397166322 1.1387790991223126 0.28415201291834713 -0.5254769218972886 -0.2730647825753168 0.9082221371195843
Ni 2.102242926707863 7.239869035658045 8.870039477986944 -1.3880082418479773 -0.9631740678754316 -0.20000997157117167
Ni 0.5496040340190714 5.046017385570094 1.0382045513278386 -1.1651535044681482 0.16086878259533585 -0.05020413165821676
Ni 6.653503936669427 2.12921240362376 7.149081518722744 -0.014414889873749368 0.667723718516063 -0.8756943396952079
Ni 3.816522773185218 4.778336896370033 0.3837376495112752 -0.11720785137227556 -1.6167194380085834 -0.26918293102240737
Ni 6.370812048861566 5.843553762241854 4.189920148427793 -0.3279688908123642 -1.3112950081556385 1.3284905460983183
Ni 5.465534480360533 3.059654800027731 9.246729881958723 0.2890732421884312 0.966386147054826 0.9725310836102993
P 0.4814885596076943 6.067366697404668 12.1450609089335 1.6329852650481425 -0.8821503797331969 0.2523614885896944
P 4.411537427291506 6.447035683686725 12.361792875317686 -1.7569219505038194 0.49897553317265037 -0.6869979933646426
P 2.6456336817767596 8.622877301200898 1.1822547344345224 -1.066619575356292 -0.8690755488271096 -0.042551757319281555
P 6.645674676557648 8.480373829899765 5.71933193230534 0.6114242725933856 -0.8642462457592663 0.08055317626371933
P 5.2459232785056695 1.3203741846486163 12.629270113644067 -0.8618052404179417 -1.4599536218380276 1.1836047691948004
P 4.132163177063025 6.543903409493469 7.592857471154058 0.41609782254081246 -0.3710443818455996 1.2082822173368224
P 5.078491953414413 1.4132406937044037 3.398748349562849 -0.9254287308058579 -2.775611277837736 -0.5637290233999517
P 0.5959014841515454 6.047788989930742 3.6855945758560997 -0.9334163769970247 -2.1819487001031455 1.4464697284189798
Ni 0.46643523481070354 0.4384996326656463 5.0746183381088175 -0.23372870397985554 -0.8740958848598366 -0.5010905226331241
Ni 2.415376873623226 6.551477466714526 4.721045670280832 0.2996348197543614 -0.491062963193793 0.03914041764488743
Ni 6.229083300621553 5.822134948199151 8.829619897291126 -0.4255206585166091 -0.13433654063276218 1.3235213750185013
Ni 9.100088478072319 2.863713666287293 10.31749103063147 -0.14120678539003423 0.29623427871324465 0.6669439029272449
Ni 2.2385121559642256 5.531103394498067 6.939112428942678 -0.3414335009577023 -0.14945205611796197 0.38021344993937745
Ni 0.4467199000635671 0.21380989328542432 9.142145003024337 1.0376080186152903 -0.5262883620549903 1.7111925667875045
Ni 1.7201130554081339 1.4471188774476917 11.22858813647985 -0.3431797942248477 0.5373834435268873 0.7621299986127907
Ni 4.5435775800730545 6.874263551532537 1.439087277901126 -0.5575558047097042 0.7707331669007694 1.0502930702821267
Ni 5.891458990585874 8.06766518365822 7.725081734592483 -0.3708512919981871 0.6028460440060713 0.5094026420432453
Ni 5.488931116806327 2.8019454523437197 4.823562494361476 -0.31020102530598187 1.7604986121114843 1.7894554043551507
Ni 0.5532297379451085 7.630885436188257 6.538624355411114 0.4650521409523281 -0.8589592863287142 0.3986724279755134
Ni 5.180791855037944 4.332069069998601 7.213112835443679 1.1378928689799823 1.0351994091737977 -1.4670902328828088
Ni 0.7939553332515993 8.217605996346094 11.557815359971894 1.946084694947842 -1.152192573432106 -0.42039130770984373
Ni 5.1488914936977475 0.38054032186609216 10.694221537914647 0.37705510681605386 1.3021357102538735 -0.9553489154040579
Ni 8.009606526019063 7.464985328441331 4.255672261783309 1.1351723847250255 1.159160777219823 0.9991278602622212
Ni 7.417189472764762 6.268849379629345 6.776646622953747 -0.5642972371985959 -0.03745917328772259 -0.7119263811752061
Ni 2.4304885305095243 5.3077188356161065 2.4657338725959637 1.0047405784633083 0.7844644004439328 0.2930103724593083
Ni 2.653116595108274 6.310812026375134 11.09386926478462 -0.701748926421572 -0.311228952349864 0.786024288731885
Ni 1.2660979984255116 3.7580995399878883 3.9235904116707654 1.0275588619094047 -0.6528887103857594 0.1787001543498019
Ni 1.5458732817679839 0.9537752321270853 2.3309885691727668 -0.060897863926637055 0.2712112743063458 1.288750547196219
Ni 1.710251286559536 3.424467332314211 8.475194122657014 -0.7188711879241555 -0.5615708394063683 -0.782930994518542
Ni 3.7923969856230757 2.451633912883597 7.149027743827912 -0.04292096773324221 -0.5975079196226097 -0.565699002642129
Ni 4.745734727080352 6.960148438649298 5.571353447559336 -0.22689214067399632 -0.34192843831624986 0.2768615306135877
Ni 8.248321487122226 7.387649738163741 13.185981548169732 -0.5130836904392583 -0.9997420968074525 0.9339871618988302
P 0.32716737158836273 5.953172518195721 7.990771641244916 -0.42982854186334357 0.10986555207459145 -1.5809903600380901
P 8.891387199795803 2.072730535273705 8.366754768633836 -0.13060921237984605 -1.4122861405587357 -1.6078499034330955
P 2.685855480232269 3.392658114863558 10.44844839400524 -0.8205094669929482 1.3457431625311789 -0.09843622719172725
P 4.2951193371777 5.50835387966803 3.694172127301031 -0.7362161069605063 0.4552647225482611 0.5353782401714005
P 7.302494002163326 4.114216945211926 10.227274074444708 -1.1329627786682166 0.6463149138229837 -0.5163572189842075
P 6.535436142154885 7.775913593229742 10.350213509855346 -0.5127741296186394 0.44174766189843273 -0.7470219393267586
P 2.3224556782337125 8.576184286587804 5.576622475813839 1.5655331449427554 0.4734413934572878 -0.5321036831851867
P 7.482676357401707 4.1814629069170595 1.2323537961998523 0.36815934698832076 0.8906699871684338 -0.01556468720747642
Ni 2.5645976495837077 1.642039199625243 0.29991443717598565 0.06619227955635697 0.8558405381940745 0.1439774061566359
Ni 1.6664657620228787 0.8499331758924795 7.2242114268733815 -1.6895467063829548 2.4696394601217535 -1.0167535437637845
Ni 7.200394617096792 0.9726329028736181 9.40408616149985 -0.4539159218298505 0.005430169876635809 -0.578621367130752
Ni 3.3184487599973083 1.6203104963580923 9.338641203052095 -0.732856446459654 -0.5754938772453638 0.12916193841035817
Ni 6.694327284795923 2.590637458826262 2.4846097721204052 -0.2650344560716726 -0.3800283305117649 0.0812219201959698
Ni 4.37902640189137 7.4688771725248335 9.859748188566522 0.4044373554837486 -1.3411390881002645 -0.5176052324586957
Ni 7.6642532141501025 6.097699383844717 11.06377446389628 -0.056459882759941474 0.10717514972662186 0.30621452985440806
Ni 8.140789926238902 4.024194125509894 8.035059368612957 -0.46044189587382633 1.1194482891215494 0.061564036755726234
Ni 3.350157719169463 9.03734502451063 12.259036342807542 0.5316779085016778 -1.6593401008925872 0.6458369457453006
Ni 0.7255928588995595 5.217732473469891 9.874822476458109 0.13125301661143202 -0.18400948237785728 1.5594195758458498
Ni 8.913580736899625 2.5027291773616365 6.080013823517712 0.23694206871083062 1.0642089090322704 -0.21999284245100179
Ni 3.9795427340225737 2.8765011539902345 12.020787126979947 -0.31051392856071036 0.6785568045758249 -0.3233038812365271
Ni 1.7179529452259548 4.046642865504437 12.479130607276986 0.23640933613581216 -0.3042275813313664 -0.8728247314568968
Ni 3.3409157287697604 8.751836790515878 7.6924394619914045 2.8587162739890313 -0.6146168113887543 0.18539222165799685
Ni 5.724966447556914 8.25546716806243 3.6492172266615315 0.5244076000925098 0.6080461001497721 -1.1897785021056801
Ni 3.353949304974469 8.399128166760763 3.358635923774792 -0.37634548234353893 0.5398938686535669 -0.04980021135157875
Ni 3.5654395862710135 4.903623286936413 8.977465311958397 0.3628129950747429 0.11608865016616782 0.9176642563690905
Ni 5.322812263724496 4.871376578815953 11.05027423097711 -0.5058552910116192 -0.2494949656751768 0.048736803084070905
Ni 7.982199558433358 0.5753777031041588 2.5684776449615714 0.39825025283643023 -2.6604065729384185 -2.7042778204000717
Ni 4.691385625745614 0.0251839681197415 1.0496321721987922 1.2043373737564613 2.0460527854030635 1.0079398021268964
Ni 6.086233482540155 5.837629409421531 13.309654691891197 2.9452313242631405 -1.2951968170421952 0.03301296459091088
Ni 7.907488912174618 0.021217386046812 11.508537504651349 -0.9142071510584254 0.21203862060093157 -0.34978984334219754
Ni 0.0731539086253372 5.150550312487438 5.6853817448893125 0.5095034292871676 -0.3123329840473202 0.03637313931239542
Ni 7.644629934731404 6.259361300727876 2.299426351662777 0.49854950137882525 -1.2545458762900523 -1.337461125028045
P 0.056789023257816706 1.8721410631665532 3.6335295403933183 0.14505984058753726 2.351772120788608 0.5964679083938695
P 2.013787781905977 3.3228510098622555 1.594923277364669 0.6678751564922626 0.3605460534174371 -0.42987585016151125
P 5.185604252405836 1.1546654790697302 8.38864479658548 0.03754479102299341 -1.5194000980301186 -0.7293744014483245
P 8.852240899236905 1.8007480544871945 12.310221839736231 0.4331792035031314 0.6951334779875834 0.3009347695127075
P 6.822685224439917 8.013534827658384 1.4777997335457969 -0.896294789554379 0.9877566423108021 -0.43283030480414486
P 1.9346201994485652 3.187046614442564 6.211518050228745 -1.3901268308528767 -0.6406155494453613 0.03815439958253429
P 7.0746525070826936 4.072263412855092 5.729389660516457 0.3395013169319959 0.6012208496978226 0.893363731950513
P 2.6351977064240386 8.808026998419395 10.251686053820016 -0.8251706199140435 -0.1893838593158932 -0.5307479404882408
