# total energy = -340886.70102612127 ev
CRYSTAL
PRIMVEC
9.09257707835964 0.00000000000000 0.00000000000000
0.00000000000000 9.09257707835964 0.00000000000000
0.00000000000000 0.00000000000000 13.30790564596117
PRIMCOORD
 96 1
Ni 6.60027422065685 2.2600508891570934 11.332705852381064 -0.9124899112570027 -0.6138904747456911 -0.051293250957337465
Ni 4.79804366590573 0.5524822422025845 5.760992102545145 0.2769664316225682 -1.037261433909149 0.3331326944014908
Ni 2.9538508692272685 1.6674694740132805 4.779627560857054 -0.48854816719173927 2.517915521519322 -0.9778833490611483
Ni 3.8459326715530313 4.864946845992702 4.740674961850179 -1.5788437460087323 -0.5135230919695221 -0.58471616717458
Ni 3.585112106073987 3.0357840787629726 2.7296379271986404 0.26490435825171155 -0.023547191192320734 -0.48044713535115957
Ni 5.179459077469786 4.780022178690131 2.3330224549997123 0.30646521241263347 0.32373839767078444 0.4303841572564975
Ni 5.394925869875465 3.1169080489635665 0.35097346444103555 0.5196451457068599 -0.366688161759433 -0.5521297485981266
Ni 5.745208298479778 8.191238753483423 12.351253577630946 0.3068511349971425 0.20267183467405095 0.24481375814942355
Ni 1.8873097958592742 6.751292828711284 0.5524540552145075 0.05592997839840045 -0.7990628670833981 -1.588902158685999
Ni 0.49256397961259646 0.09136312093393703 0.7001847874984267 0.12251460829716963 0.01318050324601601 -2.4864189935729373
Ni 8.081536814403602 0.3243994994883057 6.803280545817191 0.19075245752864567 -1.0541255566543395 0.05419988308117117
Ni 8.875818860679422 2.3977852425082022 1.7170394749483373 -0.48617195365007887 -0.3276770706035582 -1.032306403896719
Ni 6.894882801520943 0.8575354660356779 4.406114507789001 0.5681726609936021 0.3040735722520053 1.0885693401545058
Ni 0.7751403535985854 7.543956396316883 2.3564040162383164 -0.5379190043153833 0.9308504160420613 0.790732749951148
Ni 7.8750807656057225 4.076174901257071 3.830760797906236 1.0201031769623077 -0.8171292376668057 -0.6561871786313731
Ni 7.708677517607396 4.152798045942164 12.142412545938692 1.4189908062724206 -0.36936699414317675 1.922764532164663
Ni 8.537365874490597 7.509950159088659 9.195230172535801 1.2883497122133747 0.2517886468053599 -0.7287879328172352
Ni 7.184890538524747 0.8928401232307985 0.33964047671877373 -0.29513436078084654 1.1727238606162385 -1.5013586671473755
Ni 2.2723258678357303 6.866323017795313 9.147854210382341 0.36857098060444266 -0.21776523867206365 0.4614055453386764
Ni 0.12253792974695606 4.644270007081201 1.3115696514625519 0.7698780179893258 1.3008876967793854 -1.2436829654336194
Ni 6.520986950969651 2.0537039512808017 6.457434385433107 0.01923390852894752 0.8972877495952676 1.6735315619016211
Ni 3.398514245005103 4.431321858448842 0.3248695857088136 -0.02896219156030496 0.7409844748834271 -0.1420429081380844
Ni 6.227169424287071 5.71833973403876 4.617909717683248 -0.18319521400667804 2.307530377361413 -1.1657939662656247
Ni 5.806246766531401 3.4041425500436784 8.523220552764407 0.44042997152827373 -1.2432584763016912 0.6328194504397102
P 0.4955781688214618 5.6526822369732495 12.429264249535564 0.6748996674392118 -2.2707636021550246 0.18337570544860032
P 4.223656496936697 6.388635403083546 12.64289615994321 0.6954692640604473 0.053184811553095505 -0.03819965099817292
P 2.6141431074401824 9.060898261422874 1.2719933016872655 0.48012291924252154 -0.8406831137273458 0.17201425768919407
P 6.509957655312476 8.074699196650762 5.62024810627357 -0.06729811102602605 -0.10793156827667219 0.615323864758108
P 4.831395237604427 1.2387726630944738 12.427441187887368 1.6861052848015734 -0.7358942048447134 0.5479895011775079
P 4.1907231837707535 6.41399459977593 8.043869905756104 -0.9312525365764865 1.427041444491039 -0.6797590524140422
P 4.883923053772195 1.6082495213214552 3.6131763443640716 -0.5308975786922276 -2.4795577476767297 0.5640943771591704
P 0.6001982667283271 5.698936175149714 3.296927430718381 -1.0448184203208006 -0.9651941836292539 1.1042440705772854
Ni 0.5305391266135805 0.21104325379297034 4.980150703293593 0.33023686091093446 -0.5106686532398625 -0.09105921800136575
Ni 2.1457935691009777 6.821814854364254 4.276162490920147 -0.14529509652679493 0.8036911098840287 1.6011565505733198
Ni 6.062812006068517 5.793135270787257 8.773382799719675 1.7867328632176647 0.08876965063624068 1.0876368010379074
Ni 8.842540029595117 2.4012131439614217 10.374483737161762 0.687038616794591 1.8965801604598111 -0.5551970746695406
Ni 2.3242626665115647 5.674104347911671 6.618686688674805 2.3113919171993484 -0.409872667566707 1.1283599897888823
Ni 0.9389540357245589 0.3127464530627194 9.012992202042033 0.27415030233001175 -0.7823434974461881 -0.26432200338568024
Ni 1.6077312444439127 1.1650773281386553 11.461619496979472 0.3655098251806157 0.5166577809437618 0.13366239738387303
Ni 4.084485516451348 7.213877673359928 1.3483700375411063 0.3300000623097801 -0.2496811135440539 0.4697181789694298
Ni 6.114566953208372 8.027790592944768 7.9768912572817 0.15402399175936055 0.8690644930835163 -0.7291538007970862
Ni 5.511538167322518 3.3388669412037246 4.729576562609331 -0.23999936747991574 -0.6589351736901554 -0.6334655686641413
Ni 1.1876996592145437 7.572998086612859 6.946859607534692 -0.7884064158108164 2.804164149774764 -1.0042042463438643
Ni 5.244852889808126 4.983732269294715 6.705348038145985 -0.12476843732835287 0.054020420080513415 0.13916635792123774
Ni 1.045764535382301 7.391683012664188 11.510805791173611 0.35645491406719904 1.204053009746823 -1.1665557841323133
Ni 4.624439097082603 0.4801044216249397 10.348453508301613 0.3364507030311302 -0.4402481945347709 0.12654352695090465
Ni 8.135319406169632 7.432381386416471 4.334571385761504 0.9163519653155703 -0.07320804875255779 0.12407526791607018
Ni 7.7763171964150875 6.438880982474767 6.634816010658534 -0.383299802174185 0.10065483210960084 0.8495948143946788
Ni 2.678382162525051 5.322448940210712 2.500795045063966 -0.6267436765592755 0.08412803809917123 -0.44382459903211957
Ni 2.944549163161901 5.28228702848957 11.331441984206004 -1.7339512006402589 0.5759805870737952 -0.15058436995019225
Ni 1.2958103973545414 3.4443499246488143 3.6497994251950456 0.3571637672087655 0.8669279063564875 0.730061143102704
Ni 1.3822444324057457 0.9181684051620665 2.7252062052668125 0.9569561119901777 0.767709292472781 0.7805208424151525
Ni 1.6944653345294833 4.14246887869851 8.323988556233326 -1.7869930588575869 -0.8649959794410973 -1.0797522560835082
Ni 4.019455407184967 2.992285191356602 7.053190019137447 -0.1573116613716968 -0.6382221095125201 -1.3388358938883846
Ni 4.140986788680276 7.022406191126785 5.740458336359985 0.8117103806440795 1.8408900659863587 0.4432486719239914
Ni 8.24973130003133 7.04802907254634 13.135900220272877 0.653441754675752 1.8704263848825788 0.8764469015905163
P 0.45748299980673107 6.038580288899207 8.136533265172297 -0.27641544421510456 -2.384281663380539 -1.3651225954990553
P 9.111762136036429 1.9160150608136874 8.053571685200627 -0.49941236359975283 2.066117160253106 -0.9625911987887681
P 2.217661296120199 3.4528878542630665 10.210144504096808 -0.8753940348459698 -0.6063265463555041 0.2739371578779411
P 4.374702382721528 6.618432096524434 3.4683725125517473 -0.9204027383461761 -0.8390067544661874 0.059643936914877925
P 7.026443295225537 4.259690378791097 10.10833855870923 0.35857864527842115 -0.5759610466897693 0.005285159658339284
P 6.820678282264381 8.036546744402198 10.055865298002255 -3.458001854337354 -0.09654106705154342 1.8460530982445367
P 2.6167890472886888 8.913925850043992 5.701080204758917 0.5671169660355782 -2.3969703145918007 -0.04393141127562757
P 7.082635419843298 3.970619177197589 1.4772309451940804 0.5781125458151335 2.064123269751529 -1.299389514967304
Ni 3.06913565046167 2.0071681432235677 13.469729631159415 -0.64153677570805 -1.3702254639432596 1.326308450845335
Ni 1.7945200496255758 1.4142775804685896 6.8456665018233664 0.0060382357742799235 0.9508109183243881 1.2914527766187307
Ni 7.6555041284869 0.8450604506674628 9.215458428140517 -2.866592334302999 -0.10229545303681738 -1.3073964444321806
Ni 3.2090340370909387 1.8920652135251463 8.943537644905264 -0.7337257364384847 -0.10096362159927127 1.0258814742069815
Ni 6.540163195438723 2.2986306925152102 2.5064242593602213 -0.32568266588134875 -0.9199227133859641 0.1059325355687724
Ni 4.690523945257666 6.985754014050054 10.462501699091352 -0.5262747352082355 0.2933500151869141 -0.3941987084748759
Ni 7.011695135657574 6.2037651316064695 11.267989437014247 0.17653579970863142 1.5255584043220307 -1.0584421817518224
Ni 8.082127831895537 4.163490916257777 8.04327161420273 0.7521420341621433 -0.3467328016834287 -0.4739980372917063
Ni 3.0993502831647155 8.509378923103304 12.49460623418615 0.8810826005903148 0.045867966176708096 -0.253522341667015
Ni 0.03672491769112286 5.317848096350422 10.174984418872791 0.471794087661852 -1.0319870728840872 0.5122028304962019
Ni 8.931447245535647 2.6447123506383887 5.852869863325905 -0.11105443017637003 0.9395222327844465 0.9877203897562279
Ni 3.7963417576913367 2.8317648405472227 11.44228322315874 0.41206787544581286 0.2822230520358172 -0.8143922983516168
Ni 1.2308984915865477 3.538812705013527 12.13646327293911 -0.4084091956473031 0.4153421753217105 1.179986969936555
Ni 3.798323939433517 8.75495123729044 8.00373345325 -1.1876280314215804 -0.5567075977767961 -0.1901402778659435
Ni 5.996818083661444 8.061614978637014 3.245705308578948 -0.626932909751946 -0.41823698037100226 -0.1679305745381237
Ni 3.418454265925289 8.785447739874256 3.456209372567738 0.9817585157458384 -0.4367039288269382 -0.36087798283555916
Ni 3.822546564026028 4.619838253222314 9.148985326936137 0.6715963140975917 -0.23375132968767487 0.28646845757573247
Ni 5.265174798953869 4.647125076196085 11.465332905344178 0.29070717824742837 -0.18787873552527642 0.4341168848260524
Ni 8.051131237587777 9.281793322177553 2.4804467674455055 0.5855936846835269 -0.39932703084037674 0.9495868161093001
Ni 4.970993569199329 0.32388395038380297 1.256532284098262 -0.4001150739593109 1.2715902333668487 0.03497163097917848
Ni 6.32643308520165 5.980351427078472 0.3728811189805234 -1.8769011939736449 -0.8144072107499521 -0.375177944397999
Ni 8.35771474209614 9.054478902202789 11.195980775054643 0.3899867272760574 -0.12426321555716018 1.8013899510092073
Ni 0.43170463532391296 5.181968628666307 5.542556583814596 -1.051947575166414 -0.6079663959517724 -1.0685934112532114
Ni 7.638773787176757 6.030351506896121 2.389221853678913 -0.6516666650532003 1.0091757314165264 0.14250364982458683
P 8.886438990380643 1.9107413662702728 3.8718683376144725 -1.6640179659842311 -0.8974754401260414 -0.4714508453898203
P 1.8150601806144953 3.2731185183702243 1.4878901729755372 0.7198901161069731 0.04189278357904398 -0.6158648248632425
P 5.349108375385351 1.2350265214532896 8.273099222404735 -0.12789798409627007 0.23282598965992804 -0.6374752040441667
P 8.887266414869352 1.734263543178665 12.507874122251238 -0.8382487932542401 0.24178139908100296 0.13770751398752415
P 6.822851408119339 8.07137131354233 1.2061512253127353 -0.5419489514103828 -1.3167030665450874 -0.020418929975984188
P 2.257886855878933 3.61418107410036 5.972933702925856 -0.7579133894282818 -0.6434910712209434 -0.9544914524997691
P 7.104221197164103 4.250716005490493 5.829913834681494 1.9377486642783206 -0.5177921516585212 2.2022899827636584
P 2.4339555130145865 8.740694076869625 10.254233499737435 2.5577007718370597 -0.8303434223642345 0.2892449918796051
