# total energy = -340860.0086426672 ev
CRYSTAL
PRIMVEC
9.35063355079147 0.00000000000000 0.00000000000000

0.00000000000000 9.35063355079147 0.00000000000000

0.00000000000000 0.00000000000000 13.68559737810745

PRIMCOORD
 96 1
Ni 3.2431831670337106 8.41269974742911 2.5558405202040473 0.4852517558286546 -2.1076980690186864 0.8804902184219545
Ni 6.324450759725416 6.475444793825363 9.980919783519925 -1.2217679105280828 -0.49675615692382835 -2.062869599850086
Ni 0.052641262928689744 1.9340383355872504 9.454791413499603 -0.15183186920404818 2.002717355840222 -1.8284238151985477
Ni 0.9155663704169607 1.3145401471311067 3.6149961578393772 -0.9281229898085692 -0.5521994254937973 -0.4382023677493357
Ni 2.4897090979369882 6.083943108555934 3.7058815128828053 -1.4217632268112352 0.5667858079484044 -0.03387325570867714
Ni 8.592288019594308 0.48155015859054284 11.16373848781213 0.20384837148065538 -0.33183994373199627 0.035353439798629434
Ni 4.538975293458203 0.25589598916293477 4.271110493071096 -0.46752091420779485 -0.24182227962126737 2.5211358282288323
Ni 5.9260296054670105 1.4419612334996974 7.943066036513635 0.3439326132304722 0.004501744525095473 3.0166141468815013
Ni 7.934302622545436 6.056826270626169 4.874207669896617 -0.3671491605562516 -0.6913151326827578 0.554454025855929
Ni 1.3204029945041973 1.8471522466067745 13.230168706679512 0.7892687638111117 -1.2745382602515791 -0.28732592048002126
Ni 8.155931344135539 6.577806181693344 11.14689238601411 3.5230163115355264 1.7740976909521573 1.4374595545005695
Ni 6.7367015013280005 3.495135993936307 13.260632136435161 0.08585864763703277 0.6591390621708455 -0.5600544027618419
Ni 4.955742391171159 6.905966673812349 1.0365140130273527 -1.6271925696257654 3.2056511643809373 -0.7205280068012881
Ni 4.1563847621705206 5.538670250957196 10.878695638128209 -1.03927435057412 0.7126491182738437 -0.9336932848074952
Ni 0.5667559386827501 2.605909423782917 5.692387189610645 -1.7905182984020258 0.5222761555718038 0.9269099433370747
Ni 2.655037653604637 0.7398520658222116 1.2267592024989482 -0.8513835308639852 0.5835738260400208 -1.6810471535523759
Ni 4.468723981952573 7.93577067204715 7.401595146605325 2.5434203506586455 -1.230291888838694 -2.000353997814368
Ni 0.910399210196275 6.721357111313261 8.551897021966235 0.34519579621361196 0.5259500048789653 0.4207206660248045
Ni 1.6139848429458676 4.369495056397169 7.6332655137998335 -0.7649420141402891 -0.5026414120600118 1.604313865255379
Ni 4.233957619917187 3.0174495172190667 3.3318131492120835 0.6879017361258346 0.3109173346467161 -1.0326038805324795
Ni 7.108267635402168 2.2481448251516225 6.135759645586208 1.2760081599288862 1.5696780203490643 -0.8400022856102373
Ni 4.712653965081467 8.687580328333011 12.36532110888836 -3.4684307629801627 0.1543212112848052 1.3151856014592964
Ni 8.619919142381363 7.896974892540048 6.654759092421133 -2.099588552537674 -1.4166852980676956 -0.5861953228232679
Ni 4.779838268710902 4.707137091157825 1.0627743329038881 0.8656688371384058 -1.9186597659676699 -1.2884029340488132
P 5.600029109748617 8.860959779675671 2.653760357031807 0.876268209920807 -0.9975075510499788 1.6632468921461614
P 8.973859331801183 4.825497413404366 1.8123978110145842 -0.2676073590051714 -0.08121420688648592 -0.8269482806397565
P 5.089091779349224 2.1819236368003816 6.276379151519579 -4.541334114462637 0.981748231333193 -2.415157269913473
P 2.708841200310799 8.26868128612075 8.559273736946508 -0.9742696635679607 -0.2025836458356189 0.06010442149106423
P 3.413738726978166 1.7364033402481052 12.062759846838427 1.6953262891792094 -0.48037051647695334 1.7688109886319214
P 3.2374418778996152 5.958298642603431 12.891805738055275 1.2375169458322237 0.615063926228502 0.8600121530732607
P 6.42769110716767 0.3733062870185576 9.810821469566768 0.02413006027898425 2.1616200158481225 -1.0092320385757585
P 6.771476508314482 8.900643869390818 7.512380520435693 0.006466324450634025 -2.1860264697169445 -1.082693340989703
Ni 4.299664523411139 6.7615835377870015 4.898322019323193 0.6553163459906456 -0.43686153745072503 -0.7107277328814147
Ni 4.509558199621292 3.293816848892221 10.057394876862126 0.21591764394036364 -0.8133561437776186 -0.7953494227875528
Ni 1.2002192986727231 8.728769870084948 6.914100790127902 1.7963457037170807 0.9917678203527241 0.8718721377356404
Ni 2.148429666640237 4.169456948179421 12.403969148381913 -0.4713703698608721 -1.904673478990907 0.42402273381484396
Ni 5.846352855122345 6.001610778220904 12.425099710572837 -0.34519811020645713 0.6294366500104063 0.40071414099589053
Ni 7.629125988230348 8.894229334625361 1.7082224001954405 -1.3053634731625519 -0.02617922949852911 0.5140910486578502
Ni 0.7264872049763448 9.290817764665066 9.26465656150648 2.0338845254716458 -2.662330272323692 0.20824392944518974
Ni 5.068735449634361 0.03436638429078164 0.7990714996073117 -0.5109098227163911 1.2450723895819784 -0.8721526450905367
Ni 7.428882166069685 2.9109832011265464 10.249555076129589 -0.6475585564220977 0.3493116181541984 1.0835374341575532
Ni 1.4625980822276257 2.9934277390668025 1.859831705997382 -0.8382860742500787 0.5443074243402303 0.16637608556681024
Ni 3.2599956065501647 5.9824793815297665 8.094017992761623 0.5386067744110272 -0.56263399056356 0.5467859677877098
Ni 8.14108253771055 3.4709739562775086 8.196537406340298 -0.26754950918404247 -1.1518930399138163 -1.8536581642853045
Ni 2.791416647123819 8.9615632483951 11.212062563129727 -1.006365258550925 0.22323834597149295 -1.2046057969264996
Ni 8.08274393362648 2.6868204577850756 1.635770884563992 -0.4830874011874842 1.4842508038224955 1.3845670773769123
Ni 9.090555241236864 3.4673552610089504 13.283227007874293 0.20741037780030086 1.063474344859091 -0.10792256941560767
Ni 8.152106934924065 8.04274192236319 9.157142974431846 -1.4058583826555207 0.02311678852312148 -0.2620859149663099
Ni 3.4147579460589745 0.38207905162052513 6.812088180899501 -0.5849395960392958 1.9138086085229555 -0.30835265924333344
Ni 0.035660512004395274 4.6324161767106675 10.016612087679135 0.3902266112010054 -0.4003719271651234 0.10285749618787446
Ni 2.2830787929121756 1.9278108134971732 10.363268133392996 -0.6626393620146201 1.127169054804575 -0.8675817378904026
Ni 3.05547854475712 2.548758350187494 7.970902873243604 0.93539047000426 0.08768515932281028 -0.0177138723399953
Ni 5.47935918096116 3.942825637522964 7.680575980416882 -0.3474982190945434 -0.06982936208831199 0.6956189022644342
Ni 8.356287373901429 5.6075470192988 7.751796017580969 -0.14191718119349753 1.6440885740501556 0.041924665258243926
Ni 3.515305310975791 2.725307666377805 0.5153583100453221 -0.12310390514173637 -0.44622498094349594 0.8930336023046038
Ni 8.868075611973792 8.271757644630712 13.423272384894256 0.9383822056427321 0.18798235098267624 -1.163341390960074
P 1.2468041561093064 4.049030135869956 4.267676005287785 2.014260323482815 -0.2089764367358401 -1.4945526999691359
P 0.22649198621330016 2.5363407085424154 11.382612512693923 -0.228095159843162 0.7017260436034366 1.1180773769159518
P 0.3003358112129358 7.338246472947885 4.67259117469868 0.8106809109383005 1.2031937470703213 0.27511883689086813
P 8.203105291499561 4.287639608384354 6.033802205097044 -0.005783182340680363 -0.3014623598814034 0.9296923911782182
P 1.1721206441972247 1.5774986699796798 7.520879311468232 1.48131640378452 -0.043105315829906406 0.11998927077215464
P 1.2455511711842757 6.7284168398087685 1.5667276749413017 -0.6459043086481263 -0.22482857327674827 -0.642242543525823
P 6.626317269686317 8.111310119790422 13.468215271041021 -0.3136658439261307 -2.2634891799807986 0.8802539340414324
P 8.337885326644265 1.4464775896100686 4.584921502608372 1.2730321080196978 -1.3264773723230316 0.37921097681679206
Ni 0.8662286863988179 8.665409975666986 1.9444904740141096 -1.0572455903405598 1.477671607943081 0.2741076220175344
Ni 6.546500259835118 1.338580626550909 3.599613430226185 -1.4046165398286197 0.9488381108687337 -1.6750549405246828
Ni 1.6571660696905768 6.074358708942826 11.311214813488226 -0.24261315095367897 0.9215227108832323 -0.7981321277390125
Ni 8.473179646646257 0.9242830312163148 7.360374747761951 0.6483332298045931 -0.5866678915843122 0.411116310165821
Ni 0.8688141366359144 5.486100987908527 5.8314741266692955 -0.343668303825492 0.9156420837327393 -0.4796050990658386
Ni 4.548793458915532 7.831698118199465 9.597381097968078 0.017155685843680133 -1.3260567398458454 2.6944423223668887
Ni 5.956578125989957 4.4533889425716024 5.379644022449774 -0.4128705738527664 0.0378666931387864 -0.9422332039577063
Ni 6.443446925068241 8.506121929414038 11.332605323297926 3.102806009488237 -2.6432781407882473 -1.0232566349896248
Ni 7.778446258885667 8.709862888604263 4.222212288840091 0.12645610944342092 0.1734849286974496 0.5355325063610777
Ni 9.230955007276666 5.92460830913414 13.405220986403425 0.899194222589361 -0.6247729259861499 0.6488559350772825
Ni 2.749591262275598 2.05417527824988 5.084308930176439 1.195566569542367 0.40938467218669494 1.425675160271132
Ni 4.529792971097159 3.7288363837220397 12.53640404457738 0.31632102216079067 0.7167934794595203 -1.7139585595684157
Ni 6.964501641205567 5.001644652342614 2.772578860333024 -1.2370533759322437 0.391725564344035 -0.6712810968500181
Ni 5.845296233506461 1.9278575666660176 11.58845736448215 -1.1723021996977874 -1.3819666636395875 -0.11885258606455015
Ni 2.429313354423762 8.029576230016602 5.116388149447352 -0.6082088509798815 0.8322959181049151 -0.5341703359062284
Ni 6.291499126323866 7.445133567560005 5.712642532480802 0.5146268665566621 1.0616316352233974 1.194149377479866
Ni 7.214406679312777 0.6890173453376702 13.0513658877509 0.30473820241919775 2.2742397336290834 1.235076197601215
Ni 7.698760157907232 3.428494027065466 4.060134013470507 1.2293212973953087 -0.38395363370810004 0.5816084747835338
Ni 3.257218468320806 4.51611299389328 5.174551896679945 0.21477298881295917 -0.502245976393806 1.2216905203229285
Ni 2.2879972262746087 8.18669492923517 13.387155561961938 -0.2420981589904734 -1.1443298828545776 0.468900825274457
Ni 7.018221032207809 6.091545173810037 0.7303069388709342 1.9615660784128925 0.07862484889275491 -0.23632886060686395
Ni 2.6083592898303647 5.209668201798991 1.6970137954966786 0.8754773385883955 -1.418099661916719 -1.822640118637235
Ni 8.376550197278602 7.0127228595517055 2.8388037889377724 1.7633047141017115 -1.3411655704628258 -1.5694419930788583
Ni 4.154682946824583 0.663048765234724 9.388607627683436 -0.3025041708823564 1.3447255198999422 0.04816396129973641
P 8.936316537219112 1.0027900172764934 0.9174140556496924 2.537956756440913 -0.9404802258223416 -1.4714042868771302
P 2.9695368697873024 1.2061850030172716 3.195888596494069 0.6210054885239177 0.2064906941995089 -0.5490793918075769
P 5.954651895433566 2.949208591973747 1.519224585268614 -1.2735620123812388 -0.5843904084040451 1.2795778795580155
P 2.5773806401540504 4.2614858857327835 9.776142774108108 -0.49791392467735546 0.8200883202951295 -0.769824539043571
P 5.158922312335253 5.912583394107354 6.754677159685304 -1.0276249392606496 -0.031323749813946054 0.7898945703205688
P 7.065778355556356 4.8731014899217575 11.109680603867456 -0.3714087071635539 -2.956800517157979 0.10596416013765622
P 0.7641927005859952 7.987133703339634 11.203194422063318 -1.1961198709426755 0.9909733494758869 0.4052426249938634
P 4.878833428422084 5.80472383358327 2.8145117774695874 -0.9008505272458615 0.048053918084433364 2.8823598815499003
