# total energy = -340859.1569286652 ev
CRYSTAL
PRIMVEC
9.29888634503210 0.00000000000000 0.00000000000000
0.00000000000000 9.29888634503210 0.00000000000000
0.00000000000000 0.00000000000000 13.60986011179180
PRIMCOORD
 96 1
Ni 4.367863460680222 3.127150289391176 11.120521099792105 -1.8973067542131907 -1.0413512877078066 0.9809061950478719
Ni 7.078302769115841 4.127468658286652 7.055106697842023 2.2603892008992363 0.2133308570497939 0.20547665111269775
Ni 6.419411599643415 6.253668254530349 8.636422257360698 4.213358538782053 0.7534854355639152 -0.3082385022629724
Ni 1.5176897914381584 5.150485608051798 13.395980835720938 0.6672254387234057 -0.8229766975865181 -1.6266778347728756
Ni 7.9325914313430275 8.252231340730177 0.8856928602251585 0.09220670134224765 -0.16422767176523975 0.5730973519887291
Ni 2.2851640534198565 1.0794146937121132 9.47979774690921 0.1918490330269341 1.3147546845694649 2.0242994528863716
Ni 6.488837082958841 1.4148627093993185 0.9965290728264918 -0.5606105323756281 -1.8333523628484167 0.3130590635800673
Ni 8.99810429039715 1.3534528658666272 1.4629370204350027 0.005280017452016713 0.1123176131595098 0.34697114294647985
Ni 4.723787623469029 5.0190551524959135 8.489122322856769 -0.3783892522464451 -2.546505674452188 -1.2740865174261413
Ni 1.2916989635497582 0.8781589027402724 7.614539771694733 -2.383817836370243 -1.043987696889389 -1.9010227696121968
Ni -0.11666289460581325 7.010179129848655 10.26733249578568 -1.0922221064157447 1.1632953682134868 0.3822237955011869
Ni 1.936437228440604 1.1360635075826697 11.7511743419696 0.017110691538357627 -0.3835540842768362 0.988666298609265
Ni 2.4434961863440137 7.20009027982869 6.216126791733532 1.2577229884664534 -0.5282372582512451 -0.7695620294108038
Ni 2.723904095448845 0.965484741718998 3.541611869809094 1.0017128473805779 -1.2437346446071613 -0.15912223221787436
Ni 2.0836199969801914 3.34066201218859 8.802000082301916 1.4420086073238327 -0.27310669155684575 -0.5114479546080481
Ni 8.584629321790077 1.5641749228463842 10.309536420052408 -0.09750111697196756 -2.928216277762383 0.16997460155134597
Ni 1.2009418356153145 5.4204043736822385 9.50165570847916 0.5135261772933156 -0.6209975181041176 -0.6620225543662276
Ni 8.87291338738676 0.4670588696326309 12.774826405652567 -0.49166074467879195 0.4453032404601751 -1.3534258758874174
Ni 2.736569178261008 4.418626079675521 1.8138676814102048 1.7671711390356535 1.1133486039817149 0.39143143014238396
Ni 8.03361452948645 8.443676806909924 8.590338837830215 -0.2921415967011098 0.4907246060177678 -0.7943245810674643
Ni 3.5605899663666154 9.285960607235126 7.9906211297933245 2.1842030433549606 -0.6641748248225401 -1.3489164180528381
Ni 3.9576709988519245 0.08099143779543215 10.766786824670158 0.5746659820274297 0.08610238821672268 0.36066715237633373
Ni 7.782488812580959 3.0749091475125176 0.13892907727374618 0.9474196332546523 0.4841125000178888 -0.4356675171426239
Ni 6.700786592898368 4.464488185717804 4.448491312030752 0.638373804599036 2.932678170188478 -2.275824818728016
P 8.953237165163166 2.155677065050274 8.107665278727552 -0.14880388101100178 -0.07614759099685596 -0.629438192672303
P 1.0248581292047996 2.0711594896613232 13.438402353921443 -0.1661922516907783 0.7207668622849714 1.4224954769915694
P 2.0013341542453666 5.948488112964724 4.3793940793932045 -0.9870143648281389 0.757451876410831 -0.011999081343405143
P 3.0446598711630557 8.424000364009382 12.708152462721955 -0.17701762444105643 -0.12218859241631858 -0.8935303394353644
P 6.042323172184648 9.512109516186525 8.900548746865077 -1.0029485195598922 -2.6003265769273862 -0.34011915302165296
P 0.63430677451002 8.95588734768994 10.624360436349674 -0.39802708108203066 0.4639715062936396 0.40459676387974836
P 6.597224898860878 7.124304358449007 6.539932602075049 -3.497538736089712 -1.339778460307312 2.771782133899633
P 5.065363605069021 1.0565022384630898 2.9448874731945502 0.0746866901806133 0.16186714195286314 -0.1867086264765752
Ni 2.8813714319695283 7.936692240094984 2.9236292897753975 -0.7936563513558461 -0.2665971725731021 0.4954454085322048
Ni 6.783927933150608 2.1092384280723424 9.017212571359495 -0.7001687264186458 0.4026283272994679 -1.6112170201331155
Ni 0.9974450131032893 8.46014513412016 5.017029855112295 -0.3250607160266337 1.0861532745138456 -1.1008913520549686
Ni 6.933537710951557 8.472568445894792 10.668605466106323 -0.0870549819379791 -1.411825141761917 -0.04237692230431411
Ni 1.0802329956852925 3.7022770932454185 6.6816652934955405 -3.0968659898547184 -0.2346535297869701 1.181624762650294
Ni 5.235533219946103 5.048997565605434 6.076285493737412 -0.01982989024173359 1.6899483126967474 -0.8920352429470767
Ni 0.7754703741037096 3.1444462174606493 10.641303936637518 0.18463503177699814 -1.710503768250596 0.005765698839183619
Ni 6.197103130634322 4.047507537066541 10.162481976140434 -0.12351168210311632 1.6126858913691582 0.9795411963795453
Ni 6.697262315082061 4.92789817246094 12.838221561358823 0.18155125064535185 0.2857089537018886 -0.8744694661491713
Ni 0.4916497738152781 7.558153186411036 7.234770475385198 -2.6483534984286257 -0.8628527078458496 -1.2470400548313103
Ni 1.7124921554851522 8.16589118367369 8.833262007343187 0.8105130179018686 -0.20084763698111863 1.695283608866732
Ni 6.980906236535374 0.08861094503205952 3.190259969295426 1.3393678551324546 0.5388191475321495 1.0036928539250844
Ni 2.6376662261390056 3.584246332500347 5.042602721662758 1.0622579559534866 2.44843480101968 -0.05586698637094894
Ni 2.7591468736119125 7.245013198379029 10.787555886682615 -2.4601963124309827 1.6129710267097448 1.888266241277477
Ni 4.175720578046061 5.144896977530425 12.64207643816493 0.24810194198239208 0.7179998410627957 1.7307139246498837
Ni 0.6106094932776289 3.8114274178042815 1.5298294871879963 -0.29159035218333007 -1.0793910160893474 -0.4930190584788993
Ni 3.849906208315831 5.425714037621845 10.368562959088216 -1.1179544781848425 -2.061417955005224 0.9451892012622366
Ni 1.4824470132750907 1.7101023417680261 5.30142140700474 -2.761148822555503 -1.0742742636880724 -0.846638302869516
Ni 3.6003520031542875 2.021429047018556 1.6244596011659536 0.45426790585263055 0.21477633124706882 1.599425426814826
Ni 2.126032216294638 0.20267294120721047 0.9016516084793688 0.4507439518597721 0.12409095164535404 -0.73145673789865
Ni 9.181450426819632 5.802123646398316 5.444229979542241 0.7927739487508928 0.3357765597822411 0.8694833257884895
Ni 4.89038646609951 8.108805322158368 4.930185698431417 0.5794664887398666 -0.22751794718345333 -0.5881701871614515
Ni 6.035181627691447 7.1731328091440645 13.601720549550361 -0.741508208597381 -1.3266851174584635 -0.40423372411337477
Ni 4.811457521231932 1.8387524303923117 5.290737916811719 -0.13194695735466308 -2.349331115447283 -1.2063497762007998
P 4.676158729075564 3.752360893558422 4.441550623476421 1.19230152563785 0.7192033744525936 -0.9770523685194207
P 5.411709915217207 2.6901212423970176 13.022389719308908 0.5317074761880327 1.186683151009808 0.6088611398518998
P 6.623289676483854 9.00006635535557 12.744640361728305 0.6562419431287085 -0.11381245253748141 1.9743722290386256
P 4.679413339196164 5.347491808094741 1.4411348521814067 0.9602790057158237 0.5843132753092066 -0.6992397868464731
P 8.550530306612247 6.240659112934009 13.517653040246659 -0.7991202026838947 -0.8756791701865564 0.47209644939361917
P 8.184163494779343 3.7220186283483714 2.6543307598450827 -1.5717413306359964 -0.5530694868035765 0.5763389988544784
P 2.111163297486526 4.382713781716216 11.370833164167445 2.5728602531863176 1.9240379995604477 1.6994197425222923
P 2.0516597255959 2.997123965630179 3.2837193535185736 -1.8490857144232735 -1.587290591224505 -3.7152651511040404
Ni 8.832705004068263 3.632702827753051 4.776216602846077 2.1442486144492103 0.690949521813223 0.07894906500139307
Ni 4.6539343913948965 7.473858784287498 9.440424403558797 0.6241489192489058 1.5183585441394818 0.5564062644862933
Ni 6.460363893846621 0.13718367636049875 6.505526723657278 -1.7255886876081765 -0.0900037801536579 1.1424264951842777
Ni 8.489408728547382 0.9924608101757421 6.161700411631043 1.562725500290631 -0.06726854333967125 1.051625673050621
Ni 0.8205225471702655 7.606247025107444 13.052386065957569 0.7053965504764884 1.0822948199997038 -1.5527231376622805
Ni 4.37796205094014 0.816662579567234 13.371019835873147 0.014749390395032664 -1.570164730177496 -0.7378695834035293
Ni 7.064884476532911 5.480335694331571 1.7487578111146944 0.098069844991244 0.6056045805878151 -0.11147609109482093
Ni 3.008608089912868 2.050125409396189 6.798464881726418 1.2559394142034692 0.05136704161806638 1.9741845385078516
Ni 1.3027460401876803 6.583639226328888 1.4241764736758695 0.8301978979253057 0.9141719269451158 1.486549370048685
Ni 3.1213198878322728 4.522792201306837 6.932698951429048 0.06757399039523201 2.289851472024411 1.3884882668081893
Ni 5.387895468020474 8.172660772724537 2.2892332459592124 -0.5020204906465612 -1.1282728293917148 0.17514251890553062
Ni 7.9290578546406625 7.888003272690809 5.437411106395282 2.9104317000854523 1.691200954156926 -2.936630212857691
Ni 3.805606315131437 7.3299213269824515 0.8211399932045735 -1.27642365019975 -0.6517394272726647 -0.5732066238730837
Ni 9.153367790921884 4.995677752943948 11.68590174116806 -0.49555442330624333 1.5841517884852072 0.7560475398641365
Ni 4.137725329609571 6.01334784322525 3.777579472550042 0.23555701543784593 -0.863091563329533 -0.4319458453166625
Ni 4.493128754779083 6.911796915345949 7.142399990719542 0.6870717840253716 1.6068823973135036 -0.6160445449742165
Ni 8.678566668756648 1.560864519409431 3.9427490763932767 1.7513606543659581 -1.4839954932785795 -1.8534067103961307
Ni 3.1793635346116575 3.0649779372016583 13.354566386880608 -1.4061525168571718 0.5870748972147437 -1.5726833828342914
Ni 7.036467080737045 2.4442865916590164 5.064051532246117 -2.2816589089112895 -2.05759883836945 1.644958892470251
Ni 8.302900970864888 3.8865996127040807 9.256459891213401 1.5626090293174248 1.756223381774898 -1.2564212389358942
Ni 5.800273168072603 3.347924442200557 2.220911540418973 -0.3124078031493136 0.3927583764839236 0.5627334922559019
Ni 5.050252915223379 3.1020897914625563 7.220043829533785 0.6077072287531146 -0.909917522544136 -0.7069312419534599
Ni 6.056392386791699 1.1576741187834532 11.469327895191464 -0.33512864178559704 2.68023260652541 -1.119931399405555
Ni 9.107821847005603 6.234029007174043 3.03959848748122 -0.9424296362392286 0.003250388616497628 0.928670120561291
P 4.596076722336688 2.585704050842113 9.109419395630514 -1.0226154018612001 -0.27951876573077666 0.7602119556544714
P 5.569660793812951 6.344397485806616 11.211774788242092 1.2297362734455402 -0.1242174499208893 0.4396488703878751
P 3.321562100223698 9.406474170557912 5.588902048845938 -1.2413813138836363 -0.1633961770028799 0.6781073757432322
P 6.824303696418164 6.803492789418442 3.7779337601088843 -0.1266471424083045 0.5750480479571967 -0.6811392205910205
P 0.5015251908097841 8.716534020534963 1.9828340204312704 -0.08415580601331313 -1.1579559582784444 1.433621154591086
P 7.931447668357788 3.3092410761957125 11.412139745929494 -1.3466060247521068 -0.22569426371115325 0.9183031755046701
P 8.62640921685252 5.647092618025052 7.723500398977994 0.4760045261987738 0.09480711507957221 0.4693674804982303
P 2.877484497596926 6.310949392652908 8.454894053162722 -0.44075110231311837 0.11948019234622004 -0.38874359889757565
