# total energy = -340873.71748710575 ev
CRYSTAL
PRIMVEC
9.15299294666558 0.00000000000000 0.00000000000000

0.00000000000000 9.15299294666558 0.00000000000000

0.00000000000000 0.00000000000000 13.39633037615140

PRIMCOORD
 96 1
Ni 1.0268742802798123 0.6224355568144061 9.07542409142281 -2.9789287165155853 -1.84936622177817 -3.011570156699691
Ni 5.924695731598194 6.327610481735617 4.60135783991445 0.17534949271001413 -1.1437786383367978 1.0684859391410695
Ni 1.5487870919014826 8.02116131030619 10.484557562625252 1.883287300005647 -1.4576805095331347 -1.6678620223206697
Ni 6.916385906936429 8.031403509429403 3.4051330532740613 -0.5924184209148442 0.4261351521721564 0.6646749043874102
Ni 5.102024724275354 7.6491379114117 12.909601859138979 -0.5233367356258342 0.171918098430962 0.5455510669393443
Ni 0.4734230008128783 4.34742452560249 8.736658092451632 -1.8290064271748954 -0.19715707550340886 -1.1316445740774252
Ni 6.8731654741752095 0.7645897751903552 1.7958053200315074 -0.5254820641036112 0.4479291081187963 0.04192132282413425
Ni 8.01861677826307 7.51420448918258 6.4971934741174 -0.7833374859283413 -0.13183228615366974 -0.9297479270065021
Ni 1.7739598717318033 6.182187729573341 11.977525126954879 -0.4253630498928223 -0.7082378765800255 -0.3739389297845754
Ni 5.829513757798126 2.244460321892276 5.617751027954772 0.7278242833523852 1.155951783364222 0.13638468141104254
Ni 6.777846205480727 6.275383503900902 0.7969556735992815 -1.5771486176944967 0.24775150062150883 -0.5215981556681727
Ni 7.5675115201866765 4.3985531442819 5.199209372935261 -0.2369891198986822 -0.3592679580359619 -0.41902630904151705
Ni 7.100022404710329 2.7083797701138854 3.3473145120395524 0.20082038328760896 -0.5680731593012603 0.4381658580844453
Ni 4.627643405099472 8.234142303512636 10.623290392232429 -1.332614338458705 1.0624050230543123 -1.0509929245626288
Ni 6.625778380428861 6.345037780333109 11.301974751988555 -1.6542218058294156 -0.2879697247116073 -0.09195884699749969
Ni 5.304809283323389 1.6162812619949252 9.656222683258225 -0.36992286664664675 -1.1913242493262448 1.881299837261973
Ni 1.474959050679119 2.9835645034823894 6.371455148616767 1.0336693456825163 0.8539597762315938 -0.8272475570477301
Ni 0.03261669041605412 4.31665216326805 11.5042192844519 0.4290782939608804 -0.8747188631558162 -0.8499177449517363
Ni 0.8253143916899397 8.592454518951746 12.498870453012977 -0.2918559471398909 0.169072915672683 2.5362356599847478
Ni 3.9707147943120336 3.6288230482447212 4.683209394766311 -0.41497785000375625 3.4943305135650595 0.7167914225769914
Ni 8.277847844900782 7.975890607121737 10.668516245751375 0.16096699873609696 -0.8412356437967061 -0.6079805370191593
Ni 4.350445013279576 3.1582676801264826 0.7976018749023189 -1.8840655729325682 0.11414026819054535 -0.12315069921927178
Ni 4.613877303686326 0.6381603987211778 0.9784869829921822 0.9538707881966346 -0.8470393949626768 0.3844531990523379
Ni 5.296406835785313 4.913793424035097 6.6257179706753195 -0.03592499603138329 0.2740096629870894 -0.14093836221999598
P 8.759816995241222 6.967844033362431 4.289022938716374 -0.045892134546424185 -0.1885143122267463 0.7756223766722706
P 5.845806085268471 7.074027904701464 7.1118041372495595 0.5322335238948318 -0.33886651156147446 -0.7799791109790697
P 8.774040746302411 0.6464621633366853 0.6335381372759393 0.7316819665355786 -0.2847609879663225 0.45254295274172385
P 6.4738020853066045 0.04295225006746658 11.053191826815674 1.7065298712045125 -0.6591969119919744 -1.131559984783419
P 9.149963320198234 0.1489530615472821 7.141409492981488 0.283796310060208 -1.167945979611621 0.05633852669072877
P 3.221212812718374 0.7509490697807732 9.342641144418879 0.9532904902131325 -0.4040267503088913 0.3311377754586491
P 2.1122087266006906 3.3205502453226776 12.275875170208046 0.5836429887150594 -0.13162916900392815 -0.6476678283064523
P 6.279657951613627 2.562664122176862 0.2410696980047566 -0.052785776342463925 -0.7453833752820712 2.1451605847405184
Ni 4.2554827113105675 6.060471229179714 2.796979826675794 0.5878590836789359 -0.7088122610262567 0.2305140536972998
Ni 7.7031680288597055 4.280232404276756 0.35143374122901805 0.8731875141129543 -1.5047941751914857 -0.6596278288818059
Ni 3.9907598488963356 3.0959724100348134 11.023411648918195 -1.1906750457780202 0.4254571522685254 1.393714033983503
Ni 2.349976024745166 4.775088968706099 9.828941491028402 -0.3984222596379203 1.536004539356019 2.9129346690129636
Ni 7.503239203615459 5.65268708678711 9.131019370667124 1.0344892704806505 -0.3609366039876365 -0.07085137559492315
Ni 1.869654413137681 3.175969568512802 3.536229540853985 -0.13256967854032653 -0.10318351206872552 1.9055851921718987
Ni 8.491487853600407 6.3267684063832155 12.56570469231394 1.5080584477650543 0.45961528620747294 -0.30574556063778957
Ni 6.086905072850702 2.915594377754982 8.042835597637527 0.9971118582734569 0.08086376552560268 -0.36329224870400656
Ni 7.515321154323805 0.6006926220358636 5.414287316829039 2.0254885880984665 0.2739456425183734 0.4915761553847857
Ni 1.8923355296947126 2.4374145665003404 1.4510367882765935 1.2987405685293956 -0.1435061229471722 -0.5133387438728578
Ni 7.62236540700116 0.743461921538783 8.968253527442595 0.3219149713088005 1.2387297351934021 0.07355334790711848
Ni 0.33785161497438565 2.4235843941364688 13.193643943795717 -0.7746217033218982 0.5354823698494326 -0.7467280622354237
Ni 2.9564075733674935 1.2922744641731492 12.928731614427194 -0.20213935920934864 0.7188048534625943 -1.1353541617185288
Ni 3.441754178110495 5.880111502885805 0.4868001000251873 2.9222497757663026 -0.06295423223503352 -2.0947955020244056
Ni 1.578424483108774 6.952631759061467 1.1103431689878585 -1.4397169830761785 -0.6919496809429632 0.5533340533188729
Ni 0.2782390871195466 5.475613284966153 6.408121123118709 -0.011039545643613246 -1.204422734381416 -0.29315666822918546
Ni 1.4654033260279724 7.544217153101267 6.133081007038987 -1.4940924725032656 -0.6546877112677113 0.2757086479560671
Ni 3.4447838187805426 1.626230565343389 5.153099340296294 -0.2097714218333097 -2.5613954470798275 0.4077165404556527
Ni 4.072486923043929 6.055638448896376 11.340596721086236 0.27054921524231473 -1.0173742080669186 -0.289238821232018
Ni 5.338089565729107 8.510370478078679 5.485610183878014 -1.249510113638358 -0.6522791018262186 0.13601341411455287
Ni 3.9020215821407174 8.453008671192919 3.0136247629644735 1.5506770537665295 0.7636310086383494 0.960723292342094
Ni 4.3006710375583745 2.040449261787483 2.869628047105502 0.2741459314546375 -0.5028900377357081 0.7766330773249721
Ni 1.2199566667893287 4.740811010067647 0.4054858258601296 0.01394412088491792 -1.5139686426019023 -0.7786375093495106
Ni 1.6924341634293496 7.760337622893289 3.5653662633463172 -0.026599604865399352 -0.17875131930271151 0.42589501113689227
P 5.785542779614114 4.277047162726373 10.364151770823621 0.5341171140707898 -0.08749155525476544 1.0262689394533875
P 2.7182650025116226 4.717141370270842 1.9981294835336125 -0.3663968557712593 -1.8557433289491072 0.9419894633780164
P 3.027059526032436 8.700981556488761 5.578902064631664 1.656748428906011 -0.30480505110139117 -1.6900848382746119
P 0.2440416748191505 6.104515431307413 10.207575181439234 0.34008135780518206 -0.214198861477044 0.785778491269666
P 8.814890553886766 2.5502709697078463 5.053242932991109 0.007778101283522089 -0.41217251934447724 -0.8262222011070094
P 7.44473327260959 4.376650032126542 7.305340512209934 1.2453883781605004 0.5011144338925241 0.5450355607555065
P 4.191054793859016 2.9063040898997006 6.84265763333734 -1.0891090147080595 -0.14858148058755055 1.064000135455574
P 5.531501459985215 7.595739350477995 1.7286891685473487 -1.137100454985674 1.740413668436151 0.11939765993474274
Ni 3.7685984037501403 7.798112024842792 7.375911918536821 0.7080149619359419 -0.540939536309262 0.7093449936012751
Ni 2.389846462082708 8.97452790411727 1.178033213130664 -0.696588465266555 0.7794252953581285 -0.15516967532802953
Ni 1.1619083854315022 0.5538768936396145 4.9013023345414 -1.1380859588273948 1.3736972245419439 0.5204396165836972
Ni 9.08615780626802 1.3245570703461316 2.771285544836044 0.5626802704204632 0.4961362639516423 0.38402973836167414
Ni 8.62180816737725 2.261439123834687 7.34117539495103 -1.0146110434994848 0.6572639566353197 0.4882424630258624
Ni 5.296287846876822 1.2661609752557919 12.189133171217193 -0.5894536818595655 0.22513222056009616 0.4666354262790479
Ni 3.578298527100728 6.448008951142878 5.068542160725201 -0.5023706748971283 0.4485927098447242 0.6587675377640396
Ni 8.61547429624833 0.9561765626500658 11.33416582823193 -0.9962042588575231 0.47592765021425126 0.08312736474879875
Ni 7.365953462195397 8.460880245139265 13.182056254707259 -0.18631833301669204 -0.017171883793596233 -0.8354108095848128
Ni 7.3545213739872715 2.7257155387817695 11.89405257704965 -0.4016741909163147 1.2035935536119013 -1.6990711009336221
Ni 5.334977548122412 0.6354437904103921 7.531912784663971 -0.35339581552590105 -0.10774619173874346 -0.21915620548231934
Ni 2.50013087426821 5.5859160031375765 7.602605010497942 0.014249053719846428 0.10303927318137739 -1.0204731587072167
Ni 1.6878851259277978 1.1828595863189297 10.998575002518878 2.1319494853668832 1.9496970948894488 2.4290245148138685
Ni 6.54385909342909 7.955250607994978 8.938339715847887 -0.37196200856386263 -0.4416347904696523 -0.0032629870219879286
Ni 2.137251315341626 2.6127767586376156 9.040727841006047 0.2006067246149061 0.800826129631408 -0.7137883740846094
Ni 8.893661211307998 8.142951034643504 2.234159543614115 0.1591253175416679 -0.47819433476124096 -1.266619776735451
Ni 1.0166595401354834 5.474524078803809 3.248261737516332 0.08464174451079616 0.6669066219314063 0.6459351618860617
Ni 2.4036766344465796 0.8104993572834783 7.2059399239542 0.3296804741868322 0.3772083445644665 0.3323045420732406
Ni 8.99940573898491 3.8308662148629273 2.1963952099568687 0.5485667138372166 -2.0392689297120103 -0.1488553030742275
Ni 7.335199405846879 5.151240367425942 2.982063412636807 0.7356419796245911 1.6063221539346593 -0.8934130971312098
Ni 5.266952504437239 5.950305805902703 9.024210349908863 -0.8303992153028344 1.0742974036165238 -0.5553253727172888
Ni 0.4250832990886447 7.032519081623925 8.266125606815798 0.24084268931681746 0.6372314634644767 0.6535168308880616
Ni 4.1277069295768465 3.9975330636873783 8.83907276128938 0.4946085144532063 -1.4565003731821045 -1.8487391297171323
Ni 5.6072058647645555 4.49153839977136 12.784305623198359 -0.39164843124919646 1.2132519026372717 -1.8274051441260466
P 5.577229812817713 4.221213905665077 3.584857561856486 0.1311316605422193 0.8669420474238747 -0.1311026070764968
P 2.885288818061547 7.83044954897354 12.778585002597815 0.8124369743974589 0.10050108014055595 -0.8165736222736518
P 5.854071237912135 0.8113633998189844 4.062638302618034 -0.32227466864106435 0.5661178353471025 -2.835217419536143
P 2.216690141249002 0.7920597376645132 2.9792772415795192 -0.14030587084231966 1.7143979610986797 1.2842639721797753
P 8.783331034157694 5.996986070003133 1.2868705371290523 0.3603920443380761 -0.012283959573675618 1.0972763810102006
P 3.3198912298294947 6.80592758788467 9.304689174405935 -1.619325765283179 -0.2733375766207293 0.9100069969341488
P 2.1147074936790076 4.840935600066586 5.116501097942263 -0.683939666154293 0.3429401674102158 0.7743404246360535
P 9.01016050571393 2.444535595023896 9.717564211483372 0.1814538058355391 0.25886766513932835 0.4050454213813927
