# total energy = -340886.7785637351 ev
CRYSTAL
PRIMVEC
9.11067760070153 0.00000000000000 0.00000000000000

0.00000000000000 9.11067760070153 0.00000000000000

0.00000000000000 0.00000000000000 13.33439759003582

PRIMCOORD
 96 1
Ni 6.959464180050701 2.096011531558156 11.196012945293974 -0.14745456607195898 0.41285180479968897 1.3175533303605245
Ni 4.893836757306062 0.42352623376077514 5.755832557743933 0.05049389498449369 2.0053779333915203 0.2252324935833863
Ni 3.088091404698022 2.0937338622318054 4.702655571526307 -0.17574364282463925 -0.7328371631859444 -0.14391389990855213
Ni 3.8234961661127893 4.337684571875084 4.642783844546127 -0.28551329275131476 1.33834275630205 -0.5342286999479895
Ni 3.894067472520436 2.9094947974802214 2.45900915850503 0.048223868003394364 -0.8808020932354185 0.3239826524711065
Ni 5.28175117561548 4.660612528965068 2.6214361356412033 1.1688389237395354 0.4682626774698258 -0.5993920240192
Ni 5.333399605259805 3.0531883999410256 0.35740093787816535 0.4192160564548199 0.29794766185992555 0.04388384586714378
Ni 5.553768667922877 8.1635859567965 12.330063591816195 2.1454045824305243 -0.7631111315791373 0.01829519876476204
Ni 2.0658551896772743 6.700520509676556 0.3986868831553263 0.5193029318760928 0.4682981586934516 -2.8636011128851586
Ni 1.1737832213188093 0.3791882115863044 13.77456603392638 -0.6840162850284993 -0.1299363546825375 -0.9062765833574391
Ni 8.694164471031213 0.018951119862967304 6.487277818801772 -0.36306470607423275 -0.21267779684682728 0.24000862345129634
Ni 9.065224136325638 2.4250800851519814 1.3352927532503285 -0.26580501568910997 0.8046557877901432 -0.9941424912324878
Ni 7.301952761315383 0.871991124509628 4.514213055344558 0.2009386540330281 -0.44915192478230387 -0.7609583469021927
Ni 1.0601184112566104 7.541973554926207 2.286515794014118 -0.7293214367232019 1.4393673130462437 0.5746274154800103
Ni 7.953730615743863 3.7934947057460997 3.7604867218686273 -0.9309404046527064 0.7312379370196245 -1.5645211587384733
Ni 7.550464706174841 4.030827849551829 12.624193609011533 1.3757199113989276 0.0738618802864728 0.46658657531898357
Ni 7.985062234997142 7.7519382241065085 8.7228293950372 0.5701629519507535 -0.044258198487427 0.3825950627976766
Ni 6.7264950506742585 1.0850543350414963 -0.029657076764545532 2.691527976933571 -0.9901017455042109 1.416812053453547
Ni 1.900496396584223 6.683793306143838 9.051015124000132 0.30350715822557406 -0.533393605641204 -0.8098134207316827
Ni 0.10644824256858981 5.163111935744531 1.4233137399010116 -0.6367642940200712 -0.5067603193243917 -0.5934070100803587
Ni 6.827213588285481 1.8785396642782035 6.507398749630752 -0.07208987598771456 0.3718015717265984 2.9460849305126873
Ni 3.461018758840054 4.510395681553595 0.1945904012274348 0.6079887645492755 0.7794744034285092 -0.3061481953928469
Ni 5.972741385166412 5.702382036128599 4.9588223074577655 0.6211165601804852 -0.2888444140070767 -0.5812055829181604
Ni 5.2696066427673784 2.922668836863833 9.71309533232556 0.07045156905334318 0.3675433106708767 -0.9019342472283434
P 0.27160751182865306 5.711583820207054 12.514278753728236 -0.1801044908964963 1.5049450989470534 -0.9410893201612501
P 4.279758885567336 6.337460019056276 12.387375218473558 -1.21170461275481 0.25851696666812896 2.492536162214269
P 2.8036742805779733 8.58754221452609 1.5365895240422698 0.7109113096471305 0.6654380078056797 -0.25104971175680635
P 6.881485892993763 8.079649286781828 5.633649264401183 -0.5130595220695422 -0.700439206471213 0.26989281260523845
P 5.005506329038377 1.321931944981956 12.238629745446907 -1.4560612287621568 -0.12704257807451022 -0.20123124557278244
P 4.412665446098544 6.383068069647119 8.003185194293048 1.2581978712203425 0.7796464102299993 0.9256758138196575
P 5.191455252841638 1.2124033824164095 3.7070689986915926 -1.3643407230277083 -0.2735813172004191 -0.9246090631180398
P 0.2710125846006103 5.92401748293712 3.371388826577237 -1.141263328114112 0.767275290259156 1.7176007843066934
Ni 1.173910770801085 0.5442390637864333 4.543815468045271 -0.6888797837683878 -0.20967474835444536 0.6936733485022892
Ni 2.1270060557511346 6.352939059798154 4.4116322952921125 0.6472855052663691 0.7734104566226164 0.8700448547189145
Ni 6.364983375195895 5.904839507209248 9.490956976129782 -0.9569751381535714 0.4551060854832098 -1.8910790281359238
Ni 9.039067381781827 2.434427640067324 9.965914805415013 0.6825710679415407 0.584887916865754 -0.06892921887154581
Ni 2.9581549249683747 5.513572359651441 6.743271451864427 -0.7553273738686604 0.04316496542324824 0.4257489724773313
Ni 0.8990352590229841 -0.06584377595387289 8.786887478239214 0.15145391703933916 0.10364296820364732 0.6813896460389297
Ni 1.8810815432464105 1.3359897200641917 11.422805035457355 -1.0486915301229616 0.2949906361141307 -0.2665205536988958
Ni 4.517666002043306 7.196615110310322 1.4765711151574712 -1.1236576992172067 0.8957157771224574 0.719640204879696
Ni 5.8586028198843305 8.52466943044151 7.724963330740673 0.13947026231490173 -0.5199277099442852 0.4568711478034325
Ni 5.811236408573545 2.997977695470288 4.643503588053253 -2.020215512624985 0.008786745053694544 -1.2359573146545875
Ni 1.0537956012066612 7.129624300083699 6.570591318488753 0.020879928772802748 0.7864598336074069 0.301015759262288
Ni 5.338510695228136 4.553552959949286 7.362333775156937 0.7353468169816756 -0.45147157405441607 -0.07601903583879166
Ni 1.2175326937393511 7.6049192244292305 11.128607599249955 -0.4448990630432209 -0.026400858591031955 1.0321038009676096
Ni 4.663245514706329 0.23446692472545005 10.010945239064695 1.6725051775196358 0.5853725698116563 0.6962130842050074
Ni 8.801269593433522 7.746508260432488 4.473236873095781 -0.7099977966939257 -0.6330197393759743 -0.3404076307963492
Ni 6.989830067509606 6.275653184216426 7.047375838573719 0.5102328512540244 0.5444655471846493 -0.26817017348717687
Ni 2.667633647053706 5.5047350026652015 2.2016024593923076 0.7416984702313162 -0.2625422857774382 1.9141965879899938
Ni 2.2294374006957725 5.311133109925402 11.197079805606437 -0.15172825374664836 -0.09038918851753465 1.3921022094116928
Ni 1.1286489259478465 4.063926940202356 3.700001846305792 1.79639686866999 -1.4512416958863263 0.6137104975244011
Ni 2.017696149440918 1.3736259280128085 2.536869006756998 -0.3869183727633788 0.0689706136324425 -0.3763609089625066
Ni 1.1751224908827034 4.122381045793817 8.294381573396047 0.9090546603232086 -1.0033149017603753 -0.8684163179765559
Ni 3.7201355320830003 3.0246264265885894 6.813730696941216 0.49467330625287065 -1.2164778657737372 1.1192084051966014
Ni 4.513475090482821 7.314917255120971 5.8568408148934665 -0.9063655435268198 -1.0729118361229069 0.022777917126463997
Ni 8.767550976726229 7.769977365171204 13.127901091601693 -0.8007109442097823 -0.4733349497864106 0.6468005952101505
P -0.03980363807957206 5.926677800710297 7.970022328901384 -0.3145924695054582 0.9271729671904743 0.47938629818681316
P 8.875439617376802 1.6397943654901366 7.867147293971973 -0.026477220354922143 1.2067225861591864 -0.161586891708283
P 1.9476805943489013 3.358505417799668 10.212801405443187 0.051848352129859096 0.23974354271536774 0.598034481550041
P 4.36432419231608 6.363534777504337 3.6351566005845912 -0.700381099539768 0.722147544682582 0.08000990216573962
P 7.042480671657526 4.143918686943788 10.462648064527887 0.8681067571559371 -0.17694306244937913 -1.1025900799136301
P 6.6933139639279835 8.491716110627868 10.30699578703601 0.25899004964980554 -1.5204933310942974 0.4792058067448909
P 2.5006895961095146 8.579078395309372 5.932846640313785 0.7189686327339683 0.3658895771175376 -1.0721153083635406
P 7.167798037993334 4.079715743972618 1.4362080814913474 -0.8952617203041743 0.4806610511341787 0.8998830211262694
Ni 3.0026423622506537 2.021340420363079 0.3155118657633867 -0.04806445960739464 -0.34357805810453085 0.09762838657845123
Ni 1.8146100416261954 1.2740462250647615 7.000571556052676 -0.028647488533363567 0.838450367742085 -0.8885560261492245
Ni 7.116450260700088 1.2272082330376883 9.144449675105685 -0.5343179172276863 -0.888802594942392 -2.0542345498829073
Ni 3.0075894600274875 1.8335420290668214 9.077097170990038 0.12970444117738952 -0.28032429235120754 -0.05766727280448133
Ni 6.651450401709661 2.094490048448154 2.2745279648156695 0.37870729770749617 0.5599847258661711 0.5933422182806942
Ni 4.235608543345356 6.645309805205819 10.361946837203543 -0.2879836086686782 2.3729536399622297 -0.863333761247326
Ni 7.42348919656945 6.307740989686053 11.445606327549585 0.22852247718856772 0.9613886938402346 1.7207475574657911
Ni 7.7402674464782875 4.1618302785262085 8.242910801959177 -0.20525579335114327 -1.1506943916200247 -0.2311439739718148
Ni 3.379423532892871 8.779586181446666 12.486449278831156 -1.1448014231743573 0.09094634657258531 0.11255852552572228
Ni 9.140742540510118 5.494704146951953 10.031440618730926 -0.5039868703443127 -0.7188706737035232 1.0313121583042497
Ni 9.001230738932492 2.5824579249255004 5.584818767247417 1.0418973900192636 -0.11914697737651737 0.5173213826696896
Ni 3.7672832871384574 2.9647601660147913 11.609819908505347 -1.5147073205401398 -0.47701754084432046 -0.9663084997393552
Ni 1.1783476706488158 3.8508828620928286 13.006690818595159 -0.06579581544888669 -1.2940125669261069 -1.5663389286735023
Ni 3.250334346152626 8.353534467936832 7.951927612705124 0.9550702078213743 0.24082597714626913 -0.4029170621844803
Ni 5.972468064847249 8.28320914981643 3.379709608160261 -0.4298370265037758 -0.915465963166191 0.14889515517322743
Ni 3.4329669834167205 8.792559785929557 3.88220263746561 0.06594391099097675 -0.6534708081414746 -0.9498819787522158
Ni 3.594654173555695 4.706411903779325 9.383082001495165 0.19563009733592115 -1.4976912455981173 -1.3569102348915922
Ni 5.272531170182413 4.604973622660976 11.643395487578944 0.7625886834167641 0.8427592795300841 -0.20952202482666496
Ni 8.154356840686127 0.13104160488679276 1.9383011520629898 0.4356171235206627 -0.30782712575716664 0.13701203058239628
Ni 4.879806314255742 0.6436465749334083 1.451688944368687 -1.1737463883434818 -0.5733999708308124 0.2618748273967683
Ni 6.041080575634234 5.933273931079409 0.5115444872082666 1.1351569581060579 -2.20587487190144 -1.8671371726083457
Ni 8.606401316548272 0.14890946521814774 11.112806951599197 -0.28010497725154987 -0.22562278704326946 -0.19150759052711533
Ni -0.05418575327388011 5.0814347137016 6.011305971132448 0.5224070247227132 -0.662551173176188 -1.2178752603418963
Ni 7.254914334387592 6.269968121577856 2.861641876001326 0.5708350383171137 -0.7031373221286665 -0.6254383274842906
P 8.84189410353831 1.7416608484418394 3.3054502995793875 0.6570448986459781 -0.06213662142974461 1.2338842341756426
P 1.9288397136813296 3.5592683029015126 1.6728670351764774 0.7268074120520966 -0.9739361914879421 -0.2913741224074659
P 5.092977941847544 1.4747453354254687 8.079017916844565 -0.3935083672760707 0.2611888570733373 -1.039466669090584
P 8.831152614995242 1.8454405736276769 12.463180608993158 0.2994682122695101 -0.003541951714987449 0.14418335151985492
P 6.876684566053815 7.713190513526632 1.183085222847625 -0.21684221263716202 1.1231679040649818 -0.08269901896212853
P 2.0332845183104613 3.823678379658898 5.804089993295187 -1.609445272944673 -1.0118846457072572 -0.20210490642698742
P 7.139500274282756 4.00762295445497 5.777594321555616 0.79138478171285 0.8603397116160086 2.6252318248094983
P 2.703338391413578 8.695111981470975 10.06314942002465 -1.5328996751784505 0.03590776964020268 0.5627175514163019
