# total energy = -340890.0609056208 ev
CRYSTAL
PRIMVEC
9.08890803524469 0.00000000000000 0.00000000000000

0.00000000000000 9.08890803524469 0.00000000000000

0.00000000000000 0.00000000000000 13.30253563048379

PRIMCOORD
 96 1
Ni 6.640528883845979 1.9541879341461914 11.522390422730135 -1.4657807700427659 -0.6015630635285898 0.16973317496450122
Ni 4.488529955696039 0.43165223715423495 5.975286257402426 -0.4154900137534844 -0.6234583209397844 0.18991762033217616
Ni 2.775416217697404 1.7705647255513692 4.798224498454002 0.33999136919453704 -0.7171464919235649 -0.5952615467905942
Ni 3.5532904100246747 4.73877486002912 5.257986910312097 -1.1294395960063066 -0.4414656118816397 0.4366409367994867
Ni 5.204926774220638 4.489602446841622 2.5929700226903174 -0.37392530293782056 -0.21298350101270416 -0.5616885959311553
Ni 7.303101189115193 6.111345392581497 2.728110269269233 0.35056940182069946 -0.7933169657385564 -0.8601196251854026
Ni 5.01501404128054 4.86024811562828 11.404117371642498 0.7685765255690827 -0.4508272556021978 1.0934914600464716
Ni 5.492154445260264 8.03300412494771 12.443617598917234 0.48823372127511394 -0.7067216970458151 1.0251715926241505
Ni 2.0745159873356607 6.478282786898685 0.6327779559104711 -1.0933014555228524 -1.2786895634157913 -0.46901883890956
Ni 2.787113642310656 1.6804936471385254 0.3203531051852822 0.17917169466958174 -0.914424152165238 0.2936729457439716
Ni 0.8460310046289936 -0.17197122852163682 4.544438555558899 -0.936956014719167 0.10537589173435401 0.1980425634321557
Ni 8.589590673872609 2.373595594424767 1.2700640101955911 0.2881504732638457 0.22309950640078352 -0.2691695612859687
Ni 6.515292820329271 1.0615208336096151 4.929800075310061 0.5371319896377137 -0.28927173135248246 -0.8127768742353809
Ni 0.7611515104734067 7.037159740642961 2.529011376999987 0.033516386589890666 0.009381698325216101 0.7204804413928043
Ni 7.383828870090256 3.3758931034190347 4.012989199526674 -0.2524211381830363 0.9338359810329466 -1.148255186050913
Ni 7.924691608151964 3.8372278963634483 12.305497099400721 -0.127499977326903 0.4774759685379777 1.7031439854514152
Ni 7.9423604453300225 8.877091012152638 6.669638838431312 -0.5709229700452296 0.39160626515735136 -0.1420688762800134
Ni 7.301056184812177 0.29327724821334855 0.21745212422071564 -0.3654614884411835 0.4686066910728059 0.3304646606510244
Ni 1.668123643332281 6.7248830391183905 9.385138247831947 1.8568697292440668 0.5324389550374186 0.8809661296171085
Ni 9.149167473533916 4.864665324922794 1.3480786521286532 0.7422743973394442 -0.23294117508155365 0.30635594052827886
Ni 5.876033564114441 2.295094695912988 7.07015156784082 1.3430450468737258 -0.6357350814246083 -0.44944631609427105
Ni 3.1461436866561825 4.125900703777205 0.4638606004813384 0.1619437608270695 1.1033688670611836 0.23035721640446136
Ni 5.939065141187405 5.479738996913953 4.565576628925674 0.5279973743262971 1.1960903032563206 1.609138797447848
Ni 5.181222902121679 2.648435083842122 9.616841779817682 -0.28219322723914625 0.5943637175666732 -0.6197014250005134
P 0.4464698838884892 5.5706826104960845 12.558644092062485 -0.4589141463753903 -0.7512447191588546 -0.19999737316568136
P 3.905712818244455 6.240126130223433 12.980707531262578 1.4249061433155912 -0.6992513568106989 -2.0412183401288977
P 2.409405891997583 8.351624884265638 1.566214262231977 0.21704173024247783 0.8374808047399642 1.1528134948455564
P 6.339631495154192 7.937516057358878 5.548593837351106 0.5064561578204116 -0.7092992279650043 0.61903088129605
P 4.744155493573056 1.148383527493727 12.79244988847172 0.7089798969523725 0.8562192616897318 -0.22699729879329292
P 4.283629613441837 6.354809971536578 8.335315747726385 -0.5116950376218478 0.01288534060310039 -0.02069378090392565
P 4.672716676587693 1.1570543457385156 3.7103967294903875 0.8947045622491236 -0.923693493282306 0.26122048164222106
P 0.11382766617828206 5.231602719239983 3.776150434513366 0.6793952413167202 0.2296913006856883 -0.029663588502703748
Ni 1.24298997100526 0.9851103839409189 2.456272846168706 0.21551912295036432 -0.7538003957011727 0.33161908597044176
Ni 1.9599412129186768 6.52532697477607 4.851275545637446 -0.25922684825096004 0.3469197208832541 -0.1927797723713196
Ni 6.354809971536578 5.611210051327857 9.153807361074762 0.07431490866349137 1.0111012305740135 2.1826254144551958
Ni 8.760580300328797 2.630239089999285 10.199319901000367 0.0009261113586951791 -1.615758873867527 -0.08323766507441795
Ni 2.3807667428473436 5.487700880333696 7.362354507126984 0.37413844738989116 -0.0064989774607823545 -0.5805029004241808
Ni 0.7165586010872375 9.409746466278241 9.073340531759683 0.045682846749095514 -0.5864763443987964 0.588854871933302
Ni 1.6614796515744819 1.140885178382668 11.480673243839409 -1.59619817812678 -0.29190942608564563 -0.05092609742590584
Ni 4.331237313616052 7.015528139571057 1.761149525740283 -0.5463709917374784 -1.0240953288408363 -0.8476117225263788
Ni 5.768966227716529 8.077303462605048 7.7027004832693535 -1.1836489921691744 0.34518602602159904 1.0027672567870214
Ni 4.938630858335884 3.0826031307344675 4.838358389568795 1.1228814831728147 -0.8338478359730671 -0.27642829973091104
Ni 0.7162677560308085 7.622430883258165 6.761665849848641 0.9337840447490885 -1.0118836172659929 1.008510844139018
Ni 5.242200385983613 4.499436645312126 7.561387050367733 -1.2911817823455312 -0.27052221865912124 -1.3037135962639548
Ni 8.185906824457225 7.554818496546445 8.962995735132138 -0.03700845890354917 -0.2665544922606248 0.2055913223136911
Ni 4.80964107580964 0.5119981839927356 10.7793903704503 -0.9072314910715409 -0.6424582590810548 -1.2656301591286718
Ni 8.37829174037697 6.965848168369785 4.8872848902957555 -0.6211178457320659 0.2127230482624659 -0.1368179122937192
Ni 7.128421466005561 6.295659358185338 7.103274275314073 1.1456470590041044 -1.0333587564206332 -2.089226749687376
Ni 2.469919841550834 5.024230194006133 2.8091496997891565 -0.6464267568104997 -0.6747716265017799 -0.11899759628284667
Ni 2.467465836387214 5.270984957662066 11.44774958345165 -1.1123402173218584 0.502083996894645 1.3098906716089442
Ni 0.8148369634361862 2.881865508350404 3.9789476034532676 -0.1653466158610314 1.507603876726139 -0.888227182054896
Ni 3.6704373454094523 2.5300338791514942 2.5341729678607994 0.9836387634876865 0.8777766761455335 -0.29297694811821157
Ni 1.14449347486399 3.3783834642147075 8.048898807281555 -0.6220807238659674 0.10068234291342659 0.419915910735322
Ni 3.395316099843681 2.6718662887006803 7.159597329382342 1.7441229989669382 1.3822787955633677 0.6040238663642565
Ni 4.303170765670657 6.845483759548262 6.1302739524102146 -0.17172346592165263 0.6296783337075672 -0.3881771848711444
Ni 0.7169094329365548 7.408677944598906 11.48379982819602 0.6841967764704217 0.20829046641240898 0.15212651762633156
P 0.33163334892071916 5.868526126095368 8.15605067052399 -2.1465525799920386 -1.385296756454085 -1.5655897092123037
P 8.450230447303069 1.416824425669645 7.936731684597321 -0.13801193260182038 1.5861937586159005 0.08011351762313944
P 1.748751346319197 3.4955940219555792 10.120462717294462 1.063734540499013 -0.30340379987849037 1.2864872050833391
P 4.068104337719963 6.227819748773283 3.7174597199076045 -0.7772784242184549 -0.2567917564469061 1.147774132649436
P 6.78555150010787 3.8673212707958324 10.441838324631252 0.8197083112478915 0.836450820813553 -0.5026190434625085
P 6.394128587602569 7.6800454711551405 10.277911688592278 -1.0984462329485856 0.27816585124730797 -0.1714414159048596
P 2.490815241073652 8.618202556298808 5.943466899338297 0.12341835105836164 -1.2845827889717747 -1.6289188082882526
P 7.088466626378633 4.168145948223512 1.4779246097897603 -0.3244526501289896 -1.5025146351286898 -0.0938601777852706
Ni 5.270630490249544 3.127247846896313 0.512725296633808 0.7273594279008248 -0.7027310878291833 -0.6475230751984719
Ni 1.6590074685948357 1.2150597566800665 6.871211731461808 -2.225040646196613 -0.4160682548544576 0.7256190481709502
Ni 6.708941094462878 0.686287992948592 9.092575387788452 0.2561901183071652 0.1315810893748121 0.45009217720838607
Ni 2.846427856006138 1.669850535854828 9.525720023638486 0.39454683584291406 -0.44229890641621245 -1.5593961788070823
Ni 6.456605741286714 1.5429057576315997 2.155223672713095 0.2653946676245687 0.6196533453713973 1.4653364834164957
Ni 4.143751319115533 7.015773540087419 10.666877869261558 -0.25904378570587644 0.39533256496900304 -1.0148218739587103
Ni 8.264198678084696 7.125440304177165 0.2591229496805751 0.4376194986626722 -0.12968644345526054 0.3507894882513055
Ni 7.811843726257527 3.531286163724221 8.076780850394277 -1.0548362095681187 0.9926108850793098 0.4952772583854568
Ni 2.9558401306715076 8.445740526744448 12.693518942527408 1.7675989706016915 -0.22386543803253056 -1.1845936154706307
Ni 0.13712526408904321 4.95740854229158 10.363141105706383 0.011913977828766579 0.506754920007753 -0.9290581000283289
Ni 8.44894891127318 2.312445421310578 5.908294643108022 0.37490900700732854 -0.3546744251280085 0.539731889154406
Ni 3.415257164025092 2.9113862815779434 11.588876693738994 0.9819114963839348 -0.21207024516981543 -0.30425226392171467
Ni 1.2026806639658087 3.241095508672225 12.605123858752236 -0.9676439307213272 0.4850141858965518 0.14694111677065017
Ni 2.9631748794383252 8.45143018316084 8.076195524718214 1.2013443525664083 -0.3323418230690793 0.21484240859831388
Ni 5.6943553818344865 8.024478729231138 3.5069742436791635 -0.24890052662428747 0.2280321678157105 0.1392925990864569
Ni 3.1751009475868903 8.45882855428375 3.69419393317489 0.4114569813346914 0.07158619687841866 0.030611040017637602
Ni 3.6459154715892854 4.593734065951204 9.579515452388229 -0.20914767220638175 -0.12067344132337283 -1.8492878031317506
Ni 7.400098015434251 6.053476315260147 11.413522573654769 -0.6676170177348696 0.8594421395024038 0.32688671349177895
Ni 0.9158529048787725 9.021122937441067 0.23193620803087792 -2.5092434476666208 0.25417745875251063 -0.22523737867939275
Ni 4.580591504963819 0.23381942977125544 1.4518258104292678 -0.36827067575520445 0.3269836440809594 0.3276122788038938
Ni 6.006922928415486 5.673523604667763 0.31665664629623036 0.040662253606052544 0.38090739068260854 0.05038488021045516
Ni 7.9761893609559165 8.805652195167275 11.188403955524747 0.2768065090059362 0.20344316562243672 -0.0005697564605409543
Ni 0.014145067541262268 4.8200296976689625 6.1396791544224865 0.2157037281573446 0.07510372311337388 -0.21131125551660385
Ni 8.059162002210291 8.518442701943675 2.6272770148777163 0.01555208880198612 0.8787943187767704 -0.11003833020702986
P 8.35170668443776 1.3263352574881844 3.6473824213426487 -0.18801191866903105 0.2512903670127027 -0.11677693448244404
P 1.792278126795394 2.93040936605 1.7961081926322429 -2.1898203895417385 2.0125772793534367 -0.6303316510208499
P 4.564758627204467 1.0291734099899066 8.167530870235723 0.20503185026579532 -0.4903260850277685 0.9270354131713454
P 8.566486669702535 1.5120580038341032 12.25235334535554 2.0578441216110366 1.090855050864889 1.1118221400348591
P 6.407207526233858 7.720572911986913 1.3481059188526934 0.2397067759401614 0.009172924748519688 -0.2428574057540011
P 1.7293101720785238 3.3175241361569476 5.956436771073426 0.13772654015091765 0.863275654315881 -0.5776752011673987
P 6.799248484484071 4.1419971598689465 6.055407708212996 0.44392332939351287 -0.3712456992231284 0.30711930105686464
P 2.4145865695652238 8.590381408869776 10.254991280364074 0.6723517042063776 0.08889769157367271 1.3771538156319767
