# total energy = -340860.5830397419 ev
CRYSTAL
PRIMVEC
9.36395739636594 0.00000000000000 0.00000000000000

0.00000000000000 9.36395739636594 0.00000000000000

0.00000000000000 0.00000000000000 13.70509817290485

PRIMCOORD
 96 1
Ni 7.085584827561969 8.128467490294687 8.233337258322042 1.315812693520334 0.4594455933988281 0.1362288725594686
Ni 1.335028769425585 2.169207549791219 9.165242980015925 0.4245099578639076 1.1772155778390048 -3.248065110570774
Ni 8.847141856222148 2.8938467565777906 13.47810103068664 -1.4981144491784653 -1.0637137145634068 -1.4921042384286434
Ni 0.6463340494863878 5.7255449279406525 11.940032636720778 -0.5818259901109786 -0.2812498894892705 0.30503259373116504
Ni 2.0350501322269148 2.811958949179184 6.855413136476527 -1.1620067313090503 -0.15117520945665577 -0.23182531630955558
Ni 4.525207321650751 8.74848320113333 6.172323681432562 -1.0017552705827393 0.07998470535475903 0.9247761848235234
Ni 8.022870142777924 8.044285513334884 3.260374522423327 0.12402513140442512 -0.4998270825396683 0.3418649320681661
Ni 2.6957335100217787 5.954737149082824 3.294075405079426 1.653446618226288 1.5522567395488234 0.3860848211184899
Ni 7.300712384700401 5.459477442586277 3.1186088894775064 1.231565356234479 0.8123264169615235 -0.46479554485683183
Ni 7.316846483287914 1.2526446722851685 3.8158004643547816 -0.3716406206687019 1.4823942102297307 -0.5022449479525415
Ni 1.3614257653154271 1.7171250508321192 13.475976348754251 -0.1811722700393783 2.392393750964712 0.06766217923366412
Ni 1.8099780523375029 2.054892357941912 4.289599853298884 -1.0213853861088409 -0.10457165066550378 1.1729053804994252
Ni 3.1117179532322647 6.235646506904527 9.449747161080662 0.9309530030581967 0.5406801120002882 0.45290162163272324
Ni 7.012283769092411 3.289043214376623 7.0250281151037886 0.48259709181462696 -0.7871491463649475 0.3402096558529302
Ni 9.13535510081011 0.16377374200573463 4.842121095647142 1.8904974446008411 0.45616435154439505 0.21671751413383966
Ni 3.890190551069104 3.240781377974974 8.854123622854098 -0.296994811028353 0.2691788172573493 1.80315501332943
Ni 7.874479509976813 0.9057681074238189 7.021546595745206 -0.06760098697842551 1.362318550391357 -0.9292365345877223
Ni 4.297532061606186 8.31987614335757 13.028353902701264 0.1802405022537283 0.6423394741150034 -0.26652338191237324
Ni 6.370309578168034 4.825443887530857 5.333380519545555 -0.9431737134941047 0.5612785049769302 -0.17435396156596422
Ni 4.817128693366196 5.750790157071201 12.820311115726101 -0.9010361608941063 0.10144081834600593 -0.3594985859895293
Ni 4.607450959430278 7.3945860575615825 4.373515893868736 0.1391074796588443 -4.121669143395857 1.9133584083594146
Ni 3.150643924113455 4.978366675710005 7.397436446191901 -0.2031731997905017 0.8475970672383596 -1.7644995057407613
Ni 3.341912117815449 6.092537146072864 0.9868824519417937 -0.5984651413295564 0.3194495404874434 -0.08757280211466209
Ni 6.727591372484081 0.1342548027211872 13.185305065350725 0.28738299897020186 -0.5664276532780373 0.4786813016999885
P 4.338948845153817 3.718858222656033 11.364746677555281 -0.14954590138334892 -0.18193614478859635 -0.07311317504590634
P 6.6719132818274645 0.10075899073198702 10.600454856793851 1.239881075189026 -0.2985349018219633 0.7214626028004155
P 1.0417496238882082 0.6085130255775288 2.961438610225059 -0.5730042780542906 -0.8460803734835171 -0.8770806785197733
P 8.37982419858523 4.2976631570096835 11.867860871512772 -0.4727435960593148 -1.0565333947648836 -0.3058980270552538
P 1.4939913101229827 4.31625997639146 0.8494270485838032 2.441010483531151 0.566068984387038 -1.198591729521936
P 6.846644726774063 9.1936082797497 1.9528392682982625 -0.16744386470969227 1.319625896618837 -0.38340701717601067
P 6.009347748596681 6.99804118989821 6.576610669068167 -0.19897818787254765 -0.253610273395131 0.26383580777788107
P -0.12506033295735736 2.549346764102692 5.81492202846189 0.4320551172010172 -0.6923420312853754 0.9089710994704668
Ni 1.13633495751123 7.724122446123248 3.3040798571577192 -1.2597580166186109 -0.10180360100206338 0.11200059613972323
Ni 8.663233733030767 4.43907764155328 9.597324065984354 -0.01760820000006645 0.5618348917010324 -0.16569602878065015
Ni 2.668016196139575 1.7648625056197802 1.8762280508904066 -1.3034256327098908 -3.9632699053869365 -1.6131869993752925
Ni 7.136955497817973 2.3822094886015224 11.423473672738941 0.06527285306588114 0.9187898853331015 -1.3819466090349297
Ni 8.723771717574163 3.7679534512656265 4.1197386025921965 -0.41789476654023516 -0.8845584749540573 -0.5889911404008501
Ni 2.792444461972929 9.129043793527472 4.206423565363051 0.560070600711758 0.26856766603591165 -0.012781725145700569
Ni 5.262150768451247 1.4567695794872524 9.947270136079009 -0.5550937163224569 1.555801005256656 0.41825857763755714
Ni 5.392019493529723 4.924870387125872 7.783495554367 0.06994300484804084 1.4558959068288861 -0.08129982462175675
Ni 8.879625424417204 8.175540104107471 12.450053685651078 0.649968708525487 -3.26022617141334 -0.1811804975694944
Ni 7.562893827736832 5.752588036890587 7.671072818306744 0.13870844444821273 -0.06716389944100691 -0.5058254662149483
Ni 6.651752681561118 7.145916805042726 12.198770952623937 1.1626705901452943 0.9406167514002058 0.3296851021725225
Ni 4.388371812272153 3.1256327939177226 6.627771586678576 1.1277241559770965 -1.0181213706455887 -1.7109503688697116
Ni 9.237665699282056 9.163400153201055 8.446260539890247 0.8142562869943848 0.0024908847426537745 1.1505745782127088
Ni 0.46982907100962457 6.434218587372778 7.930304614764493 0.08232595189342595 -0.7897665293831366 -1.0961967747927768
Ni 4.772528164305068 1.8816591461781356 2.241441117118017 3.704572961497517 0.5030502174626562 -1.0980335708911992
Ni 1.210656687336586 7.434167505460257 9.74781971640733 -0.7026107602012351 1.21230496534297 2.034143435559987
Ni 2.9351699005514957 3.6516156446195103 2.627609783594609 0.04257746835089441 2.9244102737527315 0.6640426701200499
Ni 4.989144590668929 7.41957845984253 8.596756190313222 -1.2415780032754746 0.10284309801017127 -0.13997188454166862
Ni 0.5883271426262221 5.36586596053209 2.550806605060204 0.013023151732545313 -0.22631441379365538 0.2887803935383607
Ni 5.994702519234597 3.740095678022533 12.909119824033606 1.8071980730505521 1.0322850637404801 0.38171625973714907
Ni 6.62089844195238 5.873579730360843 10.108496881673947 0.1133141727448242 -0.07165638799472175 -0.7545948665780101
Ni 7.002826172125848 8.70930440340254 5.450462760804386 -0.6105806936461678 -1.0426327255233916 0.3107466133968068
Ni 2.201194828244465 4.326700788884249 10.647121074855793 0.7373795311409882 -0.39914473962624164 1.2132873838608975
Ni 2.4378782153007466 6.929974583611135 12.48174038107202 0.4452747012150847 -0.09517812526574576 0.05254409264530306
P 1.3131545649563858 0.33858290779869143 10.043507271786094 -0.7678681866481485 -0.7813374247791769 1.409495722297792
P 4.941594415029121 7.1276383602123 11.01650016572739 -1.7581684213164106 0.3132567814131702 -0.7784660167686529
P 3.2091873857322186 0.9038054219543222 -0.1487286716629855 2.801686377658233 -0.46305645067853796 0.2593433192241662
P 6.448816996947898 5.2949433472402605 1.0593126623738374 0.06895390146189416 0.357716554388442 -1.9672050218662251
P 3.838744969153959 5.209721971009876 5.272406174587664 2.1716115798431956 0.8045963953071176 0.017183967978454277
P 6.714079181966507 2.040640414790319 0.532257638550593 -1.7358612731787784 -1.345936509488908 -1.7424037022829864
P 8.628521542976262 6.7725570958835215 10.66607466101423 -0.672798561935809 0.1354104904232313 -0.6395485416334277
P 6.2233890866775665 3.751500978126764 9.295290556680602 0.9414441323975077 -1.2690381563689563 0.18880793220776515
Ni 4.2042389541033485 2.0413239836799812 4.359591689225885 -0.3406647411124778 0.7129591933150947 1.330763401292895
Ni 0.12886116326302854 4.961792471125038 5.973394834187653 0.12647462138618218 0.09461685344563706 0.7636760029436718
Ni 7.756961844699225 3.1992990467255944 1.7712328058339908 -1.4058002757240757 1.5272417055617247 2.474787065760964
Ni 5.314720025253509 0.052993444072148 3.829697513521193 0.334668671430043 0.36346554105707723 -1.291647152017724
Ni 2.5095593091413795 3.6887718275534915 12.712890605704992 0.440864487962531 0.00845970073157898 1.8636618124652353
Ni 8.843770831560798 5.056939642191618 0.5591134683526747 -0.19750597420239535 -0.7691794492604044 -1.034046269405961
Ni 8.608492038113413 0.7660101069429792 11.745749248738354 1.0060071038805578 0.7687924982346308 -1.311260041152645
Ni 5.032958547309075 1.6837706345995476 12.286963512535005 -1.506893738032992 -0.823898180959523 1.2665565275976831
Ni 3.1528163622285468 8.706317300994288 10.53346416921119 2.0521666116102852 -1.0310984996315469 -0.6774658855044914
Ni 3.374105403331334 0.9057465703218158 8.250414307418993 -1.8549362596667796 -0.08602936888694217 0.2902834604464484
Ni 2.163907549906986 4.272783122217448 4.7130464341555625 -2.1790698358934537 -0.7398110234006162 1.1532498110520268
Ni 5.754648107516966 7.547387114294626 1.2313294960723098 -1.15778292303569 -0.9748497044411468 -0.11801414932365482
Ni 5.48783150557118 0.5614675672411835 7.978656345157112 2.3692646211464163 -0.24227119423322793 -1.1513572220150043
Ni 1.737501022118496 9.26932523922656 12.30325867118967 -0.5477231348899987 -1.4198714091051612 -1.0221803712063104
Ni 2.4459874024027695 8.596515536608232 1.4653357277100365 -1.3327331234247561 0.5896223462269459 -1.706454537881887
Ni 1.5944197531590099 0.17296633897808592 6.617767134600283 -0.00669309574945944 0.021039080058486346 -0.4685740380626575
Ni 0.5549390161470373 2.8673842129861997 1.915986477583802 0.5033770046744556 -1.6832598449329785 1.8753315354936801
Ni 9.146170471598603 0.3459542150581749 0.497089423771068 -0.9640842383945267 -0.9190379967881656 1.5319923328728324
Ni 0.3705402215882814 2.688335983681596 10.99498366443059 -0.47383888600602264 0.5183436532866169 2.6421962205779788
Ni 7.940008483810484 7.017068751320047 0.5772889096517823 -2.4876816623354445 1.8490720875765188 1.1041869920871048
Ni 5.002226039146442 5.1570028908893315 2.617838494055393 -0.6954402105947249 0.41645751987307633 1.4873919205546384
Ni 2.940563540009654 1.8170010203819804 10.820229745986248 0.47722965685512647 0.33064566631357895 1.1260884201458865
Ni 2.2086298104142186 6.630037664367594 5.829093441579905 -0.3398070210978728 1.1058700362164826 -0.06590328756102844
Ni 4.411894073242457 3.832527301445248 0.8361489570010446 -0.5865681327816543 -0.35617440671230277 -1.021521397466073
P 1.7048301747755872 4.651068272965179 8.78495394238617 -3.0746961386258986 -0.4892619054293122 -2.0512865229981774
P 4.015208746218194 7.820533751437833 2.5135839380287344 -0.10772793690629832 -0.5670853414666943 -0.8598254909837515
P 2.697081919886319 8.095131801976901 7.810439405368571 0.6231125075645914 -0.7898788865912848 0.12773420482489614
P 5.71232302010225 1.282468876580716 5.890807539171816 0.23881357470193068 0.6032921304045545 0.12223641493511851
P 6.304181311061235 3.4601039880253075 3.471734023106962 -0.0556237600118913 -0.486182238062724 0.8738652569062693
P 9.141657044135354 6.284676187812373 4.262408793822146 -0.6056770856969633 -0.2216424622392828 0.7586006453032935
P 8.878127191234382 7.9731943488099875 6.635569890395163 0.010029873432176274 0.8787848056950737 -0.06292363610741422
P 0.5541365249984883 7.358525457642538 0.571051577632547 2.8811859158464572 0.46286541771365447 -0.39751106067756053
