# total energy = -381178.2322736554 ev
CRYSTAL
PRIMVEC
9.15450735692730 0.00000000000000 0.00000000000000
0.00000000000000 9.15450735692730 0.00000000000000
0.00000000000000 0.00000000000000 13.39854686864707
PRIMCOORD
 96 1
Ni 9.07977006708585 1.4640803790435513 7.40789610032442 0.7160830836560571 -0.36497272173022305 0.5401890312964825
Ni 6.390294782160771 2.132963621557127 4.816201940545594 -1.46620088829932 -0.7028210764398284 -1.2002886576083844
Ni 4.217344271991987 0.46896802392097137 12.255047599711197 1.2221648888561853 -0.4581955230418108 0.07468231930523912
Ni 8.697276436139823 4.426195205322191 9.78838936470651 -0.6072570285895735 -0.21319201747908445 -0.35334722167615273
Ni 7.120165353413095 5.953652239553128 4.768007120539887 0.4759016820723223 0.8435056707778054 -0.8698049707939665
Ni 4.559136962744003 7.879925391542035 10.242291815690622 0.550715127638787 1.432226331126088 0.06974040191893151
Ni 0.15033074435355265 8.349231216788503 8.64911091055801 -1.2674857242801718 -1.0601781906063223 -1.2409177439836565
Ni 6.333600917423594 5.183749007151816 2.150828642877101 0.10822878780211682 -0.15273921150966596 -1.0182388700600593
Ni 7.086559156505267 3.9389923179796176 5.801691077419873 -0.19435148773381367 1.0030570201132982 2.4559838170115316
Ni 0.6356954065969457 7.867008381507454 1.5605157915922951 -0.35430855714815757 -0.06421612966659264 -0.6393803914866796
Ni 4.018490060814696 1.8854898212277058 4.1351935528932495 -0.5561792360771518 -0.5128420067420973 -0.4003001933869235
Ni 5.741606383117276 3.647878980559591 8.118943173325077 2.4263845060878597 -0.0734708154956412 1.1921914824225468
Ni 0.21576075556557028 4.853738167508591 4.931884705041683 -0.3319726126551186 -0.1531539304495814 0.6169966244748406
Ni 3.8083117239019164 1.494116318039624 1.012252339451244 0.0061755326830925895 0.42102379908752 0.430715058233355
Ni 7.987472545253056 3.452027447831161 1.1235427712651285 -0.6926827024542458 1.1942157119414272 -0.9651584452953119
Ni 5.530228805726446 8.619838457484605 1.3818326221656745 0.7621091726771843 0.7952674045967079 -0.8407144811859134
Ni 7.884127310468947 2.1824437344110654 9.347831439255643 0.977993392276451 1.279726746431054 1.8478880945707463
Ni 1.4221710438640267 6.985978582975901 12.345595748508533 0.14030689928358417 -0.14960272276321332 0.8233034847983176
Ni 8.896551754660551 5.646216415321154 2.5375370090604896 -0.39847111059798473 -0.2953269364076269 -0.4933610151993504
Ni 3.607489293619428 3.840306727495722 10.235913870339033 0.5259122096624943 -1.8595971554775588 0.5271604802472986
Ni 0.5539603021371668 2.1888427351298265 11.300254441821291 0.2084017951792927 -0.7530084959274967 0.008986005548694201
Ni 7.997167168659592 3.5468589906718546 11.988591012700198 0.018974741330289903 -0.6975102057498761 -0.07612856483346245
Ni 5.825791233774966 8.080619658719998 8.224162335787485 -0.44067834009365403 0.1173016966376625 -1.334602058312695
Ni 2.252173617779881 6.883658653027988 8.190920488276806 -0.8675629688373252 0.27041191833350203 1.1686897997561807
P 0.133568841183236 5.410680092727447 0.07864911999297731 0.301901504301351 -0.4771604941800879 0.5264236020812739
Ni 5.320169477410723 6.17822146220252 11.581100999118156 0.022436217516329102 -1.3350733415221587 0.1764823207628767
P 6.5049366791579715 4.108286624549069 10.43114381201052 -0.6104433967373551 -0.14596692578283893 0.22661883240795166
Ni 1.5816151004000207 3.616680419115331 6.921166501017841 -0.5941132921187638 1.1425247113250387 0.48565439058371196
P 1.5255895147078646 0.5735005983234263 9.115125690370437 -0.9768212263452208 2.744363632677364 -0.618110940584942
P 7.210236552371448 0.5917620098166799 6.046482607061745 0.17151854899969815 -0.5733318365970383 0.24481735769384935
P 7.813848156652169 8.86325681100657 0.5784376241998608 0.3880846251573381 1.1087054487827486 0.6538297341427901
Ni 4.55112676871122 3.30438355141889 6.304954632660865 -0.22563667100034043 0.17079632612169296 -2.6833932636415785
Ni 1.6348668703299671 0.8736540118661664 1.9541916534080856 0.4560987884137822 0.7672470081243818 0.9679146678842104
Ni 1.7406563586075092 0.5207175391757409 12.309955420041751 0.139104908555683 -0.28239325906509427 1.1051791807970452
Ni 5.546084412657624 6.944334728512891 3.3559609619332984 -1.1315389017374964 -0.00864019217350125 0.33333092645522594
Ni 5.330385907742823 1.9402795484119466 10.073349042207868 2.191217269889265 -0.0966955903515367 -0.4526241996016205
Ni 6.618727206960831 5.878420497197222 7.102141043663211 -0.9412232746359533 -0.8816161044962816 0.941534892339101
Ni 6.408402397928594 8.071089816447852 12.551195916237546 0.052686017539806035 0.7864906868453423 -1.1393051759464765
Ni 3.7083902749101054 8.774915813959298 2.877297399155046 0.5090455158141426 -0.020434613705268036 0.34107688894923194
Ni 6.4459541875542845 1.3121613276446409 7.988441092142963 -0.9983470162321387 -1.064885623384321 -0.9506839058282206
Ni 4.792393812978667 4.277251368849743 3.8436407991148527 1.2421819554080606 -0.5768344504336582 -0.9159287617352226
Ni 1.5375178379361127 3.1048976792264438 0.4917883801323124 1.122402486653867 0.8837388072662393 -1.2330918201813343
Ni 1.306302442866376 4.424519930455906 11.76401812824782 -1.311014500800742 0.46533393385880506 -0.4980702477495616
Ni 7.566099721098767 6.661249894140581 0.7348515387645961 0.19401647299189814 -0.3370204594916712 -0.16903974844190242
Ni 2.2055222477329486 8.278357019986434 10.385749355838675 0.3984484848901654 -0.5419895748403311 0.8266418051429312
Ni 8.876842100086172 0.3231797461720671 4.149355575943211 -0.5141375856250694 -0.5917303937088841 -0.7517049466247248
Ni 5.348109034197073 2.7090110038576047 12.263127368000722 -0.9460983433400675 1.5873319859854018 -1.283841539930376
Ni 0.026961855388976847 1.53255609488952 0.38223089658174897 -2.2483032162689796 -1.819120792630067 -0.4924654999682745
Ni 3.0508586216544176 5.975504048874561 10.458691555877323 0.0644156472719084 1.8494245858199312 0.2439735216363153
Ni 7.823753333730423 5.994279943687407 11.880544938332278 1.2284568925124844 0.5720182599919374 -1.6175427052408269
Ni 1.8299402699237834 8.508446410637847 3.9229334809826923 -1.4953314871166892 -0.5222391316862812 -0.44945557206565173
Ni 2.263726606202022 5.484291487261863 1.1247960233372292 -0.5545748677045095 0.5758126940373632 -0.009215862171313162
Ni 5.416584750043042 5.684363247932137 9.180844984018382 0.36501565915301654 0.9091868150256988 0.9936300703724438
Ni 7.647446674441985 7.861021333624666 2.706412954638743 0.17535694890918185 0.19315901008760927 0.9547472772643171
Ni 6.30620147657774 1.696687259248126 0.509726637512015 0.61382414028413 -0.6921322292674146 0.8708709501646356
Ni 5.005272729593928 6.49567231760234 0.6825005723693078 -0.9507335281192337 -0.7054754833435398 -0.6931722404961546
P 1.734220739858884 4.84724762171517 9.164793470627428 0.26168610842472995 1.3504331118076807 -0.7411860493712719
Ni 3.3710375202791174 4.881696033309873 12.492497214365306 1.4539074156439475 -0.6300987090744374 0.6452803019108823
P 8.98247596173679 7.258865296031045 4.464503157264576 0.7117348339896904 -0.8174200294343471 0.057999716443235594
Ni 7.409768197101226 7.170112346147801 9.636905152412238 0.024638110263654343 -1.4935810800844858 0.09246226899647947
P 6.805131287984309 0.029413432488381984 10.016552646987071 -0.7504121959552302 0.19314975411622864 -0.5935749031167906
P 8.499996800246693 3.620452076191339 7.421951015637029 -0.2046839800080733 -0.04096590088940042 0.38112876266479523
P 1.5525312301804162 1.979231977679941 4.046830585028059 0.3365075244109947 -0.6507654933951695 -0.30975262491465366
Ni 0.355329460942048 3.190190225287525 2.6930546973442997 1.1556872168489258 -0.5578761641636005 1.2946126624039511
Ni 8.837953752370439 8.356142869925362 11.04896412732928 0.08320346940237283 0.9635401929655988 1.1365252992084944
Ni 7.447612930965829 3.93570584979931 3.550118910780511 0.05122511672356339 -1.6616700345773445 -0.21681187361985885
Ni 3.224977353658472 0.02395643058787638 8.06031129935734 1.1153010997223956 -0.5580674542388002 -0.6246973355532079
Ni 2.3289890899274113 1.621968169310319 6.070921480193082 0.5106246873758045 -0.9814049890611615 -0.19198144483974033
Ni 7.492177073310504 1.212807458115724 2.5442234613136843 0.9453136426552429 1.3173268161720153 -1.2568439282956096
Ni 4.062825340472721 5.744453434939214 5.4310745044602875 0.8176583706973982 0.5404973065655206 0.5897475589509005
Ni 0.0567002728924032 5.738484696071357 7.545860935992848 -0.41091524989860845 -0.09889568332664904 0.31841390013407744
Ni 2.667696711663373 3.8588171415920516 4.812919134168272 -1.139266095178425 0.1864890542666014 0.07874311963817406
Ni 1.9044304971749395 6.315557383208031 6.0135227183810205 -0.9245931222784398 -0.0630385644187237 -0.7664671925355638
Ni 8.663111814276569 2.247504818972202 5.239233561452729 1.511276697592036 1.4862089559901308 0.048451410633168164
Ni 4.536378857183432 3.95902238031531 0.9519735695903664 0.36045683613774054 -0.6147967886100444 0.8498107870602267
Ni 5.816774043920918 0.15644870169310623 3.5867506724058646 -0.4677309733360719 -0.15870828460890732 2.0505205913664297
Ni 2.9827399315996246 8.107826854909066 0.814809753325217 -0.6765886251058605 0.3985531287888297 0.19269544018762944
Ni 3.799807186465967 2.3642797162089897 8.179411441490501 -0.7502134496808628 -0.917617205181239 -0.038958640651384525
Ni 1.8122812250217952 5.9137752050310635 3.5865630050028106 1.3507444724005127 0.47798890361865426 -0.1849494776936234
Ni 5.657339141892391 7.7043602473583475 5.622284701903435 -0.3074201201267351 0.6310926975565906 0.2385829467483633
Ni 3.3876804148523756 8.299613786322574 5.546167718675565 -0.40225783133392656 0.3348915860741265 0.17933881637506535
Ni 3.203693123799932 1.39452443131659 10.251898555825484 -1.4162129864169675 -0.3217583911262781 0.8426901168550455
Ni 1.4271785594479498 2.840753520801366 9.259052856751495 -0.4751964284751816 -1.6682667139582559 -0.4570061307194
Ni 0.6523767501015614 6.478077354252614 10.139243186948413 -0.5201028020695687 -0.7540793603941722 -0.5409878730486941
Ni 7.524501639173088 1.1368799731924002 11.636115927186061 -0.3379743387645083 0.6210759367505369 1.1176552017768688
Ni 2.7440453039301347 3.5316258902483666 2.4064060132154594 0.13323353737657057 -0.5905913950084345 1.2363198402003288
Ni 3.6632493985950694 4.761149478997077 7.981313392629906 -1.2629554405099863 1.2348224297191959 -0.9916066121845115
Ni 4.834001049411812 0.8468340513429132 6.307982028279884 0.10372807171828587 0.1247373269801013 -0.34602626253470725
P 5.501620969895074 2.374761627257604 2.549368294509598 -0.04279395523707469 0.14504055731382762 -0.31586979355598505
Ni 0.8315835573552395 8.7695512725842 6.0689120658042865 0.5699546925946894 -0.9291128645256644 1.3018472324791772
P 3.6834350875576845 6.512946873190756 2.4787980273553996 -0.907939572882159 0.16012933332615 0.004018634241089853
Ni 6.422042614052992 4.682402405774213 13.119173600206711 -1.0870513608480827 0.3201763913511389 0.6808736256344596
P 4.103059400785961 7.109253180513576 7.245907090712867 0.9191328704948171 -0.49674304429770577 -0.2735242387102386
P 3.619545779952201 7.5237875875907365 12.353165610732198 0.732882414601583 -1.0719651559389216 -1.9497927399270485
P 3.1060877651970284 2.454698786451053 12.285824138361273 -0.34864287422194795 0.6832539529411781 0.1983305269862197
Ni 7.765667983858408 7.674525707526527 6.447515031077244 2.183958788554639 0.9787138153822434 0.004624643256204938
