# total energy = -340857.2282517644 ev
CRYSTAL
PRIMVEC
9.38084221353105 0.00000000000000 0.00000000000000
0.00000000000000 9.38084221353105 0.00000000000000
0.00000000000000 0.00000000000000 13.72981080956490
PRIMCOORD
 96 1
Ni 8.58658521645546 2.13505158293342 7.636301193041501 0.23872667141507917 -0.8910728790338074 1.5483517480674625
Ni 1.3126049890392926 2.5855665381849278 1.2388528062555892 1.7044089682067676 -0.13046291660996887 -0.14619446841261274
Ni 2.4784279373743616 9.094088789159397 6.294458932559576 0.9853398053391934 0.3317849221243447 -0.4035027594846212
Ni 8.319390682974383 8.868610861737736 11.616957529220036 -0.6464023313304674 -1.8501768906049234 -0.6764449004391447
Ni 0.7115941175857142 1.5885424676175977 11.809120333016914 0.8613604395710391 -0.3093926704720736 0.3072838516591869
Ni 7.7323938519507935 6.355004765442122 12.116476128890968 0.4783653131214665 0.8392638647823158 -0.24147363803259703
Ni 8.345657041635585 0.2933014178218356 5.974527179392233 -1.608724592728565 0.1336325725872021 -0.34484201241861906
Ni 0.5243618845432394 4.254005640344475 4.315787868252573 0.15638940666774356 1.4792806043014135 0.5655092552288261
Ni 1.371873151189819 8.298715306371065 11.416021761630319 0.45985105636736284 0.09723835022888415 0.7458937392595864
Ni 6.420877040627466 4.542063167276448 12.681773195323453 -0.49505074419694745 0.7772488565321002 -0.7267570184301354
Ni 1.3533928917031877 3.4852925115972635 12.701517054278536 1.0694215635814615 0.8672246116613 0.8548162106946181
Ni 5.726281947516738 9.23307534984667 2.6194970450697737 -0.45839066977175247 0.03332046852900068 0.6619328228658988
Ni 6.955594437072883 8.06793720300527 0.7798838358521255 -1.0978505083461156 0.3994851536847958 -0.16249114869010725
Ni 6.2219844205078925 4.574323884217832 9.92315262926767 0.7406731142905953 1.4019371932242437 -1.3902985805440509
Ni 6.239160742903843 1.1104947399837226 4.977646635713302 -1.2827066549949844 -0.6249691011573559 0.4054513985705598
Ni 8.24505688796318 6.522574752858212 7.320639599325078 -0.12352659450145179 -0.11681267281638592 2.20609598677331
Ni 0.5812285510447417 5.456301303849099 0.5908542334098343 -0.5290803229778308 0.09462688074796606 -0.1851474526370424
Ni 5.643927532271491 7.026335369452928 6.885857254827392 1.0955933368808226 0.9476911417484841 1.199410111658173
Ni 1.7179042840240173 3.491418201670751 6.445583365201039 -2.7148522534818085 -0.05327428594310825 -0.9748157658794179
Ni 3.8278058285393364 3.2526851439675624 5.589639659339976 3.2070159059389476 0.11219214332523904 2.25293814393783
Ni 2.011534031329118 5.535691372902582 9.897106720402375 -0.43977356889119745 0.1627318039460036 0.8847237968873279
Ni 6.642574488570388 2.895481427859974 11.12007588434184 1.5140280350849278 -1.991688608829886 0.47598215760127055
Ni 8.16895011374235 6.722715025014192 2.58219318726544 -0.5375549361077452 0.3656496931925896 0.27179260073111255
Ni 3.154786672900311 0.9955512783138272 1.8726365886444443 0.09313229848031057 1.3098312791259183 -0.23184974178958778
P 8.81703499033799 7.568369822953967 -0.010423992051545566 1.349581819550979 0.25624359725291995 -0.498273107788987
P 3.3387637536372723 7.724298184977716 12.510164755263203 0.587405283970969 -0.4625692266294743 -1.014662722673027
P 6.307781604906233 0.9644819283545769 7.506033187261269 2.9581606307302986 -2.220893199687143 0.4190813306491686
P 3.6277312222800098 6.446843212332539 3.829464361471944 0.7993186918479459 -0.40961607147121065 -1.048150570017827
P 6.989374850479665 8.269090606138182 4.283659421188734 0.16286241598659693 0.09799039790356028 -0.09859923513215277
P 0.21811302806990715 5.104407144528024 11.992289723225042 -0.16145165168199935 1.041893790474838 -0.6963318691710588
P 6.781110768823471 1.168993673059171 1.2417552388876518 -1.5559776400438363 -0.7850267007053061 -0.3010550971406557
P 0.8092308631505913 1.4251000508482687 5.993034643321764 0.159929301500202 0.7176170038020803 -0.07630879916506858
Ni 0.48517153933648827 8.084850861814608 6.5028093179656565 0.8216793189313332 -0.8390044404733422 0.706957467205705
Ni 4.505965685802055 5.889949504503163 9.680670048865597 -1.0603563680553996 -0.8307632835104725 -5.463119592088953
Ni 7.260912713982219 0.7226794590249794 9.808014046076291 0.11458326926523492 1.6323406894856083 -0.0875540330615847
Ni 4.891086788829549 6.118691965072716 11.640038153809328 -0.0328386437965757 -2.039839971724132 5.755223907794224
Ni 2.908980460043356 8.603076737357743 3.290582809094487 0.5868800075951183 -1.0435259267616221 -0.10226254291635291
Ni 8.200516648347685 3.5100485546354463 5.90597479753921 -0.5945364956991116 0.7200045301976503 -0.8901238848569767
Ni 4.054128031775107 0.6138335449014344 11.714466695328559 -0.6946673369844423 0.41448934040311197 0.3440547406306333
Ni 3.812393104510638 0.17511218468880588 9.159610220839765 -2.357671259881862 1.782046256375273 -0.586583302290306
Ni 8.432579927119406 8.698817614677823 8.396109088118326 -1.10247386605074 0.1562078867845568 -1.3309395218594433
Ni 0.9196499445410947 9.333863120366654 4.36632715656944 -0.6661915981422527 0.02795149090760347 -0.5359274278066511
Ni 5.446366991769737 2.637686498442656 13.172312452669205 -0.01353428704100895 -3.6974656610287737 -0.9166216740371891
Ni 4.120150400438514 4.442710665640453 13.452139228497844 -0.28015742775604013 -0.22095160681984527 1.228450464754581
Ni 5.73771719437674 5.946197035407652 4.905194637683328 -2.283998355677744 0.7159259892529024 0.6053546693605382
Ni 4.748507365511117 8.1352447470746 4.989331412980585 0.8889162377021207 1.5888707912274314 -0.889170776915088
Ni 2.2669274650974116 8.776753653162562 0.2326008010400358 -1.3163315421382813 1.0263686982560454 0.16308044553467396
Ni 0.4301444560255081 2.1454549371317317 3.501513864239031 0.40057632986644565 0.2684311404580474 0.48251918738884003
Ni 2.493015147273707 5.565681925988247 12.358930566765906 -1.248526923789482 1.3735481005585892 -1.5018957705977682
Ni 9.2926999840076 7.178445728628424 9.915861838570713 -0.1945738881572649 -0.9910317135176482 0.17406882622537762
Ni 0.2531579790293779 0.6668249854161713 9.950200412099045 0.9329476648907223 -0.7752757919661293 -1.9800692794234027
Ni 2.696429333419958 2.8309881365043443 3.8597110115545554 -1.1202815836561222 -0.9315520700947763 -2.2824240692120883
Ni 8.462439148411764 4.750177155454579 9.076118847498183 0.10367227877968596 -0.0525957718188449 0.564935385003227
Ni 2.790978843757906 2.4652572346742443 10.359938721697512 0.561812008882897 0.15288576438985926 0.06636557190942764
Ni 5.441291956042697 8.068143581537607 11.368860514654129 1.705985054444636 3.815379794439455 -0.24937309538533184
Ni 8.456003890539769 6.705604368514894 5.174038323254633 -2.0651213719987402 0.447746559794345 -3.3833221061352763
P 4.044447002439979 4.20636034190153 11.11036858864805 -0.47495114523359494 -1.0214519776807183 -0.22852119163698706
P 0.4416810159832032 0.4289962409183184 1.970502226763369 0.7453885174883936 0.6907806003355265 0.2309254302031055
P 6.164498618409376 3.272947763506204 5.063554514051714 -0.7961819459911771 0.6467831117086538 -0.8774689150971275
P 7.0950969440910026 4.747935134125998 7.374432163778983 -0.38706826807768174 1.0259706914866782 0.13846778919231637
P 5.864658753449377 6.085389974627263 0.34692887944986883 -0.6995326354965437 0.9354251798969374 -1.331074761885727
P 8.622879695619813 2.5467673741053813 10.015870061089 -0.01258246465070091 1.4540976772778826 0.06378341300454822
P 3.1541769181456756 3.4475909060760594 8.015889475233859 0.8942494769895761 0.5200760625966915 0.7123940648402441
P 1.2438996994554914 8.680459306142119 8.581214684193482 0.4853679696915447 -0.3107098466216004 0.19170350858800533
Ni 1.101545416354156 3.6269713740473106 9.067606671123478 -0.0906252157877407 -1.282042281938108 -0.5465851646308135
Ni 5.597604932603986 3.1479198962788826 1.6225067455350077 0.10587057198258541 -0.5193859785082023 0.46964850207375886
Ni 2.0614307319430227 1.5233737556106801 7.853424542240423 -0.2075049943966362 -0.5285038816490705 0.7720878811564509
Ni 4.372279301058915 1.0240878008307472 6.831968067696985 -0.6821635480904769 0.5481712781710109 -0.6833223442852683
Ni 3.0228920290515613 6.293382011854467 0.7658379005580478 -1.0049917752421658 0.7031280661572857 -0.33255959550684017
Ni 2.44736796825749 5.583430479769316 7.45259615673353 -0.9833034916354549 -1.1453521534715048 2.611041392241729
Ni 6.040793449957494 2.992319863738398 7.736240935410422 -0.2094790874038715 0.24317056611904572 -0.6178288905681488
Ni 4.816734232133589 6.854665953917215 1.9512668094652281 0.6759869869661197 1.201321469748273 1.8493896188169374
Ni 0.8454559240813404 7.630330286867266 1.8203393304657531 0.48073484179490755 0.24760391930005096 -0.14541131038968505
Ni 8.258856107102691 3.218839064664128 12.653311719545565 1.6072549501615738 0.007388064933955019 0.6618307500703957
Ni 8.68196024092276 0.7941652302899163 13.305930357262977 -1.020745952752629 -0.8731869998923221 2.263478381347521
Ni 8.020554568148937 0.8184250267662498 3.3585451359618714 -0.9771104754508655 -1.218825282959991 -0.35617929180830915
Ni 4.569427084495993 9.133206901879829 0.3305668141724158 1.143502501857276 -0.24319524870939407 -0.19951014911661769
Ni 8.537551553340423 2.2706328978371166 1.2772298324280809 -1.390314778493967 1.9771716461606335 1.3784262545864971
Ni 3.2777319931194944 7.5745330363969705 10.029008868925029 -2.0373048640071043 1.4391883642662182 0.7388620292237856
Ni 7.3487549220191815 4.808544756736722 1.0073767682167956 1.1029047829405716 -1.1849227166752756 0.8108354342382939
Ni 1.4059162281832125 6.905960400045591 4.299695971235636 -1.576555207084872 0.21937654902324155 -0.9152888141583784
Ni 7.152226274179117 4.8841637271538465 3.8454455645488093 2.016077322086896 -2.2336911227827594 -1.22713226016379
Ni 5.1805045379064785 2.036102457519721 9.661036883850587 -1.642545655043068 -0.3695251169875958 -0.13856883354655491
Ni 2.1178377371679535 5.322483587312654 2.7264245769268127 0.20290451951014732 -1.2608602485438543 -0.7942214798306966
Ni 4.796743657023939 4.99527042429073 7.42396957812977 -0.5338587182030805 -1.1562893692092988 -0.058951795943859756
Ni 4.645674571352512 4.215581709960088 3.4853947627791944 -0.13524465426932836 1.1378573877563565 0.1237633931026062
Ni 5.748486401427832 8.668639444744578 8.970124709457854 1.1797900234344005 -2.178476939504461 -1.115716075772627
Ni 3.0259032794552208 6.816288927744723 5.807696402355609 1.2282488902667361 0.4973012307940209 0.3696379884163763
P 3.7681999560631665 7.667140712362465 7.7297737826743385 0.3056332034296414 0.03617105060391835 0.6818035936478968
P 2.5757166536869773 1.7247147755911718 13.04851066154082 0.39966204558229235 -1.2149583438054172 -0.017098093132867326
P 6.269048106723339 0.8419230988414087 11.744782763644775 -0.2796750888029828 -0.5108262618636493 0.5750220798152679
P 3.2670659753345705 3.3891764005820226 1.5803839490005809 1.294364808059203 0.7818974110477049 1.2339559679538425
P 3.8821771909680245 0.8214850575502799 4.497749005962287 0.05048386768216467 0.6380747853013785 0.17031141606547442
P 8.8726915281726 4.549173845799731 2.467412014168701 1.392944245697014 -0.5232547174349892 -0.32409141013482895
P 0.7144609030167368 5.866844489723685 6.159055853661081 1.3559429858823162 -1.402629591305578 0.30779730096049573
P 6.897001695573645 6.890453867593102 9.957105650174226 0.41841412937881484 -0.09398590472985749 0.08067658921546104
