# total energy = -340862.3679567248 ev
CRYSTAL
PRIMVEC
9.36381325163934 0.00000000000000 0.00000000000000

0.00000000000000 9.36381325163934 0.00000000000000

0.00000000000000 0.00000000000000 13.70488720252575

PRIMCOORD
 96 1
Ni 1.6516456003268978 7.032757643150357 5.878944803522946 -0.6190110838017081 1.2186301362300498 -0.38071455794551207
Ni 5.480321646394397 2.220609633566854 0.10091662676404634 -0.6319576166600471 0.18943399582753825 0.7146298961492983
Ni 8.324551892346426 0.20598610479602197 9.088533259299535 -1.098202749479212 1.3732783918369704 1.688149311814796
Ni 5.31264383883 8.930437442045108 1.167342613690615 0.38142675352118827 -0.35796955093951255 0.14058380709405463
Ni 1.444873871581881 7.666575448389588 13.036459342497436 -2.6917470349229125 0.023337903394992063 1.0764782133179267
Ni 6.749099642114545 1.7659590350030672 11.984609067597155 1.4788041788856274 0.6871720570486616 -1.2899921329128041
Ni 6.73716077995759 4.865568565352469 10.378025883148009 0.22611669596055253 0.3392444637261835 0.22170031206041174
Ni 8.662182914145133 0.8089548266030253 6.780205294035479 -0.7266914552995226 -1.0722394926462309 -0.29439851105608655
Ni 1.7033244867929676 5.288728659262263 11.118652026578076 -0.2236288965416923 -2.505157193412389 0.6255121181450195
Ni 1.7691895506455373 2.6546130234592007 6.822567186112396 -0.07981526965643028 -0.7040498066406068 -0.28691814351864137
Ni 1.7081749421634012 2.355579640727921 0.9400425967050536 -0.8542114872310838 -2.160467390300918 0.4304548625934329
Ni 6.768604465544302 8.172492925627363 5.701054821002961 -0.04892655049737381 -1.152208514271706 -0.6950578875546417
Ni 4.8146387839629154 6.206925479173452 1.571319999353554 0.9013148684767898 0.6700868194316008 -1.2822297153585658
Ni 6.074240242495756 8.423808314984644 8.28186320317988 0.37877234661747666 0.5322682337875091 0.11840290012164123
Ni 9.104445187506055 1.4926105925827908 11.31252135676147 0.21287345779740116 -1.1548950599649337 -0.43300616826037686
Ni 9.105381568851698 1.079151409413865 3.5182778029441435 0.005713248334693386 0.27352269604834184 -0.06263567255335019
Ni 6.591038470969908 1.8619006676777088 3.098660976046266 2.242477610726138 -0.6427850462928543 0.49903004055966965
Ni 8.765868420548246 2.0951345332506137 13.718729264085649 0.9388624877132604 0.11611513252872906 -0.7209566096982745
Ni 9.14780900762281 3.4537957743390892 2.340136839575567 -1.633194038624839 -0.17991165815939983 -1.8175989566689021
Ni 7.272789637292634 3.781510517687432 0.5034257664770162 0.5998995597832378 0.43362194746750476 -0.502631898978315
Ni 9.312939857927056 4.126014578563164 10.116016082442131 -2.7972923623555954 -1.8865513154688993 1.230917695348151
Ni 0.10010572051871898 5.037591182360654 13.689839090428507 0.7404471143227184 -0.9868230747529393 1.4694654179832047
Ni 8.089126894424714 7.940963274103529 1.4312017675541389 -0.7102795896004026 0.1426733426332317 -1.2186974991328752
Ni 1.038372001811087 7.302594655524469 10.083453421147375 -0.9294548212461153 -0.15323851974358768 -0.9590852425180386
P 3.3146307787495393 4.121651041492465 7.568016629853872 -1.1107808432545385 1.2786574246262754 -1.462897792068016
P 4.94856004401686 0.437083148138168 12.110460593214345 -0.48835096357926866 0.2900055241947134 1.447985393732558
P 7.722205864134274 0.8027962464927275 1.2554982354762305 -0.18353331407238715 0.18538759367230656 2.7068859474468803
P 5.11612548581978 1.3189118529659056 8.803787183140084 -0.14804900512284827 -0.7274044222061472 -0.3240998947752612
P 5.7244643546440495 6.756834152029561 9.520154495048564 -0.10238261343398496 -0.659332152018258 0.7807982644462553
P 1.0786363996737611 6.54211254566003 1.2975127300739124 -0.15194294086061572 0.0650638223788686 0.20696043474707582
P 8.145768602022695 4.347656043077001 12.060150696275606 -0.4777934997783964 -1.3294259134283943 0.5375587927624871
P 3.9301423286814385 3.9095325752638237 0.4763296994781277 0.5570549538138858 -0.23147178962487877 0.49604833222352634
Ni 0.9665702802271364 8.8605178469659 1.3674014245687132 -0.8533306272880271 0.6308785246632554 -0.6176545697738137
Ni 1.8890744543282858 3.466399467251452 9.271890772496734 0.7879004227086753 -0.3559396649936773 -2.3508650355933063
Ni 1.2001318792710165 3.1053401841847412 12.387971250716006 0.6800231047087063 0.32751714798692627 -0.8691297991038127
Ni 1.603075499928365 8.617667344973237 3.46654179721599 -1.1896684588903768 0.5003680426448028 3.3048445814536636
Ni 8.5269694478342 8.003391818417587 3.6056599737382578 -0.16772154385111115 -0.4170401318494237 1.9835263847340678
Ni 1.2401902732376493 0.45456070595460557 5.634134455373849 0.9418632222127973 -0.6433247208464082 0.046415354039745865
Ni 3.217284574056432 1.2961109671994844 13.380904411348393 1.0513294819664412 -0.6465622539470993 -1.117683998132275
Ni 6.170425334320265 6.619673012519688 3.5510324224147563 0.5404140028230952 0.07813248263736866 -0.9145689052732185
Ni 2.4469142771819965 6.322718396375738 8.039904136228268 0.26596365275416134 -0.24501070465157807 0.21278218363517545
Ni 3.6625058124695884 5.748697903869306 5.459410378183485 1.1914150092678384 0.5698310225326315 3.4414825165260927
Ni 5.196120544178113 3.3814228601342964 11.632530618016512 -1.6814040226711622 -0.4455541801287165 -1.074891071336465
Ni 2.21024389207058 0.9291515452738731 8.918168037273139 -1.2680413396733259 -0.5143674422476883 -0.9142940543452771
Ni 5.22985836406165 3.3373848454486783 6.695508664940672 0.3217337085359298 0.23666387534877947 -1.1184039070174352
Ni 6.422517920194432 8.974784462574789 10.827655604936455 0.5497519923945694 0.35796440873318996 -1.9980253496811915
Ni 4.4880476982293445 8.118238990460773 6.415244109901472 -1.3526586587040896 -0.3599287315484124 0.34835105401314204
Ni 4.3085808495232945 5.562236286511299 10.752511938329903 -0.5669686133831718 0.19623919167482975 0.2900104092907199
Ni 7.134664024996749 9.21083683599808 13.214841861605231 -0.10492132069543866 -0.6441384749969552 -0.9203906541613182
Ni 5.049192947233177 6.090289818760086 7.514129756174776 -0.16494912331229658 -0.7916444631321399 0.03363928532100013
Ni 8.024984772248128 5.605459649426207 2.077373251886446 0.015292664493012371 0.19995674973573305 0.005495218786616343
Ni 4.638636546235746 1.6496417442472204 2.1874233422959 -2.531842158902743 0.13431571469715578 0.4004745141812587
Ni 3.1056866452826295 6.0127574433407975 13.745591235748126 -1.0666270315554598 -1.6462236181152872 -0.1346910957587035
Ni 5.135855040772491 0.33824903348683305 4.817802816529845 -0.8362595307383535 1.3814637558612402 -1.3573810038804237
Ni 1.5419391618712952 6.230475470016389 3.4435583170871684 -1.1406462633554033 0.49214848294848784 -0.3559172963961741
Ni 0.4011673052446626 8.298117846958906 8.05670562671315 2.3053873628764814 -0.19800528243631707 -1.2015415561788791
P 6.020126764531012 8.791534633232338 3.2735770114124874 1.4539747785467734 -0.751035431361526 -1.5069649575905597
P 3.0150636586512434 3.514538832230989 10.961292205061325 1.3515440854836724 0.7687832422632501 2.0273899188862377
P 2.5286416410297687 8.774595494689645 7.420059013428729 0.12079016940689519 -0.7492809105642645 -0.17934293014012337
P 8.658680847912425 8.414051221363039 11.654211591693544 -0.7130440397194172 2.1027234986222303 -1.5685675608937049
P 4.320800626083943 3.6182056110071903 3.9959203090688633 0.3053629804873902 -1.538815269331937 0.5211878076036315
P 0.6783586567074599 3.0189683688625766 4.077998815921252 -0.1610086506073098 -1.2966150375459604 1.0299098786400844
P -0.04732752235286383 5.693685499812745 8.807172201704585 1.7802326002053017 0.4479183094855189 -1.3953739381844292
P 6.271807342613097 5.593885975994051 5.348222584439074 0.4347198085173739 -0.3647351517981202 2.1983369116531817
Ni 4.729053528971091 3.544812041135646 9.011470947315757 -1.2808762866544652 0.6054821960773378 1.6354326981473704
Ni 6.088707334285949 0.8518879113007839 6.787729118147726 0.6450789845333535 1.5578789708316074 1.0620761789599837
Ni 1.8903011138910788 -0.1935116325093581 11.115664033704126 -0.012043304317779259 0.9616411761706728 0.8986419496303168
Ni 2.2497685486701955 4.206711922930729 4.564713920903913 -0.997505751277766 -0.7756889682441479 0.8996125410737023
Ni 8.831265293727995 6.399642123920359 11.96003561194343 0.01885467081265785 -0.4282953930482688 -0.4697099514393136
Ni 3.68977323725473 1.0562007026321407 6.3986336412111005 -0.833477597117842 0.264863477711447 2.3347213359539083
Ni 8.092329318626815 6.780000226520784 7.421648988953632 -0.13439901843958144 0.9553023784368385 -2.1241901531364387
Ni 3.6553050399215894 8.165348335960102 13.181498258268208 1.8043171519583314 1.226500797227378 -0.4141301572914803
Ni 7.09270477689846 4.943110304585215 7.847048907042205 -0.7769958599810296 -2.26923045333995 0.524762155218451
Ni 7.93200210462572 7.043245114221565 9.67913144714924 -0.9688904015339185 1.2663467255797223 1.6292944464601167
Ni 9.072655040821456 5.733481707002598 5.075056736381199 -1.0748563614437876 0.41339893555241064 -0.49077577097067737
Ni 5.5721806564020335 4.0551305106979445 2.169360546138435 -0.44002862232479706 -0.4757098777764904 0.23779901739448725
Ni 3.7066000100359453 5.522861450926986 3.355806275661525 0.8735613525126052 0.662187362078866 -2.6830788177249536
Ni 2.928008284946759 1.8072628161594058 4.385098187563906 -0.0910731019584367 0.30729027941709014 -1.4009930841434195
Ni 3.225552821338465 7.857110324601146 2.0302554789550062 0.33560455298075104 -0.2991252271077945 -0.387424622975836
Ni 6.446891926621534 7.117331606288886 12.157619566924993 0.41450785234587323 1.434441336499536 -1.1927722946266814
Ni 3.5981108673296793 1.4722068430612172 10.626550856095275 1.503396780623327 -0.1616905071656828 0.27506767193795856
Ni 5.894277111676514 5.150069309599361 12.799282375078025 -1.2679405524294034 -2.2083030217269584 0.8146542937637518
Ni 6.72252513952518 2.6181503338598393 9.321872935964496 2.2750496311248884 -0.9230152362683588 0.10543297022453454
Ni 0.9618977373123749 4.8105093422286265 6.825239618472862 -0.3937711340191541 0.4905824240129486 1.0344429906237476
Ni 8.253555458719728 2.950603166817139 6.931849443818421 -0.2683532360322604 2.8843098061874195 0.3576972711147324
Ni 7.447715036472313 3.992205684270696 4.039707373553849 -0.30242498090498887 0.6713500024147406 0.9150638426317661
Ni 3.7533722582508426 7.861155492014325 9.542946017001528 -0.44330420775227525 0.508796118807498 0.10060880936301383
Ni 1.8982697191425058 4.23098292740981 1.8783922159371838 1.3139103342912983 3.0626410072335775 0.6518754386298967
P 2.6172794992083905 7.008514730111645 11.508131419866414 3.7335204977698027 1.4726859818030316 -1.116975916321657
P 7.180022337379724 2.1623386224274537 5.285468179416732 -0.6286794601294076 -0.993636755240663 -0.5892719048660626
P 2.6599035780620865 0.720050099740895 2.372713546590507 0.3339598182884765 0.8181787619772424 -0.747286505842055
P 6.568808777824328 6.5520662793642215 0.48960852334069943 1.5650227809652402 0.7747446020530077 1.60538370128079
P 8.877737899912287 8.143474467725868 5.9802238098677565 1.4390266418773732 -0.23048782844505464 -1.6866637284082049
P 0.09068010589347063 2.170251044798142 8.573366207129492 0.04880930819321917 -0.7399223521674999 0.6168739828540473
P 3.3067464478192203 7.773360377046783 4.488624509138261 0.3354155768983965 -0.6801601445072029 -0.27955733227819596
P 1.1239947120567364 0.5754316191943167 13.169848737947055 0.01945810872461165 1.1153918596639887 -1.0254114765490985
