# total energy = -340854.5801119968 ev
CRYSTAL
PRIMVEC
9.45620563679555 0.00000000000000 0.00000000000000
0.00000000000000 9.45620563679555 0.00000000000000
0.00000000000000 0.00000000000000 13.84011279736413
PRIMCOORD
 96 1
Ni 4.833303128346183 6.023792142468253 1.6693805840103524 -0.5461653034845755 -1.0931158218746078 -0.32335118953469477
Ni 7.124314815747894 0.5316723275134765 0.6778955271891774 -1.00087261086747 2.653985242793107 2.7890936285948866
Ni 6.642464399102244 8.307730588021096 11.142550697306387 -1.8187682943866548 -1.370318280767382 0.06170801853275824
Ni 0.13244550799949584 0.5810375036469436 7.357002723302606 2.190755499761498 -0.13449749169065867 2.1410979846353704
Ni 1.1897230614619647 9.20870840903493 13.223536274066241 0.14406302389190673 0.5985947249288852 -0.2549395337295158
Ni 1.8750615681421106 2.359380054470321 13.29500627659799 0.17741897364453318 -1.1547325662451402 -0.8083952002279174
Ni 3.354097242393024 8.685203406367533 0.3777848731338877 0.5830128113302281 -0.20917466878957522 -0.2837510586445694
Ni 6.972353590465384 4.344984667015203 1.981101567399921 -1.4399923482247523 -1.5651487650201432 -0.6978526766909594
Ni 3.1133800705951655 2.648664298642229 1.3476965423160134 1.0302842312603675 0.07784657596583368 1.6194748892665336
Ni 5.363465299812514 8.182303475877523 5.091403643046148 2.096104964864448 -3.0377051632238454 1.793975403712691
Ni 3.0810493033742006 8.11633698505171 4.990716801823957 -1.5097805726624838 1.2956956110554847 -0.003974154156399607
Ni 4.572217289512946 2.6588959131883194 10.112112692426331 0.4355433328599338 -1.5253604293786116 -0.7025112585088933
Ni 5.574773671944622 9.077739960362697 7.67961536439475 -1.436676396477642 -0.7624009928859902 0.11051218451965485
Ni 7.009715059108271 4.8574259090366425 7.952445810682926 -0.6067014131964196 -0.6681546354058945 -1.3333036512162457
Ni 2.2280995510106387 2.81488548209064 10.217823615726466 -0.006650672547298224 -0.4137581186640423 0.1416029923871884
Ni 6.7998345740338895 1.5811532393925332 7.925568437277795 0.36467730197699133 -0.16365791530469878 0.7981786647062318
Ni 7.119936592517913 6.953460091516134 1.3176797086250196 -0.10882245552205774 -1.0000529431796519 -1.3700385447434342
Ni 5.900284640077782 4.734816746185801 13.645811649305399 0.4209227547332815 0.001969979242177252 1.4334563468784476
Ni 9.221190600532934 7.685181287058178 1.8039622488730291 0.5202218441459363 -0.18318647225592966 -0.2876048851730208
Ni 5.748682750611122 4.976233677204002 5.732464412248831 -0.3769381216222153 0.04666346549480996 0.15685631900183308
Ni 2.0907197948871596 4.19200217151922 5.609370146046589 -3.8183023674028886 0.47959352910161285 1.541952529409338
Ni 1.4529554589846307 1.895836852021742 5.458305369062572 -0.06976534161959598 -0.3206438179058607 -0.4876071434347087
Ni 1.0152182418376057 0.41351041819408213 9.571738764445838 1.2850427593273286 0.5277595472838782 0.6172550203425499
Ni 8.93697488260567 1.5589027874267742 13.0348537652654 -0.5468685001991872 -0.15956831861635745 3.100438537697325
P 5.607038245725826 8.178057639527065 13.703468972199925 1.056047970488033 0.24487135086023634 -0.36083633096434625
P 4.432066865125138 6.596772013255008 7.877501598184233 -0.10156577395964443 1.2852962700990316 1.0051663531468171
P 3.37873065819022 6.519354057350346 14.114839451048553 -1.2856297421790501 -0.9290493582775807 -0.7968182940235954
P 1.1502528589523693 5.698262261923733 7.240440803984319 0.5971001426612297 -0.4180377198760026 -0.6530982552934043
P 4.9659547816295095 3.8703777039206675 2.9936994946435145 0.9410769788660761 -0.1258513859798865 -0.5762420682652979
P 2.7412027274296986 1.122243577727304 11.759279703673077 -1.0126346364994043 -0.15526326348310035 -1.1165851086411416
P 0.5932889637263474 3.9635780671057588 12.931869066062895 -1.4618706363550824 -1.3111330286564775 0.29962659222424526
P 1.2892023452187793 2.879528104121209 3.459280509416199 0.8895536141758034 0.9400716775300132 0.09150864683395853
Ni 8.679633701221833 6.362967327809453 10.591796692350622 -0.45560693637902827 0.6034811064869091 -0.5332971892726558
Ni 4.406884989398484 2.396769891730249 12.430899147152235 0.11164629812409804 -0.12454989355964356 0.32252278009612845
Ni 7.78675039227034 8.790715749348383 6.869387803674241 -1.9060880999502463 0.2066650149938441 -0.2844879368105939
Ni 8.718574356213331 3.2613980581089885 4.113475002688259 0.6399984846866527 0.41206119057759355 -0.6576992444005254
Ni 6.582559336117509 2.6231514557167643 3.812660806930354 -0.9006872621951197 -0.308147742321379 0.023288538214295374
Ni 1.1664229706656917 5.16561310836348 11.446050455477499 1.504072980754745 0.8522749323300032 -1.7086967969488445
Ni 2.621704656247678 8.312014249194274 7.637431230854908 0.059685331675774625 -0.02097531670008646 -0.025817218173420056
Ni 4.069288990405894 2.074247084592067 3.9904091051030575 -0.7065136948000671 0.642910259016809 0.5157980040466278
Ni 3.4142670791368084 4.763714910744815 4.131744392062609 1.5575352143389434 0.7103950321323443 -2.030887133406218
Ni 1.085846642063808 3.006231804031623 7.72719804575748 0.7492284600597742 -1.6146106191956968 -1.2471729808647487
Ni 8.418859917176047 0.11985646137730503 11.154743528910574 2.34084776056662 -0.8627784029644884 -1.2849774533070322
Ni 8.158142870364342 7.9398652746458485 4.184973373837049 -1.05029615560592 -2.5352727818508467 1.0789670411780514
Ni 3.5578879310092892 2.7139877674817794 6.322038978383954 -0.3736867045644532 -2.203807962070082 0.058671802809595726
Ni 7.0882299348718485 2.6065274461307872 10.055686567511378 0.7817115202891439 -1.7350472619179154 -0.3912630228853197
Ni 8.61889649213723 6.6112021831231536 7.602844212958622 1.0870369626703795 -0.5925654880156698 2.3038806964239678
Ni 1.122451614252271 7.681862158864392 3.816743050922542 0.3672185803416063 0.644481974379303 -0.4023221089129587
Ni 4.484236751863383 9.391790007211325 12.151384109068651 0.9399721758376715 -0.6331773479997611 -0.9441589602255095
Ni 5.892918255852823 4.174735139946982 11.515582881465352 -0.8080750978843373 -1.0256246210011692 -0.5837358055391817
Ni 6.110420442705532 6.28829167155208 3.5182257675243838 0.7534345277213218 -0.011344221368225623 1.56919748116822
Ni 0.54162403837143 2.206577226882263 1.4721316984837225 -0.015825911288663067 0.09492152917024943 0.06672269813853025
Ni 0.14498159986987694 2.039306404603338 11.114966945336935 0.9495428502452421 2.2556164621009414 -2.188420166760102
Ni 5.636465957802937 0.24289399034546486 3.6569180449962895 0.1516691183739388 4.16633537595498 0.7192797362164838
Ni 3.6371120221988895 4.39625621421382 13.152937188077647 -0.9703495025779482 1.7367053663466283 -0.45369326429608314
Ni 7.921255461867007 0.18453879947173119 2.9672514329762674 -0.7973841938293944 2.1399173340637083 -1.5424842335430917
P 2.6129009287593132 0.9809016714237768 8.07884785763214 -0.6290247592839683 0.8366300267038947 0.059400710555820274
P 0.19793162357674796 7.634864816633272 12.182842068505323 -2.740087373899513 1.073119581258339 -1.9964104397855877
P 8.142199707587347 5.7534581344796765 2.8286972161072943 1.1755507885420724 1.4176715732403649 -0.22542686898237949
P 7.135510963273376 6.8107754040060025 6.16359741534873 -1.2919423146606395 0.6594010575829804 -1.5511311105848125
P 9.29966765147379 0.32932749274572987 5.316942659106548 -0.6291391733746455 -0.24064908524877265 -1.5499162643411049
P 4.252219289291406 0.3035555497846251 5.915914802446759 -0.27311363353538126 1.2432692749349683 0.7875954898737468
P 6.295156876875981 2.5770240844082335 13.990831715377594 0.9526191751777207 1.2092019009376143 -0.2923375147619997
P 4.793445221403695 3.7303596664123826 7.508163953584562 1.7452902798021621 0.5397349744781995 0.532242008535264
Ni 8.988766521116702 5.128819012061412 0.6358371611848824 -1.8164776985802653 0.9612881637066282 0.8857365544225585
Ni 0.7030982065683279 0.7228021023443806 3.329986754769949 -0.8165098589152519 0.6840332543093638 2.088486529087242
Ni 1.6498431174542727 4.340455144494338 0.7894522768408784 1.470861784110099 0.734821797716141 1.5124596621565436
Ni 8.014626036754343 4.001109747450892 12.410249630808153 0.18526109539677124 -0.9341082608577267 -0.2460553438660085
Ni 3.118968688152226 6.235667886941179 6.243883438436228 -0.17981189935674194 -0.8411978485802352 0.3189273494353862
Ni 7.832073986096045 8.643737944459394 13.18616724045881 1.6767783509736929 -2.6035026606625222 -1.3643494647784569
Ni 0.02641401932679754 4.130347710483628 9.519105523629255 -0.08887095210079533 1.4479082606377194 0.568402260505905
Ni 1.2488243469638742 6.532715675976617 13.41913788856336 1.118005900248068 -1.1631614137387838 3.195067218217504
Ni 1.6858428924791962 9.0270830665333 1.8695221228545875 1.275817898294951 -0.4985973238976251 -0.8409451091394806
Ni 6.79800007013191 1.5353473790771333 12.024262444867167 -1.0568097883547218 0.06233459637316361 1.821058633082728
Ni 7.573985764463465 6.290220737510862 12.84219965007883 0.0062724632722730685 0.7733492643673778 -0.7300354320710911
Ni 2.164799710186673 6.217568709269074 2.2361051747395853 0.2693325692263942 0.7548170098911452 -0.341600879773502
Ni 5.2609505740323215 6.355411819470889 11.397748156862498 -0.6505397505376087 0.602819304533194 0.655634905672329
Ni 5.777968619603029 1.8879220078673262 5.938654140246189 -0.010120376263453539 -0.15488916797313326 -0.48968125235491805
Ni 1.694504776882356 6.474342518312091 9.266204976432892 -0.4259554320611825 0.46876121437279916 0.38392638001459045
Ni 3.88531850889555 8.310283763554779 9.897203397171161 0.7555831986332084 -0.25056505881090396 -0.6830811748087396
Ni 2.973447138938004 7.433580022522288 11.988762903122732 -0.039030888650216644 -0.37328586958160875 0.06299511277529796
Ni 4.965245566203487 4.789596545691811 9.362642198822352 -0.18780237376138625 1.6360603044290403 -0.19146208200116058
Ni 4.789473615017966 1.1493072383843386 0.5376798549821745 -0.11793547356691947 -1.2460728058220347 0.473665593652952
Ni 0.3084765592206561 5.494112237491617 3.985094717510726 1.486493834220401 -0.617813206838865 1.0208518822028743
Ni 0.1998852756702991 7.768963269385686 5.9324537061816125 2.4542359810824896 -0.7712319609140589 0.4816511829615898
Ni 8.519975124515554 2.3171297274907157 6.306067446989918 -0.8352454876515423 -0.48063328322003684 -0.4561867201418982
Ni 2.710470058968706 4.375225612780821 8.22912304144185 1.4780166499873255 1.4350206060417738 0.464737952146019
Ni 5.5921258093679835 8.356638083799636 2.101109328068111 -1.2466744439617754 -0.48823449260606244 -1.8822532023141776
P 3.637565920071544 0.7610704211120092 2.3853155897896947 -0.11525664118317568 -1.387497620760146 -1.0050367695474884
P 8.706205639183493 2.478282384694483 8.51965550476356 -0.6602366661103984 -1.9847165483874267 0.07471060144001328
P 3.2956578912887355 5.509970294417489 10.75159522090097 -0.16283644784466794 0.07660987534525515 -0.2751018676100036
P 7.816036261262247 4.214375554158823 5.883971739658686 -0.3596749636663935 0.46839817460642563 -0.6895295015372447
P 5.92995821350258 0.6271090833419605 10.175970449385435 -0.8654623775545546 -0.18062308240412764 -1.27163265656901
P 3.9647506366101166 6.816543689470989 3.588091051952185 -0.5369311864808173 0.17207570705474884 0.02190965558889775
P 7.310337293890866 4.58966398899311 9.998499218039163 0.6800017645524675 3.508113426281765 1.1380689895465301
P 9.314381507512344 8.151542438799488 9.295103140991905 -0.5875402668869365 -0.7980603939608126 -0.48956478138171167
