# total energy = -381167.3980283796 ev
CRYSTAL
PRIMVEC
9.21977233920135 0.00000000000000 0.00000000000000
0.00000000000000 9.21977233920135 0.00000000000000
0.00000000000000 0.00000000000000 13.49406876728785
PRIMCOORD
 96 1
Ni 4.8369415761705925 7.825844297397841 8.941628538585249 -2.2566310194083843 -1.517591326956154 0.11450562194976407
Ni 3.4176774601205757 7.904590374138217 5.020427956177724 0.8351367299878198 0.29755711128972623 0.7545311032196101
Ni 0.704809195041413 3.4982306122667715 10.833348831578068 -0.6710566395440378 0.5563867241022676 1.0004684334505156
Ni 1.2460245911756869 1.3593171553936634 12.365492466039015 0.44763600235840967 -0.2173741738812321 -0.5376492955937644
Ni 6.979367766358077 2.5479763222070253 9.261357340464277 -0.5377174298275385 2.1061595208869726 -1.8716895678657184
Ni 5.416957462804128 7.825613803085875 12.72678308027467 -0.45077660486992044 -0.5076599483205257 -1.3766812468709324
Ni 5.560555419159514 3.8196595401908686 6.875969861964217 -0.7349588375146374 0.7141411294383377 -0.7864868301906003
Ni 7.870846006866261 1.8608727782336623 11.035112488546927 1.1683506712492073 -0.36906411819077733 2.3877706503704035
Ni 2.2469323112332815 2.759883572856925 8.899472972880996 1.6596092953935742 -0.9112598955046435 0.3680433902357468
Ni 3.439509881350081 5.504536081579077 5.919105917014507 1.1161655046052197 1.1599513914419182 -0.7650484578111664
Ni 0.25251481655498226 0.12528011239475143 10.459738757356403 1.1589052095655914 1.677408271248208 2.12462107002627
Ni 5.9136081666854725 3.325673350555863 2.5570587200757697 0.8090549452991034 1.3455284754172117 -0.9254541847271546
Ni 6.998987442192701 7.682928604205877 0.7518540060911075 2.376296074071901 0.8142812266950491 0.6887471148452654
Ni 7.436530184713249 1.3746127579357874 0.998558522030028 -0.24384368092667033 0.5649227865977366 -0.09604407281046684
Ni 3.301969315513186 6.855241969477656 10.618753095273386 2.1544162990108315 -0.5458385162727761 1.8006160489576601
Ni 1.9946147978093431 1.3071332431643545 1.1322120317899134 0.5439806371284308 0.05863220782091193 0.3545638676920732
Ni 1.1654806588019695 8.442186087597362 4.403614113627295 -0.12872099421819766 1.8819405561697653 -1.7067653842540862
Ni 1.297922690458157 8.31813404889677 6.754443118945534 1.5178139844899214 -1.1514690650025203 0.0685839197169851
Ni 6.9044663347413096 2.658521394226356 4.597537276080288 -0.07479956160939377 -0.08319652742383736 0.7607624288413026
Ni 5.221608923525932 0.07998798009325332 1.128182069239484 0.9326663862048776 0.8395520854466961 -1.0578207461177394
Ni 1.9908715701830004 7.922421414111977 9.25722780437108 -0.5125046780073368 0.32128942190965953 -2.589120938019554
Ni 2.647706601108869 1.1291270959185482 4.259429779742266 1.090757606055076 0.5359922196063156 1.1970616660306546
Ni 7.7780028980059885 4.206143182724507 7.309062220309308 -0.5419348103429956 -0.8063342039338306 0.8247769840200505
Ni 5.319034259308106 0.8999152543034207 5.7288264086450855 0.06935653621695152 0.5601919567809707 0.4389703562636117
P 6.3985128804289815 5.165949157072163 8.93357322337063 -0.9109541913387667 -0.6169662854575375 -0.21370932343513518
Ni 7.84048529609398 0.5477512928444076 3.355731652790844 -0.19022589560121433 0.3325817069940272 0.2277855990225432
P 2.2996786295837897 6.821138031079031 1.8549490744161128 0.4779606214838801 -0.008609338935565817 0.23174252678776217
Ni -0.03692703273159494 6.997816531087909 2.820989458913849 1.0087216745982435 0.9061002056805749 1.346066864419185
P 3.3162138639927408 2.3010984745455056 6.236702185519218 0.06002008930737405 0.5462030987010463 0.13789649006987864
P 2.5157716569390085 9.050525115285392 11.24142333730227 1.3969078583304524 1.060694725231425 -0.5652739992895685
P 7.5441894679467545 3.1622897624612376 -0.6191095658976197 0.24712003768509702 -1.6475274245283755 1.1076991190054213
Ni 4.618276232293823 4.419544036515952 10.492042996167191 0.7196900842810251 0.5180937420593401 -1.08512689013186
Ni 0.268572894281093 6.282454384467402 7.804456269201808 0.06088166597672095 -0.4297789195723308 -0.3239731393894098
Ni 8.249824754602257 3.2765872818793897 2.303167391489721 -0.42775134761934075 -1.2891714367837217 -1.3780711852399234
Ni 6.235405885508716 5.528138699124488 0.31893497946861527 1.879066834166396 -0.35983411495207707 -1.3382599667802564
Ni 8.980574701489674 2.846282060754602 5.527292324010946 1.083433047369205 2.690779785913637 0.6801161786431448
Ni 8.032588475459681 7.703285861838795 4.649138498688945 -0.7070086321586146 0.6891453787249486 1.0359529995103707
Ni 9.19040750333187 0.6344097783259833 5.613114576128705 -1.4012404242675351 -0.5047720852497694 -0.9309997971357321
Ni 3.3593070805580747 3.1769676402472906 2.675550313994471 -1.629207286062949 -0.589762728459552 -1.7305321476563809
Ni 5.584462289196723 7.917719330147852 6.798757033387044 0.19731159880340213 -0.0689688138602296 -1.4814200192419196
Ni 4.318864121048805 5.800204965197752 8.171792288251732 1.0730285642064294 -3.3748228104150138 0.8256712136995459
Ni 3.837241646307705 1.2240262140415648 12.531752623146987 -1.56090387370086 -0.2953027680379108 -0.12355101998148398
Ni 7.093342593739475 7.33691054308115 8.58983889988887 1.4960030592624172 -2.621116517089544 -1.0974926107860647
Ni 5.200735358634208 3.3199109927566903 12.830309139505985 1.0059744508704096 -0.6785907431375539 -0.3873454329984684
Ni 6.948647484459127 6.09396535591334 2.719891887753418 -0.5903952198372284 -0.2901736743414615 -0.7208383389528552
Ni 3.237126655670654 0.6817450122087562 9.156400372544272 0.0747270565002455 0.5165114851738846 4.262357594388575
Ni 7.398102173022126 1.832789351263614 7.010358187590652 -0.5502019354477944 0.27670160799695576 0.09717150154669071
Ni 7.387683830121221 5.81602609477116 6.007276445182585 -1.2158554016983898 1.6872813073875457 -1.1626844741023654
Ni 9.395870133019175 7.112289226183155 10.401282633909851 -2.401316507375639 -2.5646046980457444 -1.9906154303703651
Ni 6.072916615344523 1.0135480281258602 12.427537846911518 1.6092197871974288 -0.29955768665952276 0.4037387867548272
Ni 1.233541019239559 7.735398329382025 12.185130666924907 0.35189634816223914 -0.15307165514842025 1.8418377746116086
Ni 0.7211576956006022 2.093423099463319 3.6010402951764924 -0.788103796968733 -0.7351264734407533 -1.5910688273200146
Ni 1.0936309718756438 1.5383835764745175 7.348869509963241 0.9964785955648323 0.09917361957838404 -1.138174661886459
Ni 3.6225131452793304 8.785327579708742 2.646996678628011 -1.4678291679313624 -0.9531488224289457 0.8534887501324462
Ni 6.1862829377423285 0.21561083325458397 8.760808516778951 1.4811981330391006 3.5981827695660353 -1.6774301256250788
Ni 2.0925748803952806 4.054588562720024 6.927383001214308 -0.9893466125057413 -0.5665477237956694 -0.21924028055569336
P 6.265462343789201 4.691001797605623 4.26507043654472 -0.16510904592892853 0.2595541496833917 0.5326418150768439
Ni 8.717128922683973 5.794276651493963 1.1228189275886378 -0.7619510498327652 -1.4400987918956294 -2.684093632142713
P 5.857303016158196 8.739274816177753 3.1025290412089523 0.2584909985262 -1.155356315872068 0.9929034766190642
Ni 5.024941956783285 1.5762030831820482 3.460905285364098 -0.3985778113791781 -2.8870382608621763 -0.8077809636826864
P 3.4041059550319637 7.378500936732459 7.330747125179155 -1.9652723236198864 1.0593284410115176 -1.859549847179391
P 9.095038176812443 1.6669440839171819 9.022094102892897 -1.2263791840478493 -0.023019086602992615 1.1942887312712076
P 0.2026423012860777 5.276365152276791 5.749917560167306 1.3695742035125058 -0.7662643324961383 0.8178779429073721
Ni 1.7288179770215797 5.558914299658309 13.555736511741461 0.06959590592126723 0.3757019352222691 0.05647299538606403
Ni 4.881887967004141 2.121229933259007 8.22714503628196 -0.9890617342754708 -0.022858906876044503 -0.9055466471699501
Ni 4.556881767358317 4.513834649655377 1.2231669312465523 -1.6537158127272746 -0.05895590970891782 0.9327872280534579
Ni 3.2935240039227183 0.377813368494691 7.1456758662829385 0.613618452031227 -0.7277846883637014 -3.204284623050714
Ni 2.8725399727738723 2.8817966243424635 11.070291452416564 0.8430966082648447 0.1702103717112359 0.36479068762640404
Ni 3.2580370996522925 8.259920405466408 0.03988473574275435 -1.1488717365889893 -0.5357747042788709 0.36903377917347413
Ni 0.4328913673050563 3.2187977479830456 0.26210061400106216 -1.3459043706993918 0.10598935694863681 -0.37497842679268323
Ni 8.391919888043619 0.15583628234358093 12.747577355123079 0.12078014210456617 -1.170850040632293 -0.26892196405153684
Ni 0.6343572256228549 8.056015917327999 0.9162766625440799 0.4765082053080697 0.1370004606181705 -0.3753275826019859
Ni 7.135689008734036 8.506530879726045 10.543671878093283 1.970030664240478 0.7553556560034346 2.401925087493915
Ni 7.17766663282945 4.704444225879534 11.550882234617301 0.1360003014884303 -0.7437856917776481 0.9947816674783835
Ni 8.757889536812202 4.792013624882003 3.7019894280000165 -0.2828594000682354 1.284052884610234 2.4888126906160943
Ni 2.345003031088963 4.983913969253175 9.239051944906615 -0.8261193569805579 0.9127081979153958 0.8815482273728237
Ni 1.8572586274220213 4.009282600759807 4.338491172701412 0.3317921212131963 -0.049505048708663124 1.7016702291193662
Ni 4.775353496013035 6.848825007832497 1.5066804668293403 -0.31924745177896635 0.9357982469656401 0.007598381172548205
Ni 4.088434347489245 5.424010588750316 12.638220711776247 -0.30570416587689286 1.224489423224304 -0.6770557945502662
Ni 4.237038640300552 3.462623850954123 4.640340069812544 1.2043458583968936 0.7667739251427053 2.011457821037013
Ni 2.810186651500584 3.453533155290148 -0.13989529572794934 -0.24392595622783148 -0.7027172038721123 0.575992414148337
Ni 1.1791259220704107 4.440491359587505 2.174367169962611 1.5643265262291641 0.20790274405568712 -0.901841173293905
Ni 8.996718523099837 8.805196189400291 8.39243342937068 -1.2751427266047974 -0.5003942678970479 -1.3733627240206605
Ni 1.6681057752494952 6.39734196932419 4.483269259934068 -0.2980458780006867 -2.0784851949001557 0.0262897869344644
Ni 0.19249594167329426 3.6187975769704237 8.522044068898666 1.982988767063043 -0.2790546816101646 -0.9270973767575323
Ni 4.9144061045364325 9.015821891675655 10.690068957373194 -1.630147281378715 -0.041143049897213006 2.565475530686472
Ni 3.7811301110024798 5.78857883210214 3.3758925292699655 -0.7303239098457873 -0.5920427827429803 0.010634854006026847
Ni 5.000417361990006 2.0116990362123306 10.574586697191533 0.3704170326742459 1.1380111397254014 -0.43490081417992843
P 7.53251723598875 9.002868111343114 6.686379070598953 -0.8191832919823568 -1.8291624931367854 -0.3592859557580909
Ni 5.714258246151529 6.800181488235 4.586418230471005 -0.9248787718396587 1.1047176677795942 -0.06789434984912823
P 8.271952208551081 6.896500451319733 12.34894850630328 -1.2975666028259525 0.46566560616661096 0.8401454960563207
Ni 6.1446925440910185 6.485814906029569 10.773516196100449 -1.6484579067624445 0.30724271400860637 -0.17258092882594148
P 1.6928608643547414 5.676484838306392 11.358430547851905 0.0515174511530016 -1.3995915758102024 -0.39618822810107895
P 0.15325659000404726 0.6636604284918323 1.8483772205933122 -1.3496787501401595 0.6332673366104062 0.24333845915547767
P 4.071239471816513 1.8896476881396116 1.0543095642313367 0.7565000540205229 1.361750593703029 0.6824188586343924
Ni 8.39726735608125 5.067417448592547 9.711829891908923 -0.629959869503728 1.6002209261329279 0.030824955800656587
