# total energy = -381166.3339189141 ev
CRYSTAL
PRIMVEC
9.36224478399871 0.00000000000000 0.00000000000000

0.00000000000000 9.36224478399871 0.00000000000000

0.00000000000000 0.00000000000000 13.70259159158653

PRIMCOORD
 96 1
Ni 1.08153590177896 5.9218914519121535 6.605992564698305 -1.0487205835886841 1.6926310017352335 0.1876553066605607
Ni 3.478008472568375 4.391417179082867 0.7237314957661318 -0.07548398927092807 -0.6989891042882478 0.7511328761713387
Ni 2.716511553021321 2.4292778771824817 12.815732791944168 -1.5447720011360042 0.36705274418770334 0.743675391452029
Ni 1.1947067190390606 1.1371569991765658 2.6719781623478327 0.043387108736383344 -1.284523396488749 -0.562405933713154
Ni 3.1161857910121946 4.638243405608785 12.197143052147412 -0.036636163165794974 1.5240877333137752 -1.331426745908507
Ni 4.268500264803594 3.638290106543633 4.171151641551565 0.09420599116046356 -0.17996745109799972 1.9433004473344855
Ni 0.4612618941111689 5.684352572401624 11.204774107736663 -0.335718452850796 0.2980700463704028 -0.2059466487705808
Ni 5.489636601407616 7.849661952508616 6.529654691619598 -0.7235325979555668 -0.3091041926973773 -0.05946627368643307
Ni 2.7676294105858594 7.887401162003608 9.98295432724945 -2.0166128828753918 0.35199019342762605 -1.4839885513000444
Ni 4.488297690086137 9.104904947557257 2.80689372978731 -0.6419777199002105 0.007818981823786535 -0.9369256757018638
Ni 4.585683762318067 6.0662479071846125 10.779308757288135 -0.04052110004249796 0.6313189546347837 0.04114664944163881
Ni 1.5243607268604866 0.2524613617764845 5.495164070840969 -0.2705592425446437 -0.7117924267005031 -0.07385468119762119
Ni 4.990301265655842 4.933247744777032 2.5817467177259434 0.9679205814214814 0.8031848596715716 -1.4083721502163098
Ni 1.100906386632629 0.7642297588553125 7.939856884375102 0.07574727023464375 -1.081947206852298 -0.0058986248726220995
Ni 6.896435618114639 2.8457854316387485 6.480695767746338 0.7705231077724924 1.1557985456158093 0.026341466108006244
Ni 2.6989667059378135 6.087687448177799 2.636830422261973 1.451774685571661 -1.22913592085738 -1.9932893776581027
Ni 8.276908001951426 1.3942442461952917 11.508504995446284 0.2526011154043262 0.5088935636173106 0.37893638299916677
Ni 8.404805630557501 1.1138262846983915 9.143232106036692 0.15965265080004762 -1.170391870048952 0.057908442281009956
Ni 4.998699199398587 2.859023646033667 7.6776859383348475 -2.0518974171092985 1.3633392783463876 0.7479701621726409
Ni 7.847283942284918 6.78847957130572 13.70205745996993 -2.411413486600324 -0.8593742623789457 1.005975993532306
Ni 5.4088310650267495 5.3091325182859475 13.43076019752786 0.9552702396473227 -0.039738970460834785 -0.566046872899851
Ni 7.823606824742662 0.057689217312625184 2.320657110980324 0.03869510257735271 -0.20435719279627387 1.5651040278251367
Ni 4.454134858171667 7.2564232996556814 0.9894994163258543 -1.1395782271022052 -0.13425863620697523 -0.6070544256604642
Ni 7.3678714638403475 2.029360220822252 1.0641586388805093 -0.2620578899418519 -2.8576454095223562 1.6665314764347041
P 8.828175710580581 3.6701498261942054 11.554751676950232 -0.2435760290875805 0.09952560360116407 0.3363599430895369
Ni 2.905582090295289 8.236210323044274 7.278337506469109 -0.7689650192567532 1.0211190198213318 0.07342864940379612
P 3.7441302859881596 8.803347036906377 5.238705966684575 0.01841244106891668 1.2928941370509475 -0.6171285220670146
Ni 5.9176971661632685 9.314544337041719 4.591985489410867 0.5041812457433059 -2.7956419712363663 0.7186289900063624
P 0.6304741735682612 8.501498896661266 10.915731646168616 2.0838629142723013 0.8702916806223979 0.5213706130383988
P 6.251292679119249 8.73237185774946 0.9097068748513023 -0.7448259601167043 -0.14617544224921922 -0.6105074172060712
P 2.1673129005316816 3.01633744835179 8.025018673342926 0.17296016654223118 -0.7743483950558535 0.1817091163794548
Ni 8.316800527790711 9.175749055284522 0.023632178766375387 -0.2538956658460337 0.3948620530904877 -0.9159305615074355
Ni 0.007651762818223043 4.173726258919742 3.166394574589643 -1.2244107474675687 -0.44689475331701106 -1.8069512471470688
Ni 1.2608790665237057 5.509400300550244 4.257326425425704 1.0512117254416542 1.2352821429644338 1.3762199909637978
Ni 7.600120674939893 0.19583569549304092 6.8874572251834305 -0.6795929591498232 -0.22491624789454812 1.4041586263555947
Ni 7.153522865133365 5.923117906003903 11.517946819503763 -0.07238683840284307 -1.5618430976856779 0.5720969357486728
Ni 0.4985704403373023 7.790792156104619 8.660983803589135 0.5300539997450098 2.4587654935217262 0.49878372887681843
Ni 8.078962056440977 7.784032615232531 10.980571746193293 0.2276930393087369 1.023581108208579 -0.18801860353725036
Ni 0.37366030410281065 7.322614371630277 12.911075086098014 2.3437777897292214 0.8762558686256329 -0.5231801554433119
Ni 7.271150111001655 3.508566840167396 13.021764908439687 0.23729585250582363 0.8282595432520122 -1.543222140150381
Ni 1.5034267470959612 0.37666090361735916 12.79125988357902 -0.46697686877886674 -0.772212065439141 -0.027655556933739465
Ni 3.320029950857014 6.729722121841425 5.5118129510803495 0.04380928387546649 -1.3474858562538987 -0.3786347925983479
Ni 6.094559335989588 1.6434016717200315 3.195595416667262 -0.1463032260763351 1.270268686341948 -0.9187199513271145
Ni 9.195643825856802 2.3378087437748722 7.092694487080558 -0.486714199306794 0.5645476626465052 -1.132295577397863
Ni 2.428912749628449 3.678987785450785 2.7334750046918677 -1.480896285527966 -0.21826069025124348 0.6292235055583357
Ni 3.241480715515167 1.5865634824756512 6.62714936589324 -1.774608826260621 0.5268876862018862 -1.6051366182669904
Ni 9.279005255115896 2.367524509326126 0.23254412181626458 1.7530575824524068 -0.7221115492383241 -1.759282994536828
Ni 5.493063183068537 5.080160092927718 8.684716158376746 2.3300249589195032 -0.540847747926404 0.4803556040786179
Ni 1.7889003208794643 5.9255146407175525 8.845091414801756 0.9209187587506463 -0.4282663395825463 1.2707862494083146
Ni 7.705820420709792 4.837949453174569 1.487457565841779 -0.16540575123374093 0.16138300322759302 0.3062615810422596
Ni 7.8933461875628534 6.24101293413649 3.7501530181806997 2.3943192501221993 -0.7056181795689911 0.07880431189341268
Ni 8.853865710792503 4.326677255079427 5.471075014519805 -0.3157666923192175 0.22909454764195386 1.0731429782971065
Ni 7.353902994337363 3.0596284691170705 8.821509792158247 -0.6397550012172788 0.894587062834653 0.8106644558780685
Ni 5.989973697371737 7.805968355209402 12.517084667031577 -0.2271924455232345 0.28570998214315313 0.11079114921265436
Ni 4.181702891638604 2.228336013279972 2.0030448226459874 0.22960054074409492 0.28646125848688087 -1.5090395807314012
Ni 4.877738994319128 2.879349079874806 12.541256111108522 0.13931625323554073 0.45126691424277765 0.9820809320822635
P 4.41247286803207 8.59490601477874 11.276232378734301 0.5034289409583136 0.7179736158105505 0.4777276795374676
Ni 2.7289446143483733 4.412313709867492 6.3795020704829986 0.8913335888943618 -1.2816463320512703 -0.11245285318579344
P 8.68193744406811 2.1615644821169147 3.077122760077711 -1.5555552077944372 -0.10784903586519491 -0.3592394187908717
Ni 3.940428476382975 0.1378946337905831 13.511166902272786 0.5740034087427662 -0.08557942583371714 -0.15829510833088867
P 0.16795024883443654 8.163343970402368 6.635384396573417 0.2870148169975057 0.20984469827340632 -0.6317521855174604
P 7.80953537054495 4.725761671636864 7.470557502952731 -0.46645519194744184 0.08618749173136124 -0.2705330172923986
P 5.876915227051339 1.0848969477250534 8.172554547008959 1.2087776689160021 -1.7175185090055325 0.935080394963009
Ni 1.0145864879613742 1.4621673334902976 10.609574064561427 0.3228703932435343 -1.5934370704418752 -0.9187518330063146
Ni 7.077960185938603 7.433341642951852 8.427573674112665 -1.1942907881537368 1.1783386356998544 0.6827549018175725
Ni 1.4339776138699993 3.6352754636616216 10.801219219203572 0.8705835008312038 0.1529055618842012 -0.3551243681812336
Ni 3.1166164542810537 1.6300136614055096 4.019751033159772 -0.06967869544306064 -1.2154905621598036 0.7712656423654717
Ni 7.741846339374324 1.4645453437139957 4.9189703211898665 0.8574798735697103 0.8078426701585572 -0.7122367133267734
Ni 2.8039923700694986 7.382841693555677 12.136481322055165 -0.33979365136143413 -0.8145720184625906 2.550127844585808
Ni 4.808795422321827 8.32062032374059 9.140190312644252 -0.16563457941509538 -0.6285169664096143 -2.388784693457215
Ni 6.219760638042808 7.093314267697916 2.469398841799162 0.009072651725229535 0.564329633098428 0.1879116456457409
Ni 2.2366777735528665 7.943602718589675 3.6181828130104168 -0.09599882139482821 2.0262426926556714 1.574807628266146
Ni 0.5691851730626752 4.62569799734203 0.07890125575291389 -0.06135474895839756 0.3804106535518481 -0.6630509956307419
Ni 0.7679006951100846 2.3707638460875424 4.683491135573879 0.5555940529976432 0.5989030001979234 0.7261286408175172
Ni 6.851861969787757 3.8076905671247263 4.161874593005649 -0.1588260411336942 0.39127510707017776 -0.3474843351374725
Ni 7.533386592756737 6.60480168713746 6.320717470508275 0.993544966857805 -0.478328289235944 -0.665604615290531
Ni 1.8230444283039833 8.254541598705696 1.284593633045863 1.0287397695913831 0.3284735983629246 -1.3914545485253649
Ni 3.407501405660217 1.2169514131001127 11.09205642313336 0.3257903951038067 -1.30608749581277 -0.23679525872032123
Ni 3.2209025010596983 0.8840000225984247 8.67474068635568 1.2489917792410423 0.2058908558319809 2.4770758617951403
Ni 3.465753293895851 4.014268502502301 9.554845078819929 0.2891470328491601 -0.09065066970903743 -0.17655534009265722
Ni 5.294227824285445 2.1121786398727855 10.153263861817635 0.22475195440254195 -0.6348259393467776 -0.6486178509245475
Ni 5.288498130360628 4.9853860870438655 6.185473288270169 -0.13275711196078427 -0.25654364499184207 0.08285894157876052
Ni 6.253314924033891 1.0686628149380735 12.41857699785162 -0.5748264188646939 -1.1021614770166437 0.4843629254657981
Ni 0.2225733309176869 6.46556637986643 1.6876251720848405 -0.0061171686413314 -1.6536690186497394 0.03747305724479352
Ni 3.8555410011929245 6.278330842607599 7.964398137128568 -0.40400129638759447 -0.02954583197791686 -0.1968482860137384
Ni 6.525241329338293 9.236229157824251 10.106799040005766 0.6790391435288822 1.445680656858781 1.0389568193337009
Ni 0.36405370453376784 4.211783784743891 8.436630709901666 0.5963120995422956 -1.414824333599557 -0.03254888047029878
Ni 8.654000505062141 6.088501963490641 9.111894799655733 -1.291125218075983 -1.774560232410873 1.352415175234716
P 1.8551194795889852 2.3679270858600594 1.0128694522329242 1.3070408608649748 0.48589093207455025 0.6647404675180228
Ni 5.970612574763043 4.099137253202401 10.959003942443946 0.10779350003691114 0.2976707540494551 -0.7253560243175508
P 6.039631044720148 6.249120638285005 4.665965012980323 -0.936547980647471 0.3254556374722072 -0.4132654952983399
Ni 8.347480604574411 8.617731168028254 4.889605639825183 0.6458575145705909 -1.2223754622050949 -1.617858436709033
P 0.2348715759170969 8.220425578016103 2.747575481849002 -0.5670997396443975 0.9926656495766453 1.4630628568909705
P 6.049517575413947 3.4796655899289837 1.1321276011758936 -3.7838526703654516 2.2059720596009362 0.5732482757442966
P 2.201625528365754 6.094681045174267 0.3946373501942221 -0.03634999938394385 1.1109919308240803 -0.3766884675052545
Ni 5.106692695187408 1.7777592493589878 5.480515902352787 0.8135770015391731 0.8658547278969669 -0.4508668505908816
