# total energy = -340863.90704511345 ev
CRYSTAL
PRIMVEC
9.33250248403099 0.00000000000000 0.00000000000000

0.00000000000000 9.33250248403099 0.00000000000000

0.00000000000000 0.00000000000000 13.65906072918565

PRIMCOORD
 96 1
Ni 4.824297216123651 8.41013401117217 2.1064596866243237 1.4282295512618695 -0.14807111661003533 -1.522709879129642
Ni 5.6330425563541615 5.874493062850242 10.399680771848377 -5.224307045828287 -1.5240219130728463 -1.238741562267944
Ni 6.197602966835527 2.907886478339288 4.706994191568102 0.2841380096703429 1.007998937499606 -0.17289280363940546
Ni 7.136928683028203 2.9995223210760313 13.268002105541326 0.13842922264489707 0.22480569045861282 0.16896184401611547
Ni 5.56684711562377 7.987875599881136 4.411084799573906 -0.6716222822395208 -0.3734141676293569 0.26452332076320895
Ni 8.83023661436949 2.218923808597227 3.409096928123913 -0.17645455284873482 -1.74301845304885 1.0563235927469228
Ni 9.132805680197775 2.0296326589659657 12.248011836633427 0.9382893888186099 -2.9858362422686966 0.5680675028743055
Ni 2.1730452259621496 4.928569267340437 10.1433001277405 0.4388302311413217 0.13853592342609045 2.3624843649997893
Ni 0.6627794005311226 3.1133321899195563 9.83617680065796 -0.06443775875909548 -1.254991448467903 2.394673291027508
Ni 3.22369836531468 6.578266414171202 11.934317494491212 1.2942041141116227 0.963172782323851 0.5482067593946365
Ni 7.233594744650282 2.308749145835352 10.808183074350946 0.05472875900144768 0.8278962463753226 0.9099283211774135
Ni 1.8516804999574914 7.358015668916119 10.532611071957719 -2.99753656142476 1.7893633588619764 -1.6093617120919315
Ni 2.009558445937477 8.137270301024815 7.9531932205795215 -0.5693337711812388 -0.6708640639172576 0.15110193301655914
Ni 0.8006587267534376 1.3557326483721992 0.9524406820545719 0.32408395393566125 1.5643920893597767 -1.5386221794845245
Ni 7.711213561187711 5.901603982816658 10.578764963418617 1.7606587918384322 -1.1117131252608208 1.2363373237018256
Ni 7.358314308998365 1.3954331143058076 1.4355264785976216 0.03600367178811864 -0.2211768354567739 -1.0067326691926726
Ni 7.646315338314576 5.254870887204729 0.9834087253332493 0.053807018518126686 -0.17784757654151953 -0.11451847746557052
Ni 3.974600854615124 4.547532519901954 12.131772717370879 0.33582566785262163 -0.40705808093604734 0.17655739697518627
Ni 8.729510914129376 7.2089196078546856 13.580999309741548 0.478708298283182 -1.0486282809851941 0.6951843858301768
Ni 1.8240002973342937 8.748026599228643 5.636370526770693 0.8289547695468239 -0.08837318652877038 -0.35827808331886685
Ni 7.705940697235551 6.770105337004127 3.9230322451629993 -0.4070647658042667 -0.17574261438337474 -0.20532058515080767
Ni 2.9752204843832435 6.100134309992412 6.644463721402108 -2.058416963395371 0.3946913318405783 0.4534235555744643
Ni 6.368677071449768 6.402078098148494 12.981092979025828 0.4051341244404571 -1.156965569340717 -0.2511615547443223
Ni 9.096091615086628 6.969354266877786 9.355309339975845 0.987846373811131 0.8362842133287016 -1.436103297582991
P 8.577820417353431 4.2672028076984425 8.843381444239608 -2.1578232678098517 0.7502576726552369 -0.23382769145156507
P 2.0910031958675668 2.6469310414715013 11.838553885867672 0.02789698352058421 0.129317490151616 -0.6322337531395692
P 4.117770776544483 3.2341601006958687 3.6823460706274176 0.21863709975405574 0.8419162148034984 0.08320964004995991
P 6.2355675872910785 4.291672629437493 11.637315266446047 0.09372288087645796 -1.271446765810449 0.9538057392866541
P 0.9834311233394177 0.5735065474451532 8.704209566411322 -1.0055851858517908 0.36417593686054056 -0.396986041412026
P 1.496438789623026 0.9972058971330253 3.597946650383604 -1.2717480991009518 -2.392116071823293 0.7990178727780755
P 3.0115799143967226 4.518480439400937 0.6292925148087496 1.533313108566785 -0.08400462514742951 0.8928155727565269
P 6.669015669163777 6.909234285320591 1.8510626882873442 -1.0112907208770001 0.9315168459814666 0.4974750373677239
Ni 3.0200538267304595 0.7689254182640043 2.105667357156114 0.0031987094429557815 0.7323890199049323 0.18333893867339393
Ni 3.7789542707335606 4.117537463980228 8.688268718771171 -0.6499584241128419 1.638092761478037 -0.3503457158456676
Ni 3.535478611179748 0.6660336441773496 7.032585704791884 -2.2400378909363936 0.9899209969519726 1.933834416825579
Ni 1.0836901984510205 5.171344989201485 8.2085902189165 -0.4095913888808624 0.9951976719698796 -0.886987396110524
Ni 0.021362098383175904 9.072965673717686 2.1387492122669403 0.3761549635992877 -1.7967110574762992 0.9714157390589335
Ni 0.4650059393138114 6.591191930230922 5.038185109528918 0.5101747443225795 0.07985897841017214 0.7536839247279665
Ni 3.3242094179956783 3.028163771463959 6.364698625604094 1.2198910052203444 -0.8230160354648858 -0.20063680652189317
Ni 0.9144471308410518 4.727659152009283 1.3176243073770655 -1.5300830316652618 0.13864545242076123 1.0900595515467872
Ni 6.534683627168393 3.5857434700228175 6.8842894392007175 0.18950958626048006 -0.04355782998629273 0.9311376082651771
Ni 1.5723773630367013 8.420511754030226 12.66241414726087 -1.0147313711274328 0.36090163698464295 0.021542759167782255
Ni 6.0724074448563625 3.3356044036338863 2.240481889534377 -0.7650106625946954 -0.5526609385112482 1.0923774010466862
Ni 5.714823276376779 0.6796796294354884 6.464368819803517 2.953623662091894 1.2852458764770704 0.5259906283089135
Ni 3.0839534718285835 2.1188793810447386 0.16439203277398146 0.4502431009639536 1.1430327613097089 -0.742452060567889
Ni 2.456417334003544 4.424959431145015 4.408652749404113 -0.20886022287294995 0.6949506725528161 -0.035376322616764884
Ni 8.858196792069792 4.1244155183744615 12.120764097339077 -1.5820668809317204 1.9025559184272718 -0.8340483820196475
Ni 7.164142260522891 8.047584951325243 6.349892610276479 -0.17135734083148554 -0.007516620092019312 -0.8341165162534215
Ni 1.7601846447593015 2.8056675776879447 2.686736964684153 1.0476615461965504 1.8564892059761962 -0.6369111040105805
Ni 4.3975218735886425 2.6667439444280245 10.972323129555532 0.026983727677695465 -1.0602285842282837 -0.8816580134778107
Ni 5.255178859789544 4.205477635699173 0.37384418770763445 -1.0251325118560992 1.0376522415896645 -0.5577460663436393
Ni 8.006540605021526 8.967023104540834 8.344894218704965 1.027571717425211 1.4630489729338996 1.8429310076757874
Ni 1.3170960877315927 2.637878513978412 7.766227730588753 -0.5052199714204654 -0.8518671553686232 -0.3186501845145996
Ni 5.511580035403076 1.2736439557647656 12.725122965031037 -0.5374693183724744 -0.2560615631491009 0.3332561073532325
Ni 1.2401496040403364 1.9680474745052505 5.485260511654613 0.5422320298684403 -0.5527452706949383 -0.7709259996378659
Ni 9.02520192556343 9.14696308659676 4.721760077134664 0.058140355786157935 -0.5218511522192432 -1.002236581094532
P 0.8117597385606844 7.016754047431806 2.0827196665862617 -2.0878077578526626 -1.2249815323693742 0.47884610941262695
P 4.178376048235328 0.17636470032128437 5.179270150384094 -1.2227361879786232 -0.7358751786813197 -2.7709102728176407
P 5.50641916148176 5.915126779040871 7.719841459813856 -0.03468392453543059 -1.2588411612312964 -0.5244875614008258
P 3.6959416603716777 8.602476889143885 13.274462997070671 0.8298469423437901 0.056771500463089326 -1.5365259590771279
P 4.850418890817626 2.477527454817325 8.14043121964534 -0.059891277038993634 -2.200288121842281 -0.8407085676486424
P 8.766756931887024 9.289862365951583 13.443534346633347 -0.10995656912650095 2.1964263248940306 0.6562923367506698
P 6.149689898640147 0.4745633551959479 10.687040658238018 -0.30144230527674537 -0.6046622712792038 -0.8410068156153516
P 5.010247329834782 1.3256633250910315 1.314344865973899 1.0291827706660728 -0.03381592010818047 -2.456590340247279
Ni 4.684860295222371 4.9231844133574345 5.9114777705359245 2.1239721235883615 -0.189467420168635 -1.331403091759423
Ni 5.601022740035824 7.746537083415898 11.28170118925903 -0.23806255546851907 3.960645837500527 0.9942157676725846
Ni 6.152386991882933 4.013321407778863 9.191974679743067 1.1076546389207311 -0.1855562580396869 0.11948584877317486
Ni 2.8856751222222248 1.5437545776539139 9.188846424881538 1.1282494323529473 0.9348232846468805 0.6253761067877874
Ni 8.860501920204632 3.4235165778451213 5.995166987334146 -0.6366264828906262 1.4269038904719102 -0.5304741180015637
Ni 2.6991183958440303 6.079378824276299 2.2875652982512666 1.041855995258367 -2.333679010732323 0.7595139011461822
Ni 8.515423305169108 1.2081484527271382 6.653533047399823 -0.5334321721886233 0.03419772892763143 0.4726088702536635
Ni 2.4070203978995033 8.064962071110944 1.227777505383029 -0.3910226247397395 1.0415932285152836 -1.744166450610364
Ni 4.1081862964048925 8.706888927899225 9.143648181683826 0.9868827243462811 -1.0073026827635296 -1.20746152120774
Ni 3.6722651013510936 0.1133385774637308 11.181279728602707 0.3781519394246584 0.3581613552353444 1.939184882504215
Ni 7.1776463917419635 8.928227891356535 2.8406336650676933 -0.5703251885602307 -0.18550020799077085 1.022421283572523
Ni 8.56772264957248 8.755287286228254 11.402296720721345 -0.5981596942739957 -0.36502928599977136 -0.8583910725300701
Ni 6.483476185565734 7.358183653962382 8.820898512297752 0.18726012810467105 0.6034800780456445 0.1829154779827301
Ni 5.060381533641869 1.3338479298450923 3.361562759532883 0.15866843250990736 -1.2828079564595392 1.8680342305013182
Ni 8.773037706116765 4.527094339273227 3.5675012272488575 0.1098203006589528 0.8800155927783812 0.26903277859778824
Ni 3.0538468185371346 8.077924917180946 3.3531084454545437 -1.2303769923533325 1.5138426585469993 3.114233277488572
Ni 6.510895078116966 8.613647894720408 0.3058970362448172 0.5885160005366445 0.07868886936147092 -0.11078780677854468
Ni 6.7938752210504125 1.706793397555217 8.619769083156198 0.013086915090945204 -0.7044318725703739 -0.4245495528525914
Ni 4.237469454509801 6.632973544237684 0.33122264846955485 0.594541380795118 -0.7003047377758779 1.1403449300649007
Ni 7.983144021078047 5.667554150858743 6.846440541777035 0.7536152762735601 0.5231786127814152 1.7025762858734033
Ni 4.600699787044354 7.836763718264542 6.654885327022244 0.2716301070113193 -0.8132700118217154 0.7626815002408864
Ni 1.593002193716832 4.73231607079181 12.757740061513868 0.7048435061864957 0.010098521886582609 -1.8008803583626405
Ni 5.2169062667491755 5.537757705112473 3.298062545544764 0.4014985845703989 0.08631527555847715 0.0012881226838042331
Ni 1.3550327106794344 0.7301936660971818 10.830255376179714 -0.3831270240417466 -0.09334004361574248 0.19593194484705612
P 0.19632319031790296 6.169586794119801 11.81450029374325 0.6520469312107544 1.6175666165002272 -0.936954214946954
P 1.575531748905427 4.2225654479052 6.380324967907628 -0.513139226267542 0.7670325781207306 -1.0767291529864684
P 8.135917088152135 3.4001013288965027 1.754465687184286 1.7317500792238822 -0.4355528459416306 -0.5075319073830936
P 7.249842631624991 1.0290670609076704 4.778376637227008 -0.1928779885120807 -0.6802619601923897 -0.11260686226515446
P 3.504084072533613 6.448432638414653 4.514223884978671 0.6320401490715244 -0.7005973293156321 0.8589626287628239
P 9.110426339034447 7.652017497384965 7.1359711682645015 1.935978973972408 -1.082640890485213 -0.925509206334806
P 3.5113540920357944 6.589978704896796 9.475809679911944 0.3228269416001085 -0.3408909981906709 -0.002312707293576662
P 7.009586685457896 5.024852696357137 5.136817529442535 -0.3919397372373702 -0.7114445564427812 -1.7460430988077864
