# total energy = -340867.9010593829 ev
CRYSTAL
PRIMVEC
9.21718818321371 0.00000000000000 0.00000000000000
0.00000000000000 9.21718818321371 0.00000000000000
0.00000000000000 0.00000000000000 13.49028659378909
PRIMCOORD
 96 1
Ni 7.264047410448159 7.613618481671099 0.39119681384673205 0.21504012643141676 -1.585763098836385 -0.44558786158012936
Ni 8.647021946109806 5.243252683952882 1.5659255781021113 -1.1679958590129498 1.7524700853800528 0.6326263605922976
Ni 8.799889008711515 0.3212936602277166 1.1934249083483128 -0.36410471730297295 -0.422619168599098 -0.3995810558327118
Ni 6.380561508458461 8.37277373503647 11.628788708762631 -0.1248093178686173 0.3468628995033897 0.4638815176829946
Ni 0.6553475954910561 5.19105574843805 9.634708158181647 -0.5187005224054034 0.5506228250352968 -0.7490752223113616
Ni 8.682554205761878 6.354467649295033 7.722824646543654 -0.5340831755090608 -0.9991743972294403 0.01233641007816585
Ni 1.5680095843037538 6.390847890241006 11.511409663310701 -2.886906106159686 -1.298491685743383 -1.1059499975247984
Ni 3.1800957615144343 0.42226058076746065 4.317998172925745 0.29320346230672084 0.35794692523169325 0.7753333846769421
Ni 6.629121416639366 6.448741047925742 3.426815918975093 0.644388129113916 -0.6026406128634847 -1.9936457325562569
Ni 4.107796514230717 2.043072669836148 1.2043657104772387 0.6135837421385498 1.662450878607427 -0.7387612419798631
Ni 5.473903595894105 6.353923835204379 12.91217337176833 -0.7177761550877638 -0.46085327237963214 -0.09828967431153394
Ni 1.7835166563984535 4.848959816664611 1.482676858010921 0.31532934767148274 0.6366925602418713 -0.8975129782321962
Ni 8.34511295391692 3.7307397884597933 10.860597846023222 0.6015005857217706 -0.20562243266194263 0.8970411808021003
Ni 2.0371921039067 0.9841007259487132 9.233561389913538 -0.9545606151748077 -0.2280535079719492 0.33317640315523267
Ni 0.3693096792760946 7.235547865222684 0.1810679709367235 -0.5045077758447892 -1.76880044710896 -1.1315646127691092
Ni 0.35931087375843795 7.656671966712557 9.579479689541117 1.154319904187754 -0.19892085227205095 0.28018313878765294
Ni 6.62015309273756 0.8927814360646948 7.829289619711793 -1.9680694267490493 -0.6183904194985737 0.8440854545406754
Ni 7.578943420500908 1.2867839619316839 11.408249052032385 0.44593161807279325 0.5565597593450221 1.3497756807293397
Ni 5.911028735712382 4.332124435219588 10.85290794609385 -0.165785760280979 0.7489104145987231 0.3419860310270626
Ni 3.878371488290459 0.030054484837226222 1.849626015446057 -1.08725010712245 -1.7751461868213299 2.136675687197959
Ni 3.4177425191303463 5.052770277216254 10.262924039143044 1.011527776588471 2.5133343299065425 1.2749568358462366
Ni 8.588714014966097 0.6630863465167055 9.515764955929987 1.8470997943414962 1.5941112136907643 -1.784069714563205
Ni 6.716712353986612 4.86756931919056 7.10831472410434 0.2084835562598216 1.6414148838727345 0.23204103186478747
Ni 7.060061823324948 4.106856361057043 13.019650392176361 -0.5982365702585181 0.6167338577317573 -0.6280878492919957
P 8.502312094867909 1.4687773385413172 7.299850655426758 2.7160902396539672 -1.3151215809905803 0.2575278632819823
P 5.880787141959218 0.6286693666098748 9.850405104348676 1.9710246527226316 0.9402164306379936 0.7533458246622574
P 0.7040281737925895 2.091850028611442 10.785106311333635 -0.5067397504991015 -1.165602933300741 -1.8081303550568342
P 2.743726431110288 6.824756231455243 1.394949506281614 0.33926940342684797 0.6884555517467756 0.6944469934435201
P 2.3774077293327918 6.4435333367186285 8.905558538557223 -0.7250109822733063 0.19943430157335976 -0.2630307953780825
P 3.5745084522464086 7.115484774631796 11.636572624009368 2.126369420175944 0.6962547360762202 -0.11032115155477129
P 2.1623891682008836 3.9571047079916233 7.209397781212596 -0.4413028610515303 0.37270685714968715 0.8366428822197012
P 4.568462352142738 3.426996575859446 2.9375371644254775 0.5738979935131535 -1.7775900203761321 1.0998567401428672
Ni 4.157191424600483 4.851079769899365 1.4735306423811545 0.45112524645859076 0.6183233137060641 0.12380427364287065
Ni 9.03569232873199 3.275244793002976 0.5247547893550253 1.2351152783692663 -2.2511975070976393 0.2698287921365224
Ni 5.999458437165551 4.225048362488562 4.71154997830065 0.2722376586883311 -0.05600171217660033 -1.0932492621286782
Ni 1.5207622787326736 1.6078923566810586 1.8928490967462959 0.3496525464333849 0.4191306958298653 -0.27222608872410536
Ni 1.6200313932470192 3.823888690157284 11.596465873964219 0.19184800458566958 0.16515044068982523 1.8114614763125962
Ni 4.264968003617775 6.6312874558140065 7.4102006733272825 0.6633921810202447 -1.4013388975186125 -0.08418460236871954
Ni 3.030168981877448 7.436058572478495 3.6635298971677135 1.7843911024583656 -0.5243947445767033 -0.5397408880154704
Ni 4.7441235206120425 9.068385694487086 6.600554585941659 -0.9546755434861172 0.31968428220606876 -1.0208544533060353
Ni 7.618872278818098 8.520350131739272 4.075564007874481 0.2571331989467249 -1.7038986042292525 -1.6043897127986368
Ni 5.926384570882381 1.6875104264280334 3.019099139116842 0.7318693999560364 -0.9196054392558615 1.312153756611508
Ni 6.255889823878977 6.8046719788529435 5.6180161733550795 -0.3048996676977265 -0.5598980796896357 -0.4570392979501806
Ni 4.998232175955216 4.278720048079744 8.683872263642614 -0.6645730887022232 0.14938160789134272 -0.9883194567928075
Ni 1.9539148105327808 8.70869415086519 0.42546355358953447 1.7328402269642673 1.0193734978851348 0.44923188609061987
Ni 1.0721064367549316 8.974785150578713 3.370305339486936 0.3914525131883065 -2.483791326142103 -1.3291927143716655
Ni 7.306898117354119 8.049075310465504 9.478234409924461 -0.4712022197141239 -0.39577865136748613 -1.4797194916110452
Ni 8.178171245274038 8.346348057105864 6.5700797973326726 0.16598193545218512 -0.4740432887073449 0.8735302421643536
Ni 0.4677464817160998 0.5345766248635198 5.490020770791021 0.705903572019894 0.3551300246081884 1.7137112194443005
Ni 4.607515577602096 8.880640792579685 13.213250051886874 0.6037392452443022 -1.1324218185630819 -0.4062466407783455
Ni 6.817483870141239 2.7680045042422083 9.274032218883786 -0.40505827689719914 -0.9010014510014289 0.010381600344640186
Ni 7.567698451168734 6.274702104540423 11.497770990260852 0.8725280261520844 -0.6092110669921509 -0.4155980000862584
Ni 7.694508523358926 2.921267905926938 6.058218010520142 -1.9844105871112339 -0.8622855224884698 -3.0894810102445565
Ni 6.29062940536501 9.158575878843898 1.5645761817822503 -0.19824285236841988 1.1049508668363228 0.5281963777109807
Ni 8.207352862409826 5.1858203856670055 4.640078059287916 0.15683086508053634 1.4660080555622237 0.8752125149627829
Ni 6.802948364701209 0.6374754680032831 5.583575228759508 -0.676235612641816 1.6332184641048713 -0.9008255875451969
P 3.9031749411370797 3.122202603829699 11.116953651795235 -0.8961577497558825 -0.9670569478696054 -2.821163512546238
P 7.148178140386892 1.5649033919554405 0.23335339145613634 0.4015713467898632 0.27472083012150106 -0.6298680811208701
P 2.350318413867828 2.9610585064244708 0.3961040447257884 -0.6789301287548437 0.2761534488029696 -0.662706982027762
P 1.4924194257028118 1.8743059579737833 4.116547312496262 -0.47558800748664537 0.6909374376283649 -1.3402194044994724
P 9.132915227515399 4.949703681255307 12.666744542343274 -0.19884988982479948 1.1842192628503474 0.043029725396964605
P 7.96056265432054 3.2618983048120036 3.8612035539641436 -0.5924580159035281 -0.2387881207806339 -0.7823051880090849
P 8.76519551316537 8.246074269102005 11.62305561784082 -0.17209164789434878 0.43160594547874054 0.1773762933320558
P 6.423900726327212 5.288121955025846 1.3799614369119038 -0.4322281524437717 2.5355800286786203 -0.680910392409666
Ni 4.880473382358626 1.9422274161777024 5.020248351157535 -0.23237167573132886 1.2776986602574318 1.642637700536242
Ni 2.0154487574685067 5.805952792772406 5.7845136135374595 1.5182986374358238 -0.7636040120551558 2.413571670593908
Ni 6.352052746045009 3.2033599439688643 1.594632510057072 0.7964092315106348 0.8277964875726648 -1.160050378913628
Ni 8.635270031438887 3.5877258998057 7.868519815180312 2.610730802979846 0.8448457297454677 2.136441716810282
Ni 4.262811181631113 1.7993241337793355 8.729011598323313 0.562675642434773 0.018065085031826956 -0.13267226555646183
Ni 8.591359347915551 1.279391777173977 3.3954784015714417 -0.6561067031024249 1.7645421860532386 -0.11362913288208172
Ni 4.955132604973872 7.098801664393081 1.9393903657183231 -0.48160721709753185 0.04002436291173753 -0.9146786913782052
Ni 2.6632511628814344 2.560396562243962 5.7214864821494285 -0.06037541576426377 -1.9102635714841747 0.012153604643398423
Ni 4.477424186492025 3.888630218509073 12.883560455130732 0.45771061298559235 0.7195144779351093 1.5128026473182592
Ni 1.8827212505969584 8.528516560287063 11.203520559558214 -0.08904270179196924 2.2321721150350715 0.4631546668192992
Ni 3.27378847730258 4.654845837864971 3.9985073946663676 -1.5373980772694362 0.21993036464418253 -2.1976332007179376
Ni 3.39371331007381 8.335268997157279 8.591491153703625 0.2951335894498982 -0.0651602387474168 1.4538413382927027
Ni 0.7942699744020745 1.246855103614493 12.705664118576962 -0.37521239718036026 0.10218643826277886 0.5304867164070541
Ni 0.5382118838017238 3.8034357500358977 5.742976355918249 1.3071419052192133 0.0424828517545591 -0.5583867852514318
Ni 2.853687483678175 5.53682012102641 12.997216678358676 1.2407539647122825 0.14267282841259943 1.1228406026325501
Ni 3.1370054077210674 1.1243310238336948 12.256828541433665 -1.004398621742857 1.7195962174701676 0.5718853339584989
Ni 4.0849010192953745 4.3866901880445575 6.002043858393153 0.5697325492815543 -1.991715091192447 4.08892151665119
Ni 1.2100877407734787 6.159911245472489 3.757138736545266 -2.081117233206364 0.22855435886776768 -2.4132127445925926
Ni 2.1721040843288426 3.4539568506927294 9.345058947717222 0.0018015719851130262 -1.904763724711868 -1.4535729151226644
Ni 1.3950490519117673 7.7680155974770235 7.308281617269496 -0.4670604296316085 -0.8777429946941205 -0.16703428797609943
Ni 4.182188438394624 9.089953914353712 10.61635619040963 -0.8573752296710461 -0.8439443009771207 0.9433192379330334
Ni 0.7872354165378823 3.8907778233077583 3.1210320209565956 -1.0552329307859052 -2.3860626665403615 2.004602745788393
Ni 5.386579956998199 1.949057352468801 12.060261868913294 1.3276032583973587 -1.5666757431876308 0.11883664522495017
Ni 5.450482721244063 6.898272522761317 9.842930886617971 -2.1768592013953802 -1.5118467111628933 0.2361583964672707
P 7.588520078809208 4.956201798779226 9.218235971463862 -0.7717071007782645 0.9457075356595521 0.5025251981971216
P 5.301698872916248 9.067399455373527 3.9647273224487605 0.016051654146223965 -0.7465910224369272 -0.1125677814971029
P 2.564922201540763 0.24729530999043522 7.094136845557824 0.27089117196276574 3.0285733761259066 -1.5005500552031512
P 8.68769739665315 7.527336385016616 2.2702671362859252 -0.3832949170781786 -0.08393957623744898 0.30210307878919584
P 6.265374310307507 7.74040090229736 7.433889768147461 -0.03478882554441105 0.33636739928870457 3.0472940924638614
P 4.13744820795334 6.248857109452381 5.276118411123151 0.6047869697825262 2.6425060385089134 -1.644690469300213
P 0.2749533259535918 6.961944857307752 5.5282518230828135 -1.3649945545616233 0.5785174945630359 0.1516578055200291
P 5.690184911778889 3.05739655516207 6.8813414701660145 -1.6240095439120934 -1.6746872727726192 0.46145465340905684
