# total energy = -340889.57375627017 ev
CRYSTAL
PRIMVEC
9.11858772158762 0.00000000000000 0.00000000000000

0.00000000000000 9.11858772158762 0.00000000000000

0.00000000000000 0.00000000000000 13.34597485151393

PRIMCOORD
 96 1
Ni 6.29385878295633 1.9441557922534505 11.113219179375271 1.3315640428173194 -0.17963320768703256 2.696854274242491
Ni 4.760486236571823 0.226141880527301 6.05873874122939 0.1798656354128128 0.1654250345074506 -0.43923209456543066
Ni 2.624922175232822 1.6030476730617829 4.828252842896586 0.18512688381175213 -0.286117759104533 0.9457964958289324
Ni 3.6883318432218153 3.9375884310667746 5.069775044869583 -0.9650571438307571 0.9066835889878707 -0.2429329961869429
Ni 5.376419462807911 4.441709538036176 2.9610980504747793 -1.0983439030427664 0.7921496849033325 -1.3920528442309963
Ni 7.304444473868834 6.170311041646238 2.5551668049860186 1.4033929518341637 -1.6682564295456106 0.13031739217104008
Ni 4.987092253200142 4.737635056431363 11.428491604755301 0.3629353795852201 0.05842831934022196 0.809016378751684
Ni 5.538538829015906 8.185473274344126 12.462070725772428 -0.2863422164105133 -1.4461234008231545 0.2506401350232135
Ni 2.005159142269283 6.721000774703959 0.43126359327336183 0.10764283339165978 0.6976341329222502 -0.7034345416541112
Ni 2.603374953097185 1.7290300772200398 0.5927118314453077 0.6704560298455614 0.2294205635228049 -0.310817061623426
Ni 0.5206850210656279 9.02549578707335 4.461999306962966 0.717274532860997 -0.8682738788614207 1.2975465482212944
Ni 8.912862994936495 2.1078344369147644 0.9950467060452424 -0.36989741272535004 1.881499611977605 1.669738413407776
Ni 7.108841654557979 0.42954109210475333 4.677497060364186 -1.164751126823407 0.14113556583246661 0.2722402297914924
Ni 0.7614266719532202 7.684789874841986 2.3310875489390734 0.6937818490556954 -1.2795030604560222 1.051743172465092
Ni 7.657835330350685 4.1151273286464845 3.8375684690856593 0.762758376225409 -1.5478208152646569 -0.863321419952152
Ni 7.727802251826242 3.77779430465759 12.592140080824121 -1.0380479343661866 -0.3283339874612668 0.7927142991575509
Ni 8.188956574748618 9.017170516734867 6.80568600817661 -0.04852520129389707 0.1920999726954756 0.5396570700524125
Ni 6.770004063640443 0.5804309178726138 0.4647826088672629 0.032500029510234354 0.20992080292698037 -0.6324780079398914
Ni 1.9575965901493155 6.575285747311881 9.316277510290075 -0.4721589272004385 0.11344915566079171 -0.25111167534299333
Ni 9.407464296611945 5.236713584542953 1.2303017028663883 -0.7655369674118107 -2.6368280142875298 0.5779881044221271
Ni 6.4461483118972 1.826097440586039 7.108052896743874 0.5968998537249656 0.9573947421894932 -0.616229407291513
Ni 3.419971814676831 4.585619085113883 0.588900261892749 -0.17009750028245546 -1.114844214690635 0.37661724794768686
Ni 6.1321953461206515 5.549134627628521 4.941013295257689 -0.745866999786709 0.6857733769289222 1.3167532030567322
Ni 5.26093255280036 2.789895659311512 9.304920309625691 -0.34582365960559797 1.4711145235508534 -0.7961261530525773
P 0.0717076598190589 5.610557432666884 12.331440577592785 1.775554220893026 -0.021579268832672513 -0.31035477727502686
P 3.99586532343616 6.29823570493056 12.908653545955595 0.8651165641793617 1.3099482643197569 -1.2460411812531507
P 2.492939740534891 8.733618921504325 1.5522699070082455 0.48371834990326373 -0.4993182612240497 -0.32222478923973535
P 6.36720870037447 7.666470632662343 5.9609528331726205 0.16846202156156148 0.8119991155290918 -0.5154840723506348
P 4.687783738862372 1.1551882506361315 12.825440964355524 1.108142377190427 -0.5121709488170018 0.9963646956947873
P 3.8001986740131803 6.287740210779855 8.178239498922967 -0.12192376879070616 -0.5384576504276727 0.19944972819232745
P 4.971380927030145 0.9138283595196792 3.9324710797919042 -0.07868269871388385 0.3816476112827427 -0.38435961089726706
P 0.16288897498846333 5.773980756879701 3.4458640437306363 0.4114829494766204 -0.6501509997396222 0.024493871376306202
Ni 1.406341504669924 1.1769999118077117 2.6205489006935703 0.02653378462447043 0.3548927117864017 -0.0482367235192008
Ni 1.6620540524268725 6.659368242154331 4.783477842958956 1.220794233760904 0.14855525533530545 -0.65602468491158
Ni 5.948063709817258 5.636253612090593 9.287409886152536 0.17758738090159737 0.10676814409619031 0.27846461343464946
Ni 8.627834188539651 2.229129887125617 10.366899271244357 0.2157939738783058 -0.37785574834047825 0.022801571275547824
Ni 2.273291206128109 5.369161067200646 6.752181784476625 -0.02361352565388191 -1.0127464794869203 0.8657737381473865
Ni 0.946883239012563 -0.23371669111895302 8.834888129965584 -0.6044480983858687 0.8763186035427682 0.799864794159403
Ni 1.4849346098696934 1.05268620915213 11.839187312184759 -0.5913532128751234 1.3280706849520805 -1.7116057430655234
Ni 4.1070664973439435 6.82867305527002 1.8526215877498737 0.6600903703405212 0.34338214004364087 -0.24777129811585072
Ni 5.386404316061623 7.737796223667402 8.053975036639594 0.8758725171442852 0.7446578099699563 0.6133618559357307
Ni 5.643384347473609 2.8828778955015633 4.59174951145404 0.7357926462698424 -1.2388485201594535 1.622069389466587
Ni 0.6326129463928831 7.188301025565149 6.916578061969965 -0.1339588455783693 -0.09687633890377509 0.6143229342974195
Ni 4.846355974553751 4.484676322083201 7.374718691741332 1.096267737240028 0.7744409547696598 -0.6391129967579058
Ni 8.205370032151981 7.52207780044998 9.188983853257037 0.27590456601695706 -1.158588706766437 0.3865476196875214
Ni 4.564482199413331 0.5210032597675042 10.56986534991811 -0.029688528203368224 -1.6315799000601838 -0.03980890446682176
Ni 8.23581699563522 7.123869086669503 4.780300927092661 -0.9215414799363096 0.6658601829447628 0.3328817547329493
Ni 7.420378194661255 6.288925627147875 7.243914378541465 -0.5566993702466799 -1.0881039704823132 -0.7393628801196042
Ni 2.2005431154814263 5.5399430914826375 2.5812714971273225 0.7805136433263009 -0.3728994327764674 1.2237584585955505
Ni 2.44788479996266 5.295227560185942 11.577312423031595 -0.6262094013223602 0.41091190746449874 0.1818618399072352
Ni 1.2823560711624093 3.465309431459898 3.7229934178227397 -0.9661354644966007 0.06525125579932632 0.07988854609652693
Ni 3.5556108029407336 2.6058460902951355 2.8205386724248465 0.6012499031635452 0.22349339940509252 -0.5176630822798247
Ni 1.062570757943933 3.567738524244329 8.345611171500037 0.18461986226834656 0.4477882116655579 0.2659703376223807
Ni 3.9708712752458166 2.4394774623371593 6.989914301506934 -0.9664954189391808 -0.5567374225734669 -0.21593487033154424
Ni 4.129188190488699 6.991129809213527 6.039920712316435 -0.3649724646199069 -0.063159149156988 -0.23998136975778667
Ni 0.7057987292369894 7.5991025086089845 11.27929692439371 1.247558903449258 -0.739400418225759 0.2790929910472677
P 0.00546750503280913 5.5574598979670045 8.35054979846096 1.1603650819405693 0.7047607166647024 0.07522122252784465
P 8.795525011677341 1.7186075317689042 8.213780105353715 -1.1155196434911046 -1.0478636349050274 -0.019132349954076724
P 1.9603959964953335 3.3601629996164655 10.679261955370269 0.10243017884246876 -1.3814285317479307 -1.405659122160521
P 3.906576115161865 5.958367713631591 4.175808792525461 -0.29283219501023117 -0.23846467600294413 -1.818502699430094
P 6.845943659893336 4.005704279290732 10.624836754338208 -0.12326999840595544 -0.026530699300676888 -1.4969191433187832
P 6.323083855721763 7.683522391186948 10.336003673258762 -1.0860290902311556 0.665600501525473 -0.8331978610938942
P 2.1122113588889944 8.495131385433462 5.903204818875123 0.7276347930493985 1.3549276572439244 0.21028255714177335
P 7.138130557435536 3.951731360196006 1.604372603817732 -0.08109619325138293 -0.24987060384704063 -0.3183393381424001
Ni 5.258470534189855 3.196165204394531 14.051309210005515 0.255381763473257 -1.4276181429301156 -0.5566957707022542
Ni 1.5506887439450547 1.4927765950735226 7.195548478867479 0.36041724114905666 -0.9062812113431296 -1.0968344083767756
Ni 6.92595926473473 0.42188603794357377 9.062277433255542 -0.005666454257157983 0.4275456593664378 0.7361466871751515
Ni 2.9315073223527497 1.6924918973226646 9.304986875314048 -1.1697390669563015 0.48921099758671877 0.33366902652093505
Ni 6.567516710807623 1.8843105028432996 2.4734761156307363 0.5534770066546404 0.6934707455731799 0.8112838346296222
Ni 4.152932992198897 6.818314339931009 10.659336018082586 -0.06300462585699472 1.5353512220427363 -0.41678070754044994
Ni 8.579496556486747 7.045622487792692 0.2919990546408056 -2.998511780853836 1.523143624232951 0.05058105538166128
Ni 7.60522108078546 3.863746109926534 8.315035635933805 -0.017382971363137805 -0.5343490275759378 0.565363216569265
Ni 3.0773135356192904 8.691190134116631 12.600855626705307 0.6835280325381712 -0.9328263088215096 0.5499977898567883
Ni -0.004320386732062985 4.566862150736818 10.416880072755088 0.06005351364847077 1.0838999597032946 -0.4082947815566259
Ni 8.580061908908418 2.4357388414841714 5.955627578103973 0.08356522361716576 0.28691840062895746 -0.09691233434803309
Ni 3.857071303915833 2.757141693204357 11.818687815746705 -1.1582976578885793 0.508588373672066 -0.5960706729554509
Ni 0.9381841065887807 3.5547992486580116 12.532991451494869 0.9309303773503773 -0.6130864907871569 1.2436937640668966
Ni 3.088620584052718 8.680867893127406 7.887417653921481 0.35857710261652437 -0.45836907250519765 0.0512765387867891
Ni 5.728004838975392 7.5136522256495875 3.631319698931234 -1.0178048678464342 1.3280709420623966 0.7277998578723531
Ni 3.264226341093809 8.586882612318261 3.9028037555353254 -0.06033864898905737 -0.7692930920201332 -0.4767298344005725
Ni 3.3378133417855533 4.468946758738312 9.36022545434632 0.5409667900027716 -0.39441905201579813 -0.10029359211544016
Ni 7.243650851364267 6.14621973361308 11.529000323023538 0.07717577515105419 -0.6797258851832616 -0.17737320800826226
Ni 0.4278587127209087 9.03361132990057 0.34691483567747955 1.4086197474507418 0.5556750427472237 -0.2094790874038715
Ni 4.657327656791686 0.3028346721032591 1.811395542046349 -0.28641857817440347 -0.19390617266627896 -0.45051178124430796
Ni 6.195870442258253 5.568101289516851 0.34986561057510634 -0.785474329765686 0.6786784177553536 0.22155787294527649
Ni 7.836039884813975 8.624460311184516 11.612118983172914 -0.40377838174351105 0.9000820245109532 0.05480794897881528
Ni -0.02302443330193971 4.935280439330192 5.473785003983405 0.721473401433693 -0.4716115393374007 1.776408598473521
Ni 8.100059465734516 9.028249600482138 2.396376635054673 -0.9693460010140984 0.14293688070726351 0.28824406141891645
P 8.723533763788703 1.6537379006758353 3.8007202572151098 -0.957214764968203 1.5552225070453667 -0.8352040928906455
P 1.722364389796785 3.5519177750249766 1.5356676948447439 0.34370378504911775 -1.1042199022075692 -0.05026223858966182
P 4.8531584407887 0.9398345709165633 8.325579458597977 0.02996800711700001 -0.792674447058551 -0.6189074683443082
P 8.450313528134835 1.3999402562826124 12.463031824889269 -0.41837607705202784 0.4945365235646902 -1.4232719501462778
P 6.380913937306278 7.598901899685166 1.4585280924839166 -0.8777687057257334 2.2749321317104174 -1.5544864002102905
P 1.6730145945373405 3.292521317939718 5.949568276745899 0.5007519083467827 0.5333049025821396 0.518023808053353
P 6.962816595192726 4.05657687865371 6.234959091064362 -0.40586457484857846 -0.7156038300267933 -0.28185692694565007
P 2.559833698041041 8.693551848265226 10.387572020843892 -1.10436928330124 -0.38062431222455095 -0.4055305885479274
