# total energy = -340866.76538615464 ev
CRYSTAL
PRIMVEC
9.27904467298720 0.00000000000000 0.00000000000000
0.00000000000000 9.27904467298720 0.00000000000000
0.00000000000000 0.00000000000000 13.58081981912859
PRIMCOORD
 96 1
Ni 2.948852523853086 8.292784192252492 11.097173127168729 0.08722518896725623 -0.1047544561002712 -0.1655754440423858
Ni 2.0562826695924223 1.677456396409145 6.199087487091993 0.8921817958272699 -0.13702205788472532 -0.4956341275042431
Ni 5.462712717804666 7.750683851001489 2.7850727478568715 -0.04838301928907797 -0.8042271848931569 -1.5517702868307082
Ni 2.7016866139235565 0.8751549434315257 3.6187726318146893 0.16796142777605913 2.489417928300261 0.17756141275966839
Ni 7.521612077962848 2.964664015782354 3.9249384186708967 1.4852334794507387 2.1281861616697086 -0.6429881634425959
Ni 5.779072463013862 1.5218746562811867 2.92304100560212 0.04152640137856074 -0.6793448476947591 0.46719027034125343
Ni 6.760897446891681 0.43944719919448794 1.1177045286927387 -0.22067855566411673 -0.1903927601963818 0.2153535439067775
Ni 5.259223270616372 2.574192541676992 0.6238051123101495 -0.38730532378915233 0.4946216270793288 -0.4213125339725325
Ni 6.038022759533868 7.885081532400269 13.151774433886983 -1.9348109218062353 -1.3282365211059834 0.8491752103587569
Ni 1.5038733098358932 8.752198967434417 9.106767962330434 -0.1120504755410522 0.05517715939277594 -0.016837383272312937
Ni 3.7916774202306467 0.4421297709766191 12.969560907969004 0.5196407748314857 0.12417117006398615 -0.6620909457103178
Ni 5.960848945933091 4.424536096317432 2.655905663876242 -0.049370837123644006 0.3588630092880594 -0.6221208330752834
Ni 6.458678965591054 5.03734275711129 5.280181848562757 1.3479792509505495 -1.060917125654876 0.5107774109035849
Ni 2.2208372458093493 6.30922139487232 4.634712950919706 -0.8480770921985717 1.1832990650289235 1.4988559553301801
Ni 4.6597784339880945 6.1498352464749955 4.533712406699226 0.32731325950623635 0.17311186162874706 0.2825308130842231
Ni 6.513880001675103 1.3841736350192497 7.78702430111404 0.29442036543295746 0.838360636241756 0.2061518228028514
Ni 8.729743679600597 5.5036518624008695 9.749670276248345 -0.25222342034993334 -1.2896000396807081 0.3494332313337272
Ni 6.327816600169418 6.334070676202473 9.764582628759806 -1.07729222457879 0.1500385247490513 -2.685814728598878
Ni 9.17111999215899 2.1873120578161296 6.8217540606347 -0.30305515828982005 1.4373497683955825 -1.8570563913335758
Ni 0.5747022643105593 2.5214226152675154 9.329072528171883 2.5142619839271347 0.013657185772118415 -0.3539126072613195
Ni 0.9504803713560642 4.17935590192362 5.573174175857941 -0.967931637165075 0.5212759964420636 -0.526007597589778
Ni 1.6605870934001017 8.357774620346738 13.05137146013613 -0.8266857710069891 -0.0940085304376768 1.092420595579796
Ni 3.86955644121794 8.352634029660814 5.0591132514566235 -1.3041959352170118 -1.8556340570647527 -2.0235623176100312
Ni 8.452077550204223 4.795772111051096 1.6331211215041896 -0.18583470851205416 1.4691131768501087 1.445858577197542
P 8.465253793478613 5.187078699166807 3.902896976224427 -0.03707685024763937 -0.5150729529551452 0.5741376203277855
P 0.7886139343480044 3.2878995330100884 11.793285194208234 0.8929523554447073 0.5566600323683123 0.3934757142659223
P 2.7231119278112796 1.2045034952150122 8.444051176660315 0.4893061284036863 -0.7268786316096643 0.12080739579807583
P 0.7439288394631587 4.1675158410657875 7.7538331587249605 0.05643082929421895 -0.21724587583348393 0.8819937995506746
P 7.881184333685309 8.896998457784317 6.48490896875165 0.04831282817277486 0.3610538462917911 0.09042338418957975
P 7.582213517980484 9.121439987587804 3.0666165899746325 0.43063535403535513 0.568356494869634 0.26141048616584006
P 4.122484637818875 4.118865810440698 12.462127077192031 1.541078611444817 0.03270700331471786 0.08225087568111641
P 6.312199968175897 3.5643872237474157 9.894129225662915 -2.0916060485528303 -0.446386960442657 0.5508814780133223
Ni 8.65435144255523 3.17039899175403 0.1524881066718442 -0.3823307533926964 -0.21034400650732807 -2.3922070888752027
Ni 2.9112074400754797 7.881267845086343 7.133406546538899 -0.7359646530713325 0.933000886726161 -1.1395463454230053
Ni 3.2683393070788105 4.262542536398907 5.653803505652649 0.8509148187576828 0.2332131977960177 0.49113469697199286
Ni 5.864152022579274 6.987835039681653 6.905031629746671 0.22834429973949064 -0.8055145362460128 0.23500859913354363
Ni 4.438965010607345 2.313340041022304 6.840360400785269 0.8491921796396213 -0.9605368873629007 -1.1923436917296948
Ni 3.9511192428953272 8.227209184351002 9.071430576934757 1.1305407994902854 0.21509643359064892 -0.5249251631588767
Ni 2.623742639624347 6.221645772320423 8.679814068730762 0.6139172142185685 -0.8999763521710243 1.5201333766517173
Ni 5.750669307617448 1.9563659177764834 11.534991854043037 0.41621892149970896 0.8527690983576023 1.706878769903499
Ni 8.201422719520348 2.9009819329709883 10.940572547948147 -1.3987536532899392 0.169188872425257 1.0077055746289032
Ni 8.367693918980768 6.701929118716506 5.744075618553517 0.32006146303982946 0.7021181368355328 -1.1493959845235753
Ni 2.6247169393030867 5.851829451404352 11.842189470654253 -0.14973436324507117 -0.5271095724047051 1.0410131876420974
Ni 1.7314325986113477 4.46767437447422 10.150304159955196 -0.7699862614324159 0.5896742825108038 -0.22368134704618253
Ni 7.337283857789776 0.5979982335814635 10.255745654901819 -0.18391383734025746 0.008791887260017115 0.7779934480076084
Ni 8.658721872542722 0.8597675038386234 8.450569705463314 0.5196142924689244 -2.5743818320371665 -0.1073291588059829
Ni 1.3082803295676741 1.2545732196576949 11.305312303585751 1.270823016183521 -0.2416631283355838 0.6778993734974841
Ni 6.809501082293973 4.9646600010772755 13.460248847029577 -0.8675223454073769 -1.1952382396686707 -0.023729739516772038
Ni 4.10906713938594 5.281743511762109 0.8926181052923724 0.9754829671497716 -1.39807488205536 -0.5842009181010585
Ni 7.896374129629096 5.388183431903326 7.635204285650475 -2.562242882681787 0.05072760826185457 -1.479133022979956
Ni 4.217149450414178 4.802007628995033 9.999693203997722 0.29345954418158493 -0.35703418360943673 -1.0099771442718994
Ni 7.810774943568356 7.343426585288118 11.657232131260052 0.09474180905927554 1.448669821394092 -0.7559302975599821
Ni 6.905975308578364 1.163926233356626 5.108900892944699 0.017935758542814272 -0.14445743111684797 1.4217241460431838
Ni 8.377158544431387 7.739177835747797 8.992729432599498 1.2301059980801332 0.11436164017273208 0.472867780342005
Ni 0.17827549940695533 0.2503643965891648 4.597786065190999 0.03226297379876379 0.026419370533793205 0.5727942189260136
Ni 8.693026500278934 7.543000275672334 0.4261800212834153 -1.0707724211824012 -0.36093788953921707 -0.5137475492755023
P 0.8312901160857336 2.405072675536826 4.284001254847045 0.0915083897236424 -0.5297549804473521 -0.05056177210795164
P 3.7385456110833517 7.396344976410546 12.998433583020127 0.12153604643398423 1.1894560857692547 0.86646485067714
P 3.2992199673725926 5.096014155860563 3.279604995078414 1.4815637439086355 -1.6428644718350673 -1.8743771420002107
P 1.1127430235668117 7.847371495310747 6.019616846745783 -0.8870884404647624 -0.035250595672178 -0.43609097783328765
P 2.1187584766110628 1.1750982030061794 0.6852824941341951 -0.2123170710732989 -1.1767900602658121 0.8369678696592875
P 4.5572821077846335 0.9468058697105302 4.998882045316909 0.6781495418350773 2.751646539492022 -0.5443961273992948
P 6.5250705294137745 6.538951980074682 1.1981816821566729 0.10829409382241348 0.04066482470921384 1.9295902968372443
P 6.962744503192955 5.377577483971899 11.398789398477447 1.6407227429017164 -1.5811829356648706 0.7878253464963658
Ni 5.404180504723784 8.66461406583796 10.819146042938993 0.2134175032263292 -1.29719019332314 1.7163000632173993
Ni 1.1300113254919104 6.591295070434425 2.5425871880031186 -1.9470388313309952 -0.10471794643538095 -1.189020798004049
Ni 4.936377473260134 6.03507202336397 11.772560448184748 0.8036679699555772 0.9340321562041526 1.0873814904939918
Ni 2.9128869471407364 3.2965661606285956 8.144621048249798 -1.16609247134265 1.6242607406909513 0.9640824386223137
Ni 5.410694394004503 4.277992145590358 7.8926021980156875 0.5928243981040113 0.5457207597479892 -0.3907187203460755
Ni 5.032703234831574 9.197361130173057 6.8735376246075095 0.11628251134452879 -0.12507799814897166 0.9432976406664787
Ni 2.635090911120529 2.751552199385932 12.919339007195548 0.2307390252239123 -2.0221752074545174 0.031444591662526486
Ni 1.4957541458463923 4.252159285536906 0.4526382889401733 -0.8182885480822294 -0.09421267602868291 0.27869447005726844
Ni 0.5800525614035265 2.2252076757968404 1.957851492810448 0.29563598300761346 -0.195681776509463 0.9548133546155622
Ni 3.0101220550790004 3.1358716669483915 1.7640122519639612 1.2056188115720463 -1.0905773717234701 0.7778237551989636
Ni 3.17348891359232 7.173647906984233 1.6575936736252297 0.13006439561996955 1.3384034343366562 -0.015265410799502742
Ni 9.03755742477056 5.246974931797925 12.114077539003471 0.3519811945665615 -1.1657358593341793 1.7265191698422457
Ni 0.5177335702379405 6.405361575552572 7.735064435294602 2.0940889628756834 0.7794803169657802 -0.9491379014973395
Ni 3.286479839192496 2.8341820911876536 10.767716010563896 0.3511065052710921 -0.810047905339992 -0.8933953565193969
Ni 0.3433552695459457 9.093120343592425 2.0179871247912002 0.41080932044836344 -0.539396103081542 0.9656317853873048
Ni 0.8087522447553348 6.931882400988292 10.996023190330842 0.527903271950594 1.8711262391630807 -1.2885044926236842
Ni 6.5180462926822855 8.265411010802175 4.688954533796309 -0.1446104117549445 -1.795068893887186 1.5623945993137738
Ni 4.219858931425531 0.17112692347837066 1.6482635943207231 -0.7637927310271942 0.690239640230392 0.2786119376457911
Ni 4.302971333544343 2.940853987442858 3.9054496413827264 -0.6949768978050611 0.41529692390607187 0.44952499185100653
Ni 8.896413877977073 0.8593527305468169 13.60227761467403 1.2868942107137709 -0.3678176473781859 -0.8586504968390438
Ni 7.886176459658282 3.362846375916602 8.565653983516098 -0.3622617505569632 -0.9704973410097223 -1.1764452753318837
Ni 4.760567415992619 1.239717469318048 9.71024547172424 -1.3311333830378043 0.3996877566139052 -2.7970838458892153
Ni 8.047910206329142 6.998728637994424 2.7889569559094487 -0.7869154330875867 0.2325763355429672 0.4208793030898558
Ni 1.2770099494023959 4.331096117603974 2.9064584250699634 -0.6779333120592131 -0.5118670444233377 1.59088319367177
P 3.8694265345941083 5.973533399845831 6.890703857042455 0.901843744397066 -0.8415565174712344 -0.10815885379612984
P 9.294076611615994 9.03379941172399 10.806747383598681 -0.32858904089486635 -1.576181111574905 -0.6549597339821753
P 7.281655985655996 2.524030026788715 1.6168373262068463 -0.49724852317921453 1.1000174340904476 0.5713685422230805
P 1.0422872382270618 6.157369830657253 0.31217304030398213 -0.39974946308977605 3.0048590632281025 -0.456100331075679
P 2.038559694483912 8.292858424608967 3.332556790761256 0.06940718694922886 -1.2942719912350809 0.41254841462665726
P 6.429273673382222 8.274374567846584 8.829651152371977 -3.04790652923688 1.8279569028644584 -0.4382573893569872
P 7.147750093618865 3.073813416934926 6.231627240553002 -0.8070769956371262 0.4547677283071845 0.8856110845882877
P 7.120386191213107 0.2446466493316442 12.632715816085957 -0.04331794606134475 1.3932620340477486 -2.7725460086488507
