# total energy = -340860.14864591754 ev
CRYSTAL
PRIMVEC
9.32934338440066 0.00000000000000 0.00000000000000

0.00000000000000 9.32934338440066 0.00000000000000

0.00000000000000 0.00000000000000 13.65443706755153

PRIMCOORD
 96 1
Ni 7.824268402430922 1.6985189148611899 4.6669769718802225 -0.5832082151704859 0.8783227784569906 -0.5268064393419895
Ni 8.103962117031106 7.401630488527738 5.66507584069707 1.4070632015968993 -0.24353823387110965 -0.5873615752172271
Ni 4.635713409271928 0.3602395336252707 0.6502692277586604 -1.3345025566203532 -1.3893305602038264 0.947133212362485
Ni 1.1057884124126236 8.989335462694433 8.61239920321793 -0.9972309003498244 -1.5399067026239028 -0.5208867314234449
Ni 3.600538796919637 3.059026389639684 8.476893289393603 0.43445087112670344 -0.8188804160299573 -0.4440760529212932
Ni 3.1491944934292357 8.829355882375422 4.264677026550367 -1.0962985904779636 -1.8832361350527371 0.11679570353552142
Ni 6.163234789279658 9.109758627072656 12.767663556449817 2.8134466035179546 -1.180471365772141 0.9052226881716281
Ni 5.5322726376505855 4.929513091066089 2.0360265704012432 1.0402544550992021 -0.4355749574288176 -1.07895649965509
Ni 0.2342243608237194 2.6455965376547907 13.182335144038888 0.5386713091003755 -1.5217457154441598 -0.01077446490768467
Ni 4.773311894816895 1.0266102751273751 11.530803467122457 -1.784993511929055 0.09342437579943266 -0.22578913741780468
Ni 9.05423037526144 0.45718167364468226 6.7454828415039145 -0.6149795940448118 -0.5081428014942152 -0.09659146067350462
Ni 3.095261559336385 7.680792430555131 8.589296017266099 -0.2860509104223396 -0.1732836113199209 0.12181346846508699
Ni 3.290673985821223 3.2201534791947126 6.15225228625006 -0.26167299579860737 -0.4378496123956072 -0.2640965176384355
Ni 8.335619042556026 7.561134272334253 0.39445116874235975 -2.550005460075331 -0.22021010066813043 -2.3357037544718353
Ni 3.3863650608930733 3.49243969514938 10.672335014839232 0.47518408718000743 -0.543822771394328 0.9912548852720476
Ni 9.259205378713094 0.8392957186983402 10.472229928633116 0.3719792349550432 0.790513177741174 -1.2505241567251688
Ni 2.177020936937353 7.574269987816477 6.387477685618696 -0.48171983141599617 -0.473871539016171 -0.9592662481805931
Ni 0.775290825490001 1.1626787483576508 4.300901933969348 1.371288100879819 -0.37913898592827605 -0.2378303848530549
Ni 9.23534091834127 5.481707596518731 9.745881771460795 1.402693354663978 -2.5443973698599343 -1.4912184933895802
Ni 5.70184278296656 7.466572047811656 0.9420920216901205 -0.6021780714047693 -0.8217076010661075 0.2310835530475246
Ni 8.484785913894996 7.569297447793732 10.156825353434316 -0.3757962947082883 1.2925781484724255 -1.2790862846335778
Ni 3.839911089421688 5.984596522196124 0.48804407448753967 -0.31977889880240407 0.3692201841526674 0.749490198361593
Ni 6.941572578318304 4.0814011428715125 5.2327764587872165 0.6156933322823849 -1.1917906474397022 2.6123200018438366
Ni 3.2367597104151367 3.702368579937015 13.07129729910322 0.41194266272185837 -1.4773671893287845 1.180171318033219
P 1.0140716376216166 8.011023198257021 4.337905841560747 0.6391137680888541 -0.37907779367303746 1.136198769107011
P 8.05173645277721 3.6322958817928535 7.15536194539752 0.4232686292576388 0.12242641945873754 -0.1200797736034319
P 6.454394266896638 6.038417504168388 6.226368321816094 -0.3356500615067058 0.13851535460080014 0.5434916133071543
P 7.515345855014117 7.214968986135461 12.001840148624135 0.5049788019439367 0.5900838592443967 0.26736413264611375
P 3.592599525701333 8.185864422583974 1.8326571469456758 0.39698501297076144 -2.5897236046005596 -0.27005042122902523
P 4.087735767028068 3.9260862342436322 3.354171362749567 -0.430415267604749 -1.5973667445135844 -0.07688781159699017
P 2.3371777747806264 1.970935741623209 0.4848870246869826 -2.4879529137189604 -0.5989225405819492 -1.1404703998991712
P 6.470608665695008 8.168213304904736 3.5206870810421895 -1.2658975538574457 -1.7996909660402296 2.3929858760227565
Ni 0.47815403756800484 8.587641924684423 1.4400242672285186 0.49706906017855684 2.0232478716934055 0.501794233568368
Ni 6.763400778403886 2.4350052694870143 11.64503661216655 0.40204622954375274 0.8693768821176123 0.15440605768912763
Ni 3.227784882081402 0.5523129881135971 8.16916303206105 0.8607809129184854 1.3334257786164068 0.6789481264769727
Ni 1.043869560384558 2.9389950576835147 10.339535878904204 -0.26491078600961476 2.0471601595346294 1.7214494686288224
Ni 3.47234428950399 5.520256443374234 11.81549864270987 0.36526197083586776 0.6048833861510744 0.07840579090341336
Ni 7.256661821710785 3.8750267379125183 3.0828171481987874 1.453204218929336 -1.7654266455407208 -1.4474686019971394
Ni 8.01538933095992 5.343987829509795 13.223885240660463 -0.239484118406394 -0.9468426777052598 -0.2814344946962508
Ni 2.0378084749872554 8.071160145699077 10.752405037351824 -0.5898627443725261 1.3899442825284254 0.2602907707391001
Ni 1.2843427154057159 1.9979441907148543 8.408429902982883 -0.09851978804446904 -0.1044019578568589 -2.7033293404438736
Ni 2.868287964189359 2.13694207776716 4.15550971496284 0.7389988119119659 0.46010945223507216 -1.0212468036484477
Ni 7.182195002833579 8.967840655541703 1.8981034237065744 0.5552163579432503 3.2379838150753715 -2.981223940307666
Ni 7.170645275726339 7.723007709359862 7.818025205839513 1.59287888394556 0.5632903932006363 -1.443356893821611
Ni 5.837948573570365 7.589896637981764 9.534388355787954 0.4078381536351815 2.46004770266826 1.6333475334835676
Ni 4.814855460898102 7.139224047214885 7.315528112584175 0.6944912164178942 -0.9762926075352605 -2.7446333413989827
Ni 5.432709885075097 1.4378197433872903 9.381513070454535 -0.21517099558232622 0.6476009796242588 -0.2502760668155754
Ni 4.866362765711566 0.8232315223284251 3.8551253826094793 1.8277776969741166 0.4416954685042586 -0.6429979336346087
Ni 6.771265414875131 1.7881179287044238 6.982961277299367 1.1457511886821363 3.2308150652410745 -1.302044436091648
Ni 3.1845433755046226 5.207200996839086 7.646280390581134 -0.10397849716619512 1.6001916155568894 -1.4160831457073224
Ni 2.289542147470802 0.7517799472323651 6.024214511803234 -0.051797187176949505 0.19453917826458753 1.4407726780342025
Ni 2.47323691866752 0.39263474558583356 12.418082797638778 0.04228847635556588 2.4570150864895233 -0.12023121157963165
Ni 0.0076603238511744505 3.7630839466687696 1.4445713891930325 -0.5369381284593527 1.760982236616122 1.725088093822674
Ni 7.3957436728535315 5.463757939851261 8.480333951232982 -0.8450660732863898 -0.5882079823779225 -1.5648335477725694
Ni 9.257917929326343 1.4846996938831516 2.1714102698272613 -0.6829947857425206 0.585957752891165 -0.8443777889701135
Ni 0.82404410813702 4.971840321991407 6.137832853118437 0.09717638664269716 1.088123510866339 1.7221675777417695
P 8.643011577658141 6.172069677462659 1.8141281380541672 0.7170878707714876 -2.11467244345399 1.3563667036832963
P 6.461232675595836 1.779161759057453 2.4972739718919152 0.21178099606417075 0.3910488499919846 0.8240694164300647
P 3.9379345003391037 7.188212429315137 10.447773987890857 1.0501385469821334 0.4840806183386889 0.6978866152526884
P 4.834624339525114 1.549613265136923 5.953785432741871 -1.1302991157931244 0.16502085709049644 -0.2604321814129708
P 5.429118087872927 3.544823958240775 9.768398141713881 0.5342749798048928 0.2505324058007556 0.47884276697851735
P 7.274779406559135 0.5301212790102129 8.55047661945251 1.883819518360033 -0.9337902153966757 1.7024063359544424
P 0.04244384771759611 7.145213485666296 7.5013658339557985 0.4154355063664652 0.36725149046207073 0.5015749184687104
P 1.8093888316159787 5.620966705185741 13.193613387253704 -0.012978928758171195 -0.9216255550096837 1.1149308608671702
Ni 2.1582969447691553 7.786745783347469 13.450944665766606 -1.4821131886542023 -1.144344795252913 1.794053308138478
Ni 8.9593229650337 5.62744126949303 4.184483856705128 2.2308063450357967 0.807266485940113 -1.196649003973268
Ni 0.033807674548637166 8.749356762872534 12.20033499016247 -0.3030906395134458 0.18995387288675028 1.2878432048906014
Ni 3.888181112081506 2.2904097764053524 1.7286928101624364 1.8172246040486189 1.7923131855189196 1.7408515273045182
Ni 0.6072684182411433 2.6680056204589815 5.959151671055347 -0.4214788843470676 0.532020122332445 0.7012020527791666
Ni 6.496973390093277 9.066339862971615 5.444187776238293 0.008002301479186218 0.5474513692858507 -0.24423628837939876
Ni 1.599991719401132 7.013231264837451 2.4920709970876285 0.526277563421713 -1.4852334794507387 0.2197609289458538
Ni 0.6847299563440558 6.4263782487197085 11.542286955891681 -0.29484434034425344 -0.2452431323773583 2.4598816094040408
Ni 6.84450076042588 5.978793670612358 4.038463772888995 -2.8127508630025106 2.5978544612378096 -1.1991987669783155
Ni 7.7186695646871115 3.007565731543133 9.324888620795901 0.025766053220510468 -0.6686076637829129 -0.6236300706309582
Ni 3.7813508010112367 5.943239542982561 2.980913663368689 -0.42437626049952076 2.857419923775111 0.819571528559711
Ni 7.114277383010719 0.30089464743637073 10.765936316993455 -0.7294505061018985 -1.1586321584098624 -1.1356012447323283
Ni 2.372993124025126 5.849908791786424 9.903290184743653 -1.4893058497478997 -2.084217726508559 -1.4557840638413702
Ni 7.1920188014151 2.9845222533889477 0.7910807391644775 -0.944319911283406 -0.2839068674961433 -1.1152172817593373
Ni 5.456704956254272 0.0723910399746537 7.480228340654609 -2.3217681182273497 -1.6571343514905204 0.4996455626564815
Ni 5.267944351600987 4.280162803630581 6.880553074992289 0.4535132870747931 0.016888291114906397 1.072955801986965
Ni 2.139974114366395 4.548745270262492 4.097355252989517 -1.172798936828548 -0.02111878425648621 0.410674337532396
Ni 4.984668169142016 5.62938177291654 9.203158415409824 -0.8997547230785214 -2.5740169924985796 -0.0943718273143665
Ni 7.049569057311357 4.861119674730734 10.76903645779938 0.8710154461623 -0.8555443471098944 -0.1051817734456769
Ni 2.335265259387263 0.44547428063428307 2.231381154957111 -0.5695284036905482 1.5124272662567113 -0.29486825160365343
Ni 2.156916201948581 4.510681549262867 1.6412087584639607 0.8006638930219309 0.13186108250907613 -0.3855436039030392
Ni 4.145428426503969 7.856118780737962 12.480128528736843 0.4620917727724235 1.2871186680197508 -0.20994805662049001
Ni 5.648852112555318 6.309789444471594 11.616512144775285 0.07186001936509559 0.07276324790565533 1.4192044649451234
Ni 8.626321382347278 8.968120535843171 3.711426439426852 -1.2959802321754392 -1.0797807953285985 0.12025717972156062
P 8.775077762577428 3.6941214403870966 11.553702340454215 -1.4204612201703601 0.8943564348810855 -0.7081288618059869
P 5.612504990738031 4.86559775955422 13.476656336128118 0.16224406567630767 0.24860073599568153 -0.11575697785836193
P 5.312781175896133 2.0477442256893634 13.331714724406973 0.4297547512026147 1.893020468133011 -0.41253710177274755
P 3.9603342537999127 6.898881503001078 5.031605028632509 -0.3759950409826557 0.22645942401195193 0.8304956316713825
P 8.321802285006898 0.7202532971406906 0.21735410918557696 0.6055870970863183 0.029219044766117423 -0.7270542379555801
P 0.029786727550882703 3.5900246269278293 3.955745149790178 0.37089551497256124 -1.7745340071586277 -0.34873183439132843
P 1.54407163516786 4.194043634868931 8.352855937389092 -0.7565406774504713 -0.09615488735671826 0.25531568612201194
P 2.0995967162079694 0.996000699490177 10.253594900601156 1.1188579638357181 -0.33762621139647014 -0.10692061051365456
