# total energy = -340886.88545426866 ev
CRYSTAL
PRIMVEC
9.16744949660842 0.00000000000000 0.00000000000000

0.00000000000000 9.16744949660842 0.00000000000000

0.00000000000000 0.00000000000000 13.41748899828471

PRIMCOORD
 96 1
Ni 6.672775678305935 2.3037617377756474 11.58816227823677 -0.5621336538883739 0.6082201638337913 0.44191452649360025
Ni 5.0734866014323625 0.6656760143936803 5.992666431335975 -0.34481167340131585 -0.48725927317698664 -0.2552760911333281
Ni 2.7584213983578376 1.7872951323069741 5.3966749512296905 0.05114027031924096 -0.768167205945806 -0.5588585826815279
Ni 3.9198639171294642 4.907244071237838 5.370967589193103 -0.13488778515054187 0.16552890707516654 -0.621430234766162
Ni 3.3633905618113977 3.416708448411781 3.346750724127705 1.334592031010366 -0.43803190360974237 0.6892258542538969
Ni 5.104426743673817 5.269807533610356 2.8079989655405875 0.6795957873633005 -1.637639475990702 -0.430717115115884
Ni 4.932188701471615 3.096984477800541 1.2857980552134325 0.20315494495805658 -0.6535140026745843 -0.07502376180505788
Ni 5.485425947097464 8.463856967278309 12.806885772050551 0.40550050664094034 -0.9418933041197842 -0.7293409771072278
Ni 2.730479012120223 5.502743259303125 11.82040494474333 -0.4904746947904907 -0.2944828432397767 -0.9085568947511836
Ni 0.787281315969579 8.06733727176139 11.802882281667681 0.648431188835038 -0.3381226914169145 0.505311245582691
Ni 0.4743036714844085 0.10003245928772427 5.00229493843845 1.7432398250310364 -0.996595837868987 0.20301044896039228
Ni 8.690027115200946 2.8270397582622167 1.8188073234005364 0.3244413372750799 0.45098872088072656 -1.4947337056316903
Ni 2.0271247800636165 1.372743063519261 2.9580600305290705 -0.5176707955893085 -0.6421980634411327 -0.856081450560287
Ni 2.4352229643660013 7.134833470677416 0.28035344176082655 -1.4271620292293032 -1.58526070527867 -1.365535771777074
Ni 7.5204530686757876 4.1694293963114175 3.840930342988023 0.5116109625484737 -0.050640962085319235 0.31925207976465664
Ni 7.6797558395586725 4.279493795645015 13.070754306025131 0.9594745075366572 -0.5268123528792604 0.5695883103942062
Ni 8.287255219088866 9.120457206614496 7.346571302768728 -1.0480469545604274 -1.0647308429740114 -0.5232547174349892
Ni 6.671813096102867 0.9787902538771909 0.39167103144832244 2.1587198114821917 1.226516738066978 0.18410692718767002
Ni 1.4493187696356644 7.373480517441718 9.420351983842547 0.1299702932442665 -0.6134970959620143 0.9498675805745125
Ni 0.21953291444624878 5.450993006576309 1.4757356922676563 0.26104204708282785 -0.7678946690107098 -0.3300373433056187
Ni 6.963493838531409 2.017233101995904 7.02444454362964 -0.8010025073082722 1.6228857147202953 0.8724699192206394
Ni 3.8852567950668018 5.086596054293185 0.7264103676824597 -0.7938250157232265 0.3102239081241173 -0.08801580318935165
Ni 6.195747440814369 6.142915429040294 5.026822449717563 -0.0491234969995283 -0.2785759422015331 0.7705940702197438
Ni 5.627576419866643 2.951148690311046 9.31423325479657 -0.24359968323666434 0.47305058577677245 0.09187451481380951
P 0.5236117156502995 6.1005526446557745 12.801626406241981 0.860072316887235 0.054828774914421695 0.4315444961131858
P 4.399202351908394 6.610024486115491 12.604952527256195 0.1697797119317205 -0.5053207586643879 0.26579704526931003
P 2.6483661664737927 8.814704429122061 1.3728906594570645 -0.5912020320092399 3.0493496894413097 1.3311601225106817
P 6.80717965620281 8.107729054492012 5.867038452896209 -0.24883830592778436 0.22837335320521313 0.11081711735458334
P 4.784556093869727 1.684546357716689 12.792824737926123 1.2253692547260961 0.14389127420073283 1.2300864576961075
P 4.400815823029725 6.438235648941387 8.44794594183408 -0.8138109719268501 1.6113697436608958 -0.06452646181815984
P 4.871940223009146 1.6593817086936402 3.803106362877205 -0.6971726199047994 -0.5277243231705685 -0.351306279986724
P 0.22304404762505672 5.62647632592028 3.604272632776727 0.4260886152049371 0.8892934185358814 0.6747572283240766
Ni 1.076047726185215 7.84885861401374 2.6198049773913485 0.34686572771686713 -0.32066027296609295 0.21483675217135903
Ni 1.9511082883699473 6.609721960280241 4.797342852506285 0.2918142952686781 0.45640757790345265 0.4239715688619343
Ni 6.122930389014704 6.184178119478452 9.874695367415157 -0.7025328557754482 -0.7953494227875528 -0.43091920382436105
Ni 8.681235531079595 2.739976489857155 10.244937485533288 0.1573502279191161 0.898514165803201 -0.31915823449926967
Ni 2.477695758145158 5.4769735586095765 7.176545366143671 -0.29904809401295596 1.0568342138347542 1.2953279433034208
Ni 0.2917293299111731 0.5013522313906037 9.662403821370841 -0.21092661848367542 -0.5048031955980209 -0.2525275818539135
Ni 1.4273260581579614 1.8288145113326166 11.529755540389502 0.32247778579080594 -0.5185020332413522 -0.47901014579431694
Ni 4.34715874079588 7.466612637450881 1.648164417420561 0.8255735117794168 -0.28480418249943207 0.8097509429248636
Ni 5.801400430841518 8.286494320775967 7.898138239086016 -0.3444308930231294 0.29603938909361915 0.6979280100135851
Ni 7.319062536894971 0.9135858521863575 5.012626654084707 -0.3004866262316954 0.14651765607998637 0.15142769178709406
Ni 1.0417247950586959 7.643819437310821 7.1102087844330395 -1.4613890687329736 -2.0503141317825784 -0.2743639610027146
Ni 5.428486917923637 4.915806469120362 7.326499171972383 0.5721308743104018 0.13073982442043935 0.2389909808200594
Ni 8.115961424190628 7.341201927565522 9.997854551690294 1.3045342923930374 1.3165428868181392 -1.7815225226613187
Ni 4.666891878856673 0.9400669469652204 10.604928561561227 1.2102827927066189 -0.9503830867583504 -0.8663797471625014
Ni 8.68816612294168 7.0577627222851484 5.057467400083409 -0.6321915870477242 0.3378308712081085 0.35263785431395395
Ni 7.557361220576259 6.706979432588265 7.437528903743915 0.1958193305285918 -1.371867884642689 -0.1614925322222638
Ni 2.643874116192811 5.9254635256425825 2.5412591863660006 -0.7136654753535 -0.7988245258203468 0.4446728059650278
Ni 3.7290434546832847 4.6130789499804274 9.350553773180692 -0.2445417354349595 -0.35976803760083204 0.2949618397587243
Ni 1.0083552786856909 3.4766910708372123 3.613920456686329 -0.2673142532447848 1.1404392895509197 0.2797157122329312
Ni 0.5149090557896145 0.5264490412869604 0.9646787987802221 0.5425189649812397 0.6379251470973917 -0.09630426845038899
Ni 1.3801503627581035 3.5086487999790514 8.205143290187394 -0.8185415446333 -0.07915681013682496 0.3816810356238395
Ni 5.363581375088232 3.0590495715501302 5.3505855986018656 1.1530425801372273 0.2706690286496306 -1.0554815564616018
Ni 4.0269122255601175 7.296428103948557 6.251771558522805 1.0264018654868259 -0.3720813077505463 -0.5679150364568413
Ni 8.542596191489224 7.699135827913763 0.6063791171948151 -0.4871672276838126 0.13396475911564024 0.961293563023267
P 0.07966421987081711 5.8934324569043195 8.59120475925422 0.4343274581749616 -0.02067218363737085 -0.7522500204949173
P 8.804702741659714 1.9181329723277225 8.11584958130608 -0.5885224282945478 1.40620908112672 0.8824874513576415
P 1.9429309233686505 3.776585848065263 10.442509774575269 -0.09826833415529528 -0.3497301937488557 0.12309876293541382
P 4.165459890654958 6.610519528391354 4.024669867399448 -0.7384766208599088 2.133172816251023 0.8878664562813677
P 7.130497267038835 4.476621463383675 10.937239440408767 -0.397338025434806 -0.2613217831067758 -0.7396611280863133
P 6.3772721094137825 8.44488034670355 10.731415530024112 -0.5671732731948104 -0.3185082596200966 -0.2687841529220919
P 2.465127184807963 8.765236871333949 6.153743103707371 1.0791943266975093 0.7330114839802795 -2.0165336928980238
P 6.764074308404495 4.219071135641038 1.7343448604336669 0.5748973813119455 -0.11598914847382603 -0.2541854291723106
Ni 2.5922247054110783 1.9915367408987799 0.2752059188368039 0.42417648578388883 0.5183593370159009 1.6082075438828305
Ni 1.3117520216429968 0.7986471199254174 7.464404198853558 1.053083231432754 1.129060872510649 -0.4121393521136967
Ni 7.006498344384641 0.9487485216919336 9.345066137878252 -0.5464825776146782 -0.44350578224012005 0.19192050969481783
Ni 2.903001245258568 1.6413034981750783 9.025636442397666 -0.26783490163494517 0.5202606678036716 1.187569153159187
Ni 6.761608264474731 1.8973320292919127 2.7528393383250016 -0.7911420695744247 -0.15082065433071443 0.27929327998353193
Ni 4.144310584536134 7.582177506516293 10.561697619704034 -0.11452541944410599 0.019980299776668816 -0.04309040343157095
Ni 7.720065115243316 6.6767635188615 12.128389996201923 -1.1260845634911445 -0.5383170110847504 -0.5121622070662535
Ni 7.528080386703902 4.360405705399999 8.57054224470666 0.6545936088920081 -0.020467009605100235 -0.18383953245889628
Ni 3.284128792975958 0.19214332541668108 12.398216455641014 -1.4701040800084682 -1.3935304572177871 0.29020658446192604
Ni 0.2572872219404646 5.271613521172302 10.80317190791049 -0.13065446379548465 -0.8469483779107672 -0.44870043906718204
Ni 0.09402686308553869 2.3520741969200802 5.790451745840342 0.4021341612718687 0.6674774068332117 0.9708323557516377
Ni 3.825292507540476 2.989019424414585 11.460387283111686 -1.5273067544717052 0.701984696581462 -0.9587083187945942
Ni 1.188614839246788 3.7998069977830715 12.844776674543105 -0.3375051124375736 1.6541297603362415 0.3680565028618694
Ni 3.2164913501737527 8.472217681270665 8.241450974142142 0.9099879707707553 -0.08927847195185916 0.584927768964754
Ni 5.792453000077767 8.561710323807278 3.836301697708702 0.301901504301351 -0.6930015192462452 -0.5989145701621491
Ni 3.517192862962469 9.045027431692219 4.111856896373475 -1.103153408616268 -1.385660567551407 -0.38054975023287363
Ni 4.0605200956215 2.9772942564362688 7.263866239881173 -0.9754202322326363 0.40146978821499246 0.39362046737390277
Ni 5.270843455409848 4.453977862987707 12.424916652464193 1.1995751764811275 0.5647332962947499 -0.7857913467854725
Ni 8.201658742612288 8.922110268085284 3.07273932396766 -0.7769413525940103 -0.379898746912436 -1.313515669956041
Ni 4.670100486200232 0.6848103151007505 1.5921329657524825 -1.0027212340404343 0.18511814206100377 0.8077704221597249
Ni 6.279611269325425 6.210268680906356 0.6404893634917042 -0.07263263586506201 -0.35904015829587194 -0.1030780968391128
Ni 8.09841492574614 9.498211132896373 11.613655121953816 -0.14588105093725198 0.41912555362354265 1.087139806796831
Ni 0.42602696539323254 4.747702946666574 5.744564077102685 -1.2356783499615878 0.9935380248792696 0.38845306424035037
Ni 7.3029553280303094 6.554763100209866 2.9653857394668917 0.8805328987344319 0.0006276062816698868 -0.9527235619660688
P 8.907405679002233 1.6993426212952687 3.7420300637200974 0.0931981187212395 0.3650290288894552 -1.3495447956654565
P 2.1956041679490785 3.8466434975494677 1.5839345156172135 -0.33902206330273227 -0.1959090620289207 -0.534309432587254
P 4.872352758239031 1.2018618038509066 8.081380887731667 0.63625830091793 -0.629321978809413 1.4126214124109673
P 8.980415247242512 2.129268502983402 13.014830113516823 -1.693423929950174 -0.8388059513092908 0.02271338243711572
P 6.466893096244138 8.237604312309694 1.555932540957504 0.7499640526742181 0.37820464703946477 0.5817987364174689
P 2.2478494629517582 3.6398716728810268 6.099925591106348 -0.6208607354159372 0.4844714260192043 -0.18027855458051534
P 7.169944802465495 4.21215887867806 6.128840643741538 0.3820055088427937 0.0797605051590949 0.05924027371855604
P 2.1747207178672916 9.17047481137579 10.485043073521476 2.096286227637319 -0.45706680875400635 -0.5898684007994809
