# total energy = -381172.7172505129 ev
CRYSTAL
PRIMVEC
9.17418050038225 0.00000000000000 0.00000000000000

0.00000000000000 9.17418050038225 0.00000000000000

0.00000000000000 0.00000000000000 13.42734050268459

PRIMCOORD
 96 1
Ni 2.275783957968135 3.732763115430699 4.648867441467659 -0.9621875355924462 -1.2430517596075237 -1.2807307622155362
Ni 3.655323856250774 1.1789464375589007 7.472422462483902 -0.2250661432088511 -0.2553023163855732 -0.663463143467496
Ni 9.10508075817821 0.6522686507466052 13.240995904559563 -0.2663606310822639 -0.4860886499076531 -0.210189997427967
Ni 7.706843879655232 4.932571639872096 3.9762385315221427 -0.9976944702498044 -0.9668736282142057 -0.38049549995617055
Ni 4.613346848683293 4.835985865598165 8.59868066293864 0.03684313697027848 -0.9038733732325852 0.12661551783942063
Ni 6.906699362667251 7.5276629566552185 3.5985677874299453 0.47957758826201274 1.1479674796071648 -1.3655925931569386
Ni 5.101835273549342 3.2453572438857305 3.9915052856035684 0.8876016326557552 0.5140691942809791 -0.3461486470451845
Ni 6.458916777509925 3.7057818500298985 -0.11355984338122893 -0.28179444913883084 0.27253179288998225 -0.12390043290110274
Ni 8.172534465513804 0.9385645551951515 8.708302030550891 0.4212372006499068 0.10582120680188872 -0.2499999303360533
Ni 2.9326552951654654 6.547172395719957 12.40189506411989 0.16749734365544702 -0.33344019833958055 -1.963526801683689
Ni 9.1800521627533 -0.021558407196648127 10.787995215676524 -1.386721918936386 1.6518075399609682 0.6250076677047752
Ni 5.179935073738739 1.8577624149598064 1.7874744296254859 -0.3927020693246914 1.3913236793744554 1.4033489859701056
Ni 5.791724487039592 1.348778870438747 11.387687554323351 0.4542673916319983 1.9086157514681064 0.9939113490582883
Ni 7.287859047674757 8.693930676504529 6.069708583785614 1.6806604596369183 1.7005250597713295 0.5695386881031933
Ni 5.1575959437656165 5.98456576508272 4.205120578394595 0.31198845622370786 -0.5801948822654589 -1.1917597942017668
Ni 2.0295489483260076 3.0213145773257306 0.26006600444602 0.6446781495505092 2.4344122614883426 -0.34789211209885246
Ni 3.1715876569806505 3.048149055835538 2.4186672350795853 -0.44751053252413897 -0.1289721909970553 0.9519113504774188
Ni 2.4391761160056276 5.046551660728794 6.415154100796257 0.34022199714810436 0.671478557572805 0.6655925311056731
Ni 3.0139752327760396 3.7748817789652374 11.214743239354435 -1.5194342937021639 -0.4753280689570395 -0.27509569696241654
Ni 7.124613676528258 3.220816310547702 2.338049122291575 0.0042690596889990995 0.3199470489491522 -0.49579276456929455
Ni 1.0072516459995706 4.390074813301011 2.479707646281295 0.0008101546061211855 -0.39776971365558594 -0.325551025399491
Ni 1.013425869601998 1.7885065249527863 1.7946715743745265 -2.386811371780928 0.5553832225384178 0.7112432390652526
Ni 6.153737656953093 2.9511963143341218 7.638343942136831 -0.28913083489924396 0.3614577665984291 0.6528807399659594
Ni 1.1493046597588368 8.249478318936625 7.859707747936194 -0.8352796833235874 0.05599862685280678 -0.8951822732164907
P 1.4121724589867015 5.820797465637056 4.095446000534359 0.35194545623261964 0.5272934062807371 1.5918105905820457
Ni 4.764307991889747 4.528852644554977 1.502439057603349 0.6054490288465574 -0.9891627786297094 0.8861083359396804
P 8.717416579063539 3.098276779109926 0.16017385545245286 0.5783408597758556 -0.25293767280813856 0.5247917229048058
Ni 0.2726896770714882 7.696706409995972 5.260765110100621 0.5172671323929866 -1.229115866252722 -0.23653094931534108
P 8.917294453693682 1.2043589180622052 6.594408417241768 0.36520334968379037 -0.9510225201145622 0.09038224653899918
P 6.430605255909493 5.877723256800595 2.1397409499769973 1.1383032170445233 -0.20025988279844864 1.7862934616874009
P 2.8854908322530144 0.991527100301858 10.265430214066262 -1.047504708903712 0.6870548147445071 0.628130272494157
Ni 0.6002904952276259 4.5027887972228875 12.003009027188742 -0.3545175878351701 -0.7168171336086041 -0.7279592662683527
Ni 7.44784758467733 4.924067174375141 7.610267279561989 -0.40885553915610234 1.63234788857446 -0.4196577719779289
Ni 0.1284889876133688 4.876719227848948 5.85965103826505 0.1289397950972231 0.7731788002277846 -0.15875379313486207
Ni 3.059029634130454 7.2823545392624895 4.9053160664687505 -1.1002462622718021 -0.0899767835704644 0.29084704625940233
Ni 4.047630170793123 8.060389280794528 2.714726302615358 -0.13570770994867595 0.2918598037946329 2.31332307278379
Ni 4.580613371991672 2.086850880897719 9.442764000909484 0.2154841559473708 1.059317128157608 0.29957439883007114
Ni 3.8619080569631965 8.634674643446461 9.217815842715666 1.5266449525179902 0.44241229206562516 -1.8695817774940964
Ni 5.124385409678266 4.4957888973586195 11.050084126964052 1.9126418419083644 -0.34219249061091395 0.2798946610129567
Ni 7.038449771514888 1.5360330724434212 0.4956672212537143 0.6137606340360462 0.14545579047437532 -1.3497029185098757
Ni 7.829034792226898 2.9305544077881165 5.745061851810727 -1.6216055624562913 0.07338159821594459 -1.2959830603889166
Ni 7.80058565791616 2.711988727098323 11.59566347824601 0.9213759008927228 -0.3476946513760657 0.4001541547273625
Ni 7.562194572761514 7.402710615696732 0.869916913367687 1.596795702501463 0.04901422511517365 0.14345598643552712
Ni 3.0701120444004872 1.1864417431802725 1.1995424732014708 0.8914089222169873 -3.2018348759586406 -0.8978482500844279
Ni 4.079464577777407 6.616474156630414 10.315809309891476 -1.95960509803178 -0.9918462389991435 -2.445249718423479
Ni 8.362586792628047 7.494268938954125 9.314358498340368 0.07335922961844141 -0.4212829662861777 -0.3292004492266201
Ni 3.325768937608281 5.259420175211891 3.1662070000076588 -0.4936260959352789 0.4570485539215613 0.4855546317810541
Ni 6.4019175929008885 6.099554945815001 9.539104824559068 0.5605660522909378 -0.7734508229422485 1.4682372020030585
Ni 2.2177022200380194 6.800113731444365 1.8524358856528682 -0.07770979327765326 1.3871425514135725 0.8935380527448483
Ni 5.778963201703818 1.375861051827106 5.807956364929303 0.5130389532442519 0.9081100370217522 0.9521376075556117
Ni 5.2343196168519475 8.220726436663211 5.185276281734776 -1.0079266895007737 0.38708986534423656 0.12927480983913864
Ni 0.46116496252561767 2.7087869380385206 10.00236150028135 -0.2019665810769102 0.43751819719811746 -0.21319767390603928
Ni 5.96568530122864 8.881148181786454 1.6821502482470787 -0.16340183342983472 -0.5669716987069654 0.3008434953504819
Ni 4.65556642820539 5.935960955802392 6.569125292686151 -0.24756972362800592 0.08908229678065303 -0.020137908400455644
Ni 7.224768207089477 8.674031878594178 12.243935855885308 -0.48003138796997974 -0.4126918821830569 -0.04558925859402471
Ni 0.8047738085626998 5.8448246448566055 8.200882683836983 -0.649478656262946 -0.6649610681692611 -0.905268453807899
P 5.090615250569001 0.6863076133500026 -0.047083730122404154 -1.1319245672116893 -0.4802651012473406 -0.6475850387846589
Ni 6.04295025097551 7.576561339717533 7.913027168671629 -0.2478669431534505 -0.384471453884783 -0.958924291460142
P 2.236720296602406 5.462435619637026 10.170445334322233 -1.4877184506561216 0.421293507809139 -0.1430852333596697
Ni 3.9784935451350356 1.1003328832510249 4.602207558492999 -1.1100187682775335 -0.3082960949737852 -2.125798378163823
P 1.8430470291376762 1.6560130074694923 3.809873938942026 0.12056776898344397 -0.29660503178910214 0.26579755948994227
P 6.761563824197115 3.165991406761511 9.851653564461861 -1.0857344418088721 0.6323327406112788 -1.2817327211174894
P 3.8908617712117266 8.09744379658978 7.095033365738799 0.28168774835763744 0.7696239929969907 -1.6137284737010595
Ni 2.050906440965608 0.5061065214575808 5.784310831626336 -1.2219448024255795 -1.1543744115747732 -0.2565464732053195
Ni 1.552234675536864 2.571981555632283 6.753885034962 2.00735639727413 0.534137425785764 -1.701059849228877
Ni 6.925946793748815 6.469733136540032 5.6181875199982905 1.0051504123072172 -0.6746440997849801 1.5691308895963427
Ni 7.482562684397368 5.655111762427785 11.749097980565708 -1.3442439522778333 -1.4223314406098793 -0.7576781334890241
Ni 1.4313373224420813 1.2454867700825352 8.690725217772451 0.8252724355992304 -0.69245927358953 -0.22258400021694572
Ni 3.366337164606697 1.7051590934103595 12.242942292116892 1.7019705339686042 -0.8032704774068423 0.11255081221623843
Ni -0.016493342039292737 6.897690317232506 12.067084257361751 2.327809696435739 1.975345134474856 0.8573816574289493
Ni 8.814516107455947 0.6546199932567124 4.321549188076685 0.683201759547004 -1.4767784067048504 1.021967483864556
Ni 1.1498367622386894 1.9112570625463654 11.940370473711338 -0.2019814934752457 0.21832291094774656 -0.9971036307433409
Ni 6.458779164799619 8.893349842100315 10.011881547580368 0.02683666057686991 -1.31168607294647 -0.4232614301687872
Ni 8.762920515271622 4.767463910046114 9.692620059668815 -1.6748615935669542 0.03451063218235992 1.3987171436250492
Ni 5.9956940462561885 0.6630235427661084 7.923702245319154 -0.5693412273804066 -0.07820807307031045 0.48503629738373877
Ni 3.9867044368500024 3.039112487858731 6.0498088684571965 0.5440940227778436 1.1010929265428133 1.3242240575124806
Ni 2.8455189269992607 6.634253718802039 8.249664554804573 1.4207664101156046 -0.33878372203968105 -0.12921258914263553
Ni 5.9583092599562 5.989217074691086 0.08694371037177509 -1.4792551503801168 0.22364920825666643 -1.219310707236842
Ni 2.0712914704523744 8.693967373227277 12.659041844271272 -0.6870949239538231 0.7798168743695925 0.4948941640144251
Ni 8.276074268748568 9.396746310582921 1.9052727444841613 0.30725094153872246 -0.49064387337850335 1.947780851703342
Ni 4.084822299298681 7.745485528709355 0.5464646597182621 0.5403373839488887 0.6867359979525076 -1.0833934523805213
Ni 6.572438089332269 0.96364676519372 3.7738074824067764 -0.15528640341155192 -0.013583909332021768 -1.2472004916685746
Ni 8.926074144611249 3.1929084528975022 7.694778914633609 -0.6685760392140292 0.10219569423415947 2.4707769161603057
Ni 8.441879236306772 5.1342201313748514 0.9349655241115968 -0.5849012866021928 -0.4015790600993471 -0.5481964749819913
Ni 1.810799784022472 8.087920997036555 10.2906335232499 0.6523258959037539 -1.473237226320811 -0.14219974543092287
Ni 8.99910979706136 6.514888453882006 2.9181105491041155 0.24797364393464386 1.4733801796565786 -0.823062572432105
Ni 1.3154765945445244 8.776727657205727 2.736760849789667 0.5204617280708843 0.21424462711331488 1.0840632247540363
Ni 4.253792359193939 8.703159902275765 11.47277624536019 0.2670391452065272 -0.27359314427496106 1.6716009205378115
P 0.62452868060298 7.981381236717105 0.7254868693923897 -0.41941480272918735 -0.7364999567495123 0.2435696013296773
Ni -0.20486128957938296 2.7542174808011066 3.7327071529285076 0.6758527753811004 1.4770429732201464 -0.22490133549621266
P 8.454291902776434 6.976533226057559 7.123352226683781 -0.019430855031102017 0.16219958559161743 0.22793909388127198
Ni 2.4196351111420755 3.94040234692214 8.57746628751776 -0.5148212419556554 -0.6167546836673636 0.4066708727999577
P 6.036198053989794 4.417037730340438 5.724639208183143 -0.20698460311679193 -0.7000106035742266 -0.07549093124946353
P 3.803899712478578 4.620365096908936 13.052771991656261 -0.08035211599650677 -0.4116824670819361 0.05893071289793722
P 5.566195603208281 6.881938248992731 11.521893891340927 3.69684165429153 0.7454288838080259 1.8528557229886669
Ni 1.7417365518098813 5.385739469092757 0.36596632437157783 -0.9607749715156356 -1.5271262630297828 -0.0062526657779311675
