# total energy = -340860.8235625244 ev
CRYSTAL
PRIMVEC
9.30714400321546 0.00000000000000 0.00000000000000
0.00000000000000 9.30714400321546 0.00000000000000
0.00000000000000 0.00000000000000 13.62194602924203
PRIMCOORD
 96 1
Ni 7.146881320002575 5.720207850581674 5.311237988253517 -0.26852601416469885 -0.8520355626256875 -0.48917937301783493
Ni 7.165877200639598 2.34989560552553 2.911636650180173 -1.7061920282491199 -1.6039276855605538 2.1041476326632664
Ni 0.7236471886887429 2.139637918376584 10.520324488256316 -0.2409671307098237 0.6466162471134864 0.3450561853119541
Ni 6.485534290945438 7.802048405530567 10.936419899930726 -0.17593081913478087 -0.3688466028633325 0.8736767950445471
Ni 3.506364074136011 5.1435279093025885 5.1674305161874505 0.19991612630578473 0.16156992242741852 0.775707223076593
Ni 2.6369093081637125 9.626565046784004 3.7676528311197437 0.9278836201042535 -0.5939952784836608 -2.012361306687889
Ni 6.210852553933937 3.911578503912949 7.075892941569077 -0.5784642727275973 -0.3897455577995288 -2.7188994269679885
Ni 0.08721352234066265 5.500903619591872 0.7520721367796462 0.3435181514008729 -0.897392650604248 -0.5081011496230023
Ni 4.554311245231699 1.642236228575287 3.669643021890817 0.9448284754887083 1.161871748393083 -0.29135201092027885
Ni 1.0041105234717873 3.3065396952644317 13.552528672261179 -0.27980261551978264 -0.48282489155471686 -1.6805635290477376
Ni 0.5745383674747842 8.809369893637227 11.50088607631027 -0.2879782093520395 -0.9479927321493029 -0.14075272857175114
Ni 1.7418319751195246 2.1880629879279967 6.478774512353243 0.34255810148044874 1.908700854982745 0.8856748479466877
Ni 8.76282486714739 7.29103967139251 5.320459506399113 1.254783189111839 1.1593404973307968 0.12132007376843623
Ni 4.714338276918609 9.087783795340275 9.87122472981665 0.6625264905858397 -0.17510652346127265 1.2291096956051348
Ni 4.441303904371954 7.965556309024556 13.12045382527775 -0.18589692920855724 0.3606828361056175 -1.3925272127642532
Ni 0.14368834062454064 2.548193612802562 3.735532946912771 2.077004239479255 1.6310160571369137 -0.04692726067915789
Ni 6.766889250111151 1.9323678244096496 5.533670350297754 0.9926018862182454 -0.15444848089128882 0.4151200320085754
Ni 8.01603825737106 6.631702985411119 7.505133763244337 0.7108778853060338 -0.567212868183494 0.8907360645196789
Ni 3.5168997609959383 4.2836222729400815 3.1032158302980353 0.5984031777433694 -2.8557060264077982 0.2245727485122003
Ni 1.4677645096033898 6.986044566799046 13.070297626966669 0.45671559606217477 0.6676761531075792 -0.007508649672219325
Ni 6.490001720002651 4.825856474759283 8.929171449521483 -0.18772884021097344 0.7525775790376651 2.3646458914274824
Ni 4.92025883502451 3.732602127308362 10.804560008449544 -0.3245788912942087 -1.121966684668029 0.36847790667000413
Ni 7.97034948811719 7.418212485221167 3.1860912928812666 -1.8425497130769686 -0.19965644488649487 -1.6333495903660966
Ni 0.887358918633466 5.876912231907282 8.882162927266961 -0.36228669025762766 -0.8963325847708498 -1.0273963681896112
P 7.768645066184033 2.535815111456535 7.489182249366926 2.0073378853313693 1.7741362574995767 -1.9792364991094624
P 0.9196239942847985 6.21104800395519 11.176166341714826 -2.621969352008142 1.419897120136774 0.18621240356644703
P 8.79178869886832 7.509636559448253 0.8880476472797864 1.368398952257482 2.170101313846256 2.253989982241112
P 2.6606983678933704 2.4699484542942542 4.5227991175193845 0.18081925757533374 0.6245590102031308 0.010365916615356342
P 5.539658566663193 1.6299321843802137 11.400424765386198 -1.1859730123166607 -0.527613251514001 -1.873602468617715
P 1.758556912652465 2.9961092186513585 8.629747601248118 0.07641961371132 0.4928272541830674 -0.17236264216754832
P 4.533230564367977 0.6177505057450616 7.734391053887854 1.1535112922435296 -1.0748540474509425 -2.0340606460381934
P 4.410422801013971 6.552806326831967 11.143392165293847 0.7360888373540225 1.2282671450991813 -0.10979690362018509
Ni 7.996232655217416 0.6496107206380841 10.808142328124797 -0.9146630076489215 0.13210019510307572 0.4471978863797266
Ni 0.9611115187961145 0.7743692613470725 4.97715898978321 -0.5860418279645391 -0.29921830104223307 0.42720344553567074
Ni 4.487690709416014 2.439318643820739 6.034807927648146 -1.0851713702165504 -0.27603569227818264 0.7620937460582166
Ni 0.16063013460963319 4.135834135441161 6.831133672097032 -1.8297996125001519 -1.1786358552252991 0.9508191458545043
Ni 6.650940851788741 7.5220988250891025 0.7006343447577756 -0.4791289307603684 -0.03636414045133092 0.05728983486040456
Ni 2.2183856626538287 4.799331114732082 10.529055519920005 1.797558235967943 -3.276976394288485 0.10382731630031151
Ni 4.721867756308786 8.449900075977373 1.7226992794676237 2.5353386020917754 2.6322527362120214 -0.9044184471027779
Ni 8.670395621382433 2.684887634809404 1.4951852168708069 1.0526955090760322 0.5188352482110548 -2.5946315834251377
Ni 2.271473611283707 0.4309877725795076 7.856116396409872 -1.2175960385385804 -0.3437197258887177 0.7418115987704128
Ni 4.280281008291041 3.883601229442154 8.672411548744499 -0.5082816410649247 0.7150826674160008 -1.310834523579452
Ni 3.1583420434352667 2.3645264356879014 0.6234846370828717 -0.83854832677253 -0.10674706105026777 1.038029165313109
Ni 2.608252612190466 7.608469120195216 1.3824636053278463 -1.2125101393752409 -0.5552562100422501 -2.4973901478724603
Ni 4.712644376734415 0.9095545953327181 13.375633373025744 -0.3187861958718316 -0.7041400523615681 -0.06935679332726764
Ni 8.700476310367666 3.9289735558044714 9.057749642074388 0.8353542453152647 -0.7904424724042387 -0.16357358312100861
Ni 0.2865734747331699 8.080936971570944 9.170512205050374 -0.5725643623033946 0.547531844814799 0.5869566264693246
Ni 6.954279284773489 4.906968233579302 2.3728609830227647 0.7745165452026015 -0.11986200116567099 0.24758643579855424
Ni 0.9699719197595865 5.172519662455125 5.130937205076343 1.172346936892794 0.7578732802189657 -0.5656285544155097
Ni 2.605832754784476 7.0591707961792975 10.011245125042343 -0.24438644080401786 0.611067146364283 2.907203680066458
Ni 3.7110095535318335 7.379792595329137 3.200680240896227 1.2542160037544592 -0.5411591085192357 4.969355170803597
Ni 8.29178100878365 7.053819188454511 12.59632201828413 -0.31581682883086254 -0.786907976888419 -2.297854544834546
Ni 0.7379513381013062 0.11183743287538736 0.8587543426658873 0.2622404382663032 -0.7167279163289076 0.3524684186156253
Ni 4.823157403037217 5.708304013572976 1.698575162558675 0.1681588884988459 1.2500631579283503 1.347160097483364
Ni 5.829250348153142 7.098800614774323 8.590189447660887 0.7708249552836274 0.4087277553289864 0.6849819913758785
Ni 2.4886744277590713 5.1273334789701925 1.2958066501905612 -0.9028508455053418 0.5290497268502115 -1.7539461557049472
P 7.337538162163 8.686152615952977 9.124837396512307 0.8654798610560513 -0.44744008429751975 -0.7200220136991471
P 4.291458888077942 6.0608400090502785 7.67149802919178 -0.3353415291273515 -3.6722274552872753 -1.3549271430232923
P 2.2483546659126312 0.5218338731723164 10.469023511249324 -0.17275756361312183 -1.5206023458683358 -0.4423421009493221
P 4.402344200135511 9.081017501747372 4.879966347785999 -0.41075044218597007 -0.8460418069360978 0.8679491485321503
P 2.8908081929153058 0.3723192604856608 1.6487865964304254 -0.07334791676453174 1.2546728887862197 -1.2015153309266338
P 2.1719244004588156 6.07559183208295 3.450860921672077 -0.8762337571384456 -1.8564074448956676 0.4328375038929965
P 8.347558721991724 0.3152720528538274 5.351244746175245 -3.074370379855363 -0.5337880128661452 -1.0948081219753663
P 7.497714108151817 4.7476392376825824 0.273789181914446 -1.4533335454183487 -0.5638951166641708 -1.310170407632892
Ni 6.339346982192019 2.4009545967919244 13.136268524140283 3.6700834123610795 0.7008868355315929 0.01685306700159678
Ni 3.4908118367305896 7.797795040782347 8.299279774599059 0.3336273746497222 2.2529337730624555 -2.7620605357364947
Ni 6.350971604884641 -0.051445237736965924 4.0868422608281145 1.0807264470713194 -0.5574359913023883 -0.47035375567089965
Ni 7.825130122326167 0.5580507621105083 0.01147384696194149 0.6051564373068029 -0.7672081844666464 -0.8711506861885836
Ni 6.719124987774451 8.5714327606213 6.844306072815101 -0.007959364056392743 0.9656919492012788 -0.31825809128250354
Ni 5.818119004085587 3.8316208309327093 4.33384920554457 -0.38324323790463677 0.7956728675652425 0.22148253962265083
Ni 9.403007451045982 5.4717629521374285 3.020788972049298 -0.37148841136155375 -0.6220794383143867 0.1827524700423046
Ni 2.4690735827705503 4.732691964628658 7.266871810907375 -0.016336789486810575 0.10293745749619047 0.2819492295491402
Ni 2.3075387937768315 0.3884987993878664 12.623007461185882 1.416705866892986 -0.06890145095740392 1.4665482443364097
Ni 6.589364787950158 1.5968173664936238 8.766198706799972 -2.928501670213285 -1.2547536214254844 1.8159789045669756
Ni 4.294762924151506 5.7752596065679525 13.149563779157425 -2.4985903388281483 0.7200901479329211 -1.6031841225263097
Ni 3.0899531502844346 2.3434736762557864 11.35041841209141 0.17239169563327084 0.23094342792523453 1.3248951154375763
Ni 8.781094790562618 0.5487380339549934 3.002644695076306 -1.0964618555287051 -1.866793673225998 -0.478056523631796
Ni 8.98701534866852 1.1246101151462329 8.602981186194706 0.3052920180401387 0.8512377493147404 0.2739507847246959
Ni 8.132638155764313 6.016463547081965 10.110875308018896 0.19804102077025892 1.1192063483140724 0.5201333981971881
Ni 1.0302077548810054 7.861474519135366 3.232378511485926 -0.31689694926891876 0.5697554320996897 0.1636268049564472
Ni 7.33395491177336 3.221388636005182 10.7464890149921 -1.0149265178573748 -1.1306989223347041 0.45110622029519726
Ni 3.6465017393744548 1.675751253648252 9.192743248896328 -0.4091640715354566 2.892322134968935 1.353365454963127
Ni 8.774449489840013 4.554357780951046 11.981372962843697 0.4266339461854459 0.18578457200040907 0.4890521034113513
Ni 4.9973685219807775 3.921928047895492 0.2065767117486797 0.02361995341178513 -1.1047606052023877 0.45911212131880935
Ni 2.4612648890642967 8.485667429866684 5.829484888178646 0.24875757328852 -1.675880264639456 0.5917692173666196
Ni 0.1166119976802835 8.94927488027894 7.004854304558685 0.9595079318777539 -1.436378405621249 -0.42743047394481226
Ni 5.044062462772519 6.86693173956111 5.724323469600631 0.036949323530839594 1.119205576983124 0.01970390618683058
Ni 6.190144158824982 5.332853829889718 11.589428658795454 1.3668118102760203 1.0367981211194852 0.9133437746168658
P 1.4635576805745143 3.349845835687788 2.011048557251036 -0.32483343050717606 -0.13657879969971962 0.7614779668510885
P 8.639105003694205 2.1917393097563282 12.334957873435057 0.12408478099776693 0.579499398860331 0.6075727600577795
P 2.847315909614565 3.9906519982256152 12.737091638591291 1.3749447237957997 1.4942364542802975 -0.43879372147643136
P 5.417251010495563 3.089394721652283 2.110884428107098 -1.164119149666363 1.0199933908573209 0.19003717662917594
P 5.721762143607829 6.443968586425621 3.5947493658898058 1.1451271819448923 -0.2749979950422877 0.40571647930648835
P 8.265962991690508 3.9340366420693127 4.674493463300205 -1.2525126479101074 1.1131835391587603 0.47464955483277615
P 0.9804796851879056 6.570582971622127 6.852328830830346 -0.3202666370721 0.6534199002988812 -0.3372374605984837
P 6.671388646869358 0.3146028692096324 1.7636879410675512 -0.23495794840126633 -0.142176091281839 1.147260169127495
