# total energy = -381178.0056120797 ev
CRYSTAL
PRIMVEC
9.10143768938490 0.00000000000000 0.00000000000000
0.00000000000000 9.10143768938490 0.00000000000000
0.00000000000000 0.00000000000000 13.32087404583736
PRIMCOORD
 96 1
Ni 4.514750053204664 4.814842662698633 8.566134982653738 0.8454147148750601 0.17543973843097527 2.0980662023558767
Ni 3.990534536128839 1.877708545799199 12.049409980461066 -0.37291254540259 1.7578244077134308 1.6523960654745864
Ni 3.519116460144683 3.6768261755793388 6.7693882774390834 -0.09311687186134285 -0.06337615026380053 -0.23689835995708883
Ni 0.8565536108041804 2.314340926239077 9.47544416793538 2.3467864946485584 -2.374207824084305 -3.1221995835235004
Ni 4.735286994265212 1.9935425455877998 8.597745186524705 -0.2530790834820093 0.9482698970700892 0.4597682668455695
Ni 3.225312944219813 0.5637130270060988 10.083022484906211 0.5654228661626068 1.0098359907083447 0.017474759745995713
Ni 3.4646170501710722 3.3674956066459556 10.355594166564808 1.3393740257800417 0.5608897541789437 -0.6725095699404805
Ni 3.0078249848461662 6.543587974857538 7.684506000370217 -0.4658581817933912 0.45041202244165013 -0.21781023297738616
Ni 8.910999385324423 4.137495453437437 9.422733190503488 -0.35722315969179125 2.9881489495622735 -1.3402571997159434
Ni 2.082709332413361 6.838793112214595 0.28185514828736874 -1.3154722794617797 0.7784552181353754 0.47165704786335544
Ni 4.794018572848997 5.743972049232701 6.381045395913198 0.08943556635501371 -0.08672536651270225 -1.7429711447506822
Ni 7.298925405238284 2.88335372051766 3.6738836807155337 1.0751399541224773 0.08638623800572863 0.06486764720766247
Ni 7.677162960295616 0.7253254389999878 12.346186025994717 0.9242655637356921 0.37456293652181943 0.1864944535832401
Ni 9.00201376403787 5.501964816233653 7.052097140598784 0.6014607336227706 0.4284779413727201 1.141087978878512
Ni 5.487875790408811 5.0069649147248425 3.147176189950534 -0.07656128149550685 -0.2723340750568794 -1.979859734515758
Ni 7.757237410687704 5.352109641681967 11.610847185048675 1.0083074698789602 -0.13385008791464692 -0.1937853308176985
Ni 3.922492186602668 6.807729904759696 11.983804995996842 -0.0321956108959381 0.7246973076876293 0.9132033923842595
Ni 4.219654133102064 8.937611989660235 7.893297535857794 -1.2433487220226522 -0.8153762595314409 0.37936061502077895
Ni 1.5947903495684572 2.6728010568019775 11.43375959824214 0.23951317187211651 0.3489627194552119 2.8595521396267656
Ni 1.17386705089452 4.563442745816357 1.4221233311360335 0.4924169061185262 0.1643009482053364 0.59132621629193
Ni 8.140289626378978 0.6231390452994681 2.919416347795288 -0.4525105568418916 -0.48990956631564014 1.0653527928287265
Ni 7.531403432786035 8.257334117404467 0.7223128630645728 -1.1117138965917692 1.328129306104158 1.6390013893352353
Ni 2.71397596173194 7.440161518125807 5.521515614925088 -0.15458860601357893 -1.1492180641848144 -0.6115955080639274
Ni 6.487932682274267 7.615136661202404 12.093009508439955 -0.7110619762923818 -0.052763664855276865 0.5837566314747882
P 0.8146396691190649 4.98859821310047 12.601387613475854 0.48713457467366433 1.047378467738493 -0.9226714797756949
Ni 4.372713013784463 1.5471352208740978 6.224445145755059 0.6740370623286004 -1.451184617396146 0.7248009231450292
P 6.775947683712962 6.649373987236174 1.9338580464588844 -1.5583574531299227 -0.4772975339785845 -0.00825735491278578
Ni 0.24400772904317006 1.7552486992402598 5.036982366968323 -0.12626507647853738 0.5821160105475717 -0.42100580136539106
P 8.054035299672247 3.498346978922275 7.189994846075098 1.160992431111923 0.16530676376203143 0.5432229330267999
P 0.7448325507896403 7.890609881254386 6.45168529580785 -0.8086001171498718 -0.9872444785610739 0.5746217590530556
P 7.7453600342656 7.253136071307551 10.301804668745161 0.9623256038322071 -1.4732853059499273 1.2897527632084884
Ni 1.7092409308006136 8.516670488110556 8.600848776838832 -0.6525215568543278 -0.344688003339258 -1.4147004064271829
Ni 5.6496993557613155 5.978661726183189 10.555087673123019 0.8291715135433204 -1.2242276849224851 -0.5256270743219076
Ni 8.401100430020223 0.6001843088441503 9.854729298491703 0.3051081841641068 -1.3827413370220831 1.7150096265407497
Ni 5.790880860021611 1.0063277825588115 0.5800910644555832 -0.16182651852291485 0.6116140200066886 -0.6823262989205862
Ni 3.592701585334502 5.636174619084498 1.63654956680976 0.19905069298169592 -0.22902255675343783 0.699949411318988
Ni 6.699177055268171 4.953375648538366 4.9402058679385314 0.7745114029962791 -0.24921780075439015 1.9106425520901482
Ni 2.017406515686465 2.2688701426338405 0.48650917011863254 -0.14233112880246454 0.8068553665446234 -0.37666352780459
Ni 2.306932355811803 4.483595831371052 8.63566996799081 -2.3184071721749167 -0.11313625240606322 -0.3990413812791579
Ni 6.563256182097513 0.19418190741649494 7.56564395220182 -2.80565538960831 2.8042374262148604 -1.329961217106574
Ni 5.4719391726960875 8.95252924633137 2.7282879727846288 0.20301379139450199 -0.4117935387385038 -1.8879669648695032
Ni 6.994209265305672 2.010116263951518 5.9953255487818335 0.16717929819439598 -0.6906047368792945 -0.8429459416195935
Ni 0.9188083559879634 8.705088454923128 4.289960920370626 0.5578085441504588 -1.032786171746615 -0.5821527773227781
Ni 4.9352546857365205 8.080192832114491 5.778728620175791 1.035846041618861 0.2820800987000497 0.36724249160100625
Ni 8.321744993219971 2.6806920034364334 11.047294343349114 -0.7356072697319137 0.15218616721967337 1.1423761015623164
Ni 7.157152307516352 2.4481957730129396 8.978136141782397 -0.3064107050256142 0.382409943370064 -1.0215149697081696
Ni 3.6497767022257035 1.269341134164923 1.7228685137253776 -0.716884753621746 -1.7937761432176913 -0.5608126210841051
Ni 6.06153031800178 1.7444543939248454 11.03426654518007 -0.28904110339891514 -0.9653736466299118 -0.6400087690992977
Ni 8.352271215840462 6.158223993946944 0.6029866415647372 0.8210162314260377 -2.492332016623262 -0.8211375874952505
Ni 3.7141602737275936 6.860308911342453 9.770395375175825 -1.046034552116089 1.388751290661589 -0.47251322521606365
Ni 7.76668470319816 7.848588542602388 8.297825504350293 3.6138952952052854 -1.9546852921326592 1.505868639202587
Ni 8.90183423738798 7.370262475273882 2.537600107366943 -0.3912170001387327 1.2723713345072476 -0.797835165323884
Ni 8.754227117990517 3.3436316365472902 13.281524413444616 0.5627987982761985 -0.5933473604870169 0.453622816069464
Ni 2.665092138924949 2.605668851062941 4.776106032974404 -1.1696015129371726 0.17776607257130675 0.5389335616228266
Ni 6.949166249280388 5.334270823454132 8.323894752845183 1.0808424038238933 0.10723222821680241 1.6143997887364714
Ni 8.690253111192836 6.510886508585798 4.647106803304903 0.1234072953147681 0.5881542463218515 2.2712248580621592
P 2.5529715257878567 1.3004771531227923 8.011627149910717 0.2790611093680678 2.448536359594551 0.9668754279864187
Ni 6.5640207028787065 3.4149323008314028 12.589877935143752 -1.8135849504135026 -0.17128355017075664 -1.5687609078514337
P 7.8325336061973365 1.7360901725210798 1.212610051625259 -0.5383671475963954 0.11365844345812039 -1.022261360955891
Ni 8.917024537195255 4.1792437489532945 5.086469615106186 0.03789266128071538 -0.3029276315730202 0.7810733724845128
P 5.8102214154982175 3.7215051340897687 10.373364724008608 -0.37686201696864124 1.0433791167711126 -0.5760024414506661
P 1.9875446980305838 8.229174268630528 2.3261973693540776 0.5402394249184438 0.126006423500512 -0.6039107378251599
P 5.839373321000134 0.5409630729028864 4.551209503173483 0.7080077628470903 1.3403955250660207 2.2156401788183193
Ni 2.9423310379239718 -0.035917004271686544 12.844639923175702 -1.2563777872924684 -0.3815303689785881 0.8635934426666159
Ni 6.463686451785005 7.160328709333451 3.9749492339179486 0.41403888312925474 0.3558039107467614 0.5252542643635212
Ni 2.1823063670394833 0.41669932135784654 6.17046906845905 -0.8390815735681807 1.700937978939032 0.7485090653952463
Ni 8.38605575321889 5.014974180051626 2.861150762830515 -0.24440855229120492 -0.22065541573566516 -0.013755401912879536
Ni 3.022505604132645 3.4788152932503693 2.6526659457992023 0.23955276686080032 0.0028184432854015977 -1.0343267767608575
Ni 5.0078386527604914 3.0922317196650146 4.815030152318783 0.439946604133952 1.9787811567395988 -0.023046340296502245
Ni 4.047919101907666 7.064927437566019 3.525742306915021 -0.17339776830028203 0.42407081344396 -0.026008251138303597
Ni 1.221777019849277 2.9779631671902855 6.896163115692827 -0.33824019083138523 -0.30403963369027637 0.7872766730817473
Ni 1.7964145027323506 8.077071038924618 10.874775678353991 0.39559713148429937 -1.2507247027717492 0.1779699610519967
Ni 8.924387600433171 0.926353447983308 7.717688022561565 0.4059211391181267 0.3964034294356786 -2.1678181742390343
Ni 4.576193860274111 7.7306248063518925 0.8771847501709439 0.001370912205597639 0.5466617835050199 0.17564928333862007
Ni 8.083569465564759 8.889629209202509 5.500442145677776 -1.3800388504892556 -0.1855403172000869 0.375811721327256
Ni 3.012812572799663 4.69072635444711 12.935301166099737 0.2845326740056003 -1.3535801420770945 -0.7127725312255854
Ni 5.458432638895012 7.092996271961245 8.245927285320311 0.33886548312021 0.08915017390411098 -0.5479707321244305
Ni 2.1096404870746692 5.423000741261869 10.718721514468132 -0.690869817615223 -0.14764071394083603 1.4648960534449675
Ni 1.9062597564016066 5.3084136384616425 5.9549634022537825 0.819235485376531 -1.0048135977930888 -1.2157358454013902
Ni 3.4795252054043346 0.35547849951624816 4.266928821693401 0.42486425587953275 -0.1825840627852404 -1.9448053140147863
Ni 6.240755832564295 8.714299110048929 10.00881209093463 -2.0489211080897936 0.4005434197459811 -1.035643438689752
Ni 6.823848551229847 3.903834238966412 1.3805224789136925 0.26304467933515346 -0.3653797273606546 1.6003003732206116
Ni 5.313055371776027 2.3034465051070776 2.7599382229822296 0.3745678216178259 0.2675261121452748 -1.1253651688266169
Ni 7.233986646026242 6.82684292428952 6.457413740804074 -2.2255648941311996 -0.15760348158050277 -1.5320139301393874
Ni 0.5414864055804887 6.567606669400017 9.26843833455816 -0.2738183729118897 -0.5845691000737545 0.45757742984183775
Ni 9.106625690931102 7.615910283421468 12.233744132100767 -0.9821932892904116 -0.1457437540284393 -0.46634257762897746
Ni 1.5606417546751732 6.369304541059163 3.495996987663893 2.382285973106749 -1.2247460193198003 -0.3071792077605226
Ni 0.5924744808233344 0.32199795016272054 0.7341529235914047 -0.09185497442978374 -0.3772728792538148 -0.485618395139454
P 4.677492863782174 9.0047350939614 11.629269405444065 1.3590295952274403 -0.9444003868123542 0.044001859502246804
Ni 5.886409551919241 3.751685502071147 7.182295939779729 -0.1287806438115395 -1.4441529073603452 -1.5764420785457753
P 0.7340637295002657 0.6367984832567818 11.712379185366247 0.05234534637093566 0.6236064164818744 0.46544963350106283
Ni 5.568013950866 5.695060922112096 0.1137297473527458 0.6905923955841204 -0.5434808146738769 0.19587486635687557
P 0.8611998948375017 3.4007795649414625 3.4778141350845213 0.3914211457297388 -0.7283793845249069 -1.14482250622028
P 4.661392420187766 3.602167080720701 0.7460566941833361 -0.4618212927198563 -0.33622264618072417 0.16052194077887838
P 3.6098213899705014 4.973444319044681 4.160562137578573 -1.012609953909056 0.27694560568696175 1.253767860473447
Ni 1.3743080171351383 1.3274811192870715 2.7691434172453073 0.8171071261796186 1.0332993639376076 0.22055462849174273
