# total energy = -340896.1606428981 ev
CRYSTAL
PRIMVEC
9.02171708808407 0.00000000000000 0.00000000000000

0.00000000000000 9.02171708808407 0.00000000000000

0.00000000000000 0.00000000000000 13.20419488755653

PRIMCOORD
 96 1
Ni 6.309157206756998 1.981196073492424 11.485708239201257 -0.17940283684378136 0.21088933748783678 -0.21005244340883825
Ni 4.732503936101848 0.42524313202507324 5.982701873645155 -0.7319753294062814 -0.5589184893851857 -0.04898594298039951
Ni 2.6508420243721877 1.6254968453872263 4.8375546108146725 0.5566847149586607 -1.035437750436849 0.2572216448954731
Ni 3.2467895707476426 4.146038214078703 4.655020019230051 0.30018246472771526 0.7105104746642861 0.1540515025631863
Ni 5.146113564318828 4.296078386108468 2.866736218152375 -0.6156200558422881 0.7894168593532017 -0.16136243440230275
Ni 7.035928668387316 6.028076598269273 2.7035459917211555 0.42472207387471367 0.16944315452790817 -1.729952621003827
Ni 5.089998485849395 4.5704017287161935 11.329397071826781 0.3213274742364466 0.5220696959879525 0.07315431269648691
Ni 5.814568648581555 7.835911361814973 12.391503040239296 -0.8954362982088255 -0.14205499232294244 -0.006011239191086421
Ni 1.9360423809298017 6.419808563256611 0.49452630832955186 -0.492688414612358 0.6582774855014986 -0.8853578309269009
Ni 2.894617833909575 1.5609284182801955 0.44919759446109225 -0.9193884381490489 -1.4194494910763942 -0.3756001195370821
Ni 0.24856453681255983 0.1151622148974777 5.047000081429273 0.7105945497376601 0.33622933104894354 -0.48367566959078645
Ni 8.705099644782665 2.332474660367715 1.377830871567521 -0.22382172927878868 -0.69133955816279 -0.25657192712661614
Ni 6.796817086433321 0.8902368504238071 4.649777499600053 1.2616439207874142 -1.047522192405209 1.1742773211462874
Ni 0.6036087882783879 7.37480239466848 2.3670494878156663 0.662113314307821 -0.6808733685241435 0.3092425180474545
Ni 7.462980654629932 3.885869945123477 3.7883226322696597 0.9631254740256832 -0.26225072267894833 0.44493274449463366
Ni 7.602438352858308 3.779368578349899 12.623685041522494 0.8139639525649466 -0.49909457524901785 -0.4297619502914663
Ni 7.792715381797024 8.791924647224759 7.109639703295139 0.7562270028647943 -0.01794707139672393 -0.25623974059817806
Ni 6.807363473367528 0.6754243604874277 0.3859057402806571 -0.289482818922024 0.18941085589908668 0.47765208910452583
Ni 1.8166399591383313 6.4976028271861805 9.132773227312507 0.8365387525416689 0.5988922015646461 -0.26182700487796845
Ni 0.21990975992596612 4.6286008237654395 1.1871623001198708 -0.20777367467699057 1.2217493985853216 0.9589129786062325
Ni 6.478963960286205 1.8090978038971024 6.846256094473914 -0.5431005485163227 0.9717535820143265 1.5222995310651009
Ni 3.3657499284161223 4.47869597748761 0.6954137783917239 0.7413606272759232 -0.9220860395858701 -0.9380407631429135
Ni 6.0138132640152255 5.659395119695021 4.867607753804604 -0.24809037201816628 0.20035552783604849 -0.19051283071401384
Ni 5.338591892155701 3.095757009870347 9.366183986423282 -0.6006546927817075 -1.0387745281195657 -0.9334945385331277
P 0.28162822669722615 5.5707206653098025 12.412985552273287 -0.2182311225648887 -0.5046702695645825 -0.022727266394186665
P 4.027321442763708 6.208898868006064 12.684464347575318 0.178214472962635 -0.4042036422063877 -0.9925697474287292
P 2.2975786598018364 8.42630153064426 1.5102029134245307 0.6201200005951708 0.2470148795658004 -0.3581389866378413
P 6.440287860382916 7.735535740745694 5.681606586446105 -0.18587353216978958 0.4158065165526387 0.4963085278634485
P 4.7210373340544765 1.0175233505230645 12.700428275445361 0.9964287161635031 -0.47273125476414074 -0.8732983286592056
P 3.9096692340306096 6.331928019949417 8.028071223048956 0.07617278780783655 0.44059195102743476 0.07119924585264512
P 4.815124818517131 1.0958950043275604 3.810466436144776 -0.6114175877251663 0.23767149067768747 0.24454893452381107
P 0.142772276979126 5.5458207269535915 3.4025892067798007 0.25905895521452804 -1.1608937007505298 -0.30224474657338274
Ni 1.5806589129124542 1.1220399396015823 2.775375998677068 -0.8706639763601521 -0.7892985886077826 -1.0124418037623077
Ni 1.7058171900195993 6.400132198925126 4.8092056701274535 1.109804081163566 1.3489938082579929 -0.5513293641840182
Ni 5.84624389625136 5.645005481405833 8.92528276272754 0.4224546179967757 -0.26304416511452117 0.9555299210666125
Ni 8.538874512821362 2.369003591673621 10.343254861005978 0.4777058251605967 0.03912267703307455 -0.21835042175157232
Ni 2.4872331902816462 5.109792132499225 6.794983873580429 -1.2997821224200325 0.38534331496677504 0.42325114575614203
Ni 0.4862434701393933 -0.01851075852147628 9.317764432380606 0.6104212852501681 -0.26682085854813403 -0.22042375934083328
Ni 1.5936140982311207 1.0596006376583436 11.403076530725818 -0.4617649855606242 0.7122133162880057 -0.03235193396814428
Ni 4.1177010016233195 6.641688666130764 1.6856076422254873 1.0038396639155938 1.2729485471669562 -0.03535241135736492
Ni 5.732182330802961 7.860856408755163 7.8241984668990785 -1.2247197940675552 0.03669632697976906 0.35378070966914554
Ni 5.213000572642361 2.8636643235834294 4.9825760017909735 0.3108898238428904 0.4015566915018439 0.06671035684335608
Ni 0.7609511378826159 7.502820555999872 6.946713813166034 0.4505346640624434 -0.8041683066307634 -0.07379631715586
Ni 4.967673027816109 4.676515161667554 6.8073165604401895 -0.04770990448145332 -0.5591334336094693 0.27537748986889343
Ni 8.13570301093704 6.980481196960767 9.159168966313452 -0.3207713446226605 0.272889176229401 -0.2993424853249232
Ni 4.421390032401141 0.3937600469230186 10.541621663395425 1.0167028930315072 -0.27282515576068495 0.13664487705096465
Ni 8.24756327748728 7.037994641533538 4.618074284608183 -0.3824598227713929 0.989673913938173 0.36375196194924453
Ni 7.307752995442624 6.100087941732779 7.008614518616567 0.04407307905981442 -0.44594087404417393 -0.6307520263877202
Ni 2.3415234423138314 5.2424203911132325 2.644892202145405 -0.8546292914947926 -0.10054710288714296 0.5497733325508081
Ni 2.4215911788759237 5.22907727197235 11.372112194339516 0.27749247932936727 0.6080023913960303 -0.11490748537387306
Ni 0.9471629812331759 3.4040651596475824 3.6704096959211645 0.4013733718464442 0.3475434705101821 -0.17257090152361246
Ni 3.5178560735921094 2.5855699033550903 2.7437918703469015 0.0988900268996942 0.5547170497093284 -0.4487168941274143
Ni 1.1651005938675958 3.325143181118547 8.229870788679177 -0.3158831632924237 0.052779348584560716 -0.48698005137367106
Ni 3.457807526599739 2.618760799446576 7.08830244090156 0.8308298750823497 0.4303556180114072 0.04053832643367857
Ni 4.03179621429439 6.927550784520226 5.836650202610781 0.09188094257171273 0.862139740939225 0.26133103907815636
Ni 0.507366015673233 7.2540918239416285 11.132865286633587 1.388519891377073 0.1482472371765834 0.5583417909461094
P 0.22237088426784093 5.446978797739588 7.862213274961241 0.7828515474308582 0.7408188958398403 0.4179392466249253
P 8.534011807468465 1.5585647284797144 8.18937320415483 -0.34362228107890497 0.585851566330604 -0.652893595481766
P 1.9877277964525317 3.281613397579156 10.239681041332613 -0.25641303295124873 -0.07039474767347877 0.823402472270027
P 4.018714724940583 6.164160174416046 3.8204489657792498 -0.1546657391084175 -1.3622720134241377 -0.09759161980324482
P 7.0000402789739065 4.025264491334282 10.250746176982574 0.4049500334541091 0.6241867144653767 1.0366788219328018
P 6.256371141785189 7.822658459842047 10.065649417827967 0.24378891642933498 -0.586155470724268 0.5053626676459168
P 2.3975573253321025 8.54720155742382 5.6432354205705115 -0.7129080283621851 -0.1227390656031499 0.6170999828219242
P 6.775282248441917 3.87426801732417 1.531250578708966 1.187649371577819 0.5384193409905695 -0.2752101110530938
Ni 5.0933726079309976 2.8586302056114126 0.5729340490012306 0.47278601926147606 0.0037640950281225497 0.00790022868368317
Ni 1.422598434651286 0.9809402889163844 7.141039788602672 -0.5067292089761403 0.7537304616951858 -0.6563278179742954
Ni 6.606756578697703 0.8006214309767945 9.17416847265803 0.22066184349356838 0.22686951496617702 0.4293775703688541
Ni 2.7453084209402636 1.4513777112296609 9.25324833123099 -0.7340311834940456 0.6822828472771605 -0.1687047336999869
Ni 6.555432031846802 1.9973629899903702 2.62483512136514 -0.849161326401686 -0.03137877142159757 -1.1396394193574437
Ni 4.3105401981320215 6.806226737051265 10.489979552113313 -0.687614543902719 0.49915705305583713 -0.17213355687587775
Ni 8.051413110914545 7.190804480619591 0.3507201426056354 -0.41766362436603555 -0.31913432323986973 0.1584509171824626
Ni 7.695894317145263 3.7437959490243404 8.077837719409235 0.18980397757244732 -0.18195799916546726 0.7066803022849185
Ni 3.172901710190624 8.345033905748334 12.560331839667848 0.4451800846187494 -0.3649902052317198 0.0045845340468888785
Ni 9.220645651074584 4.859755251505601 10.162106907292861 -0.21872143193774587 -0.6909940018979132 0.0008250670044566436
Ni 8.595269264511463 2.4412494997738166 5.899198667327249 1.0686792860987981 -0.02646745016290926 -0.21568393066300273
Ni 3.6407408780667305 2.811013584363556 11.620615383477865 0.1378646083906787 -0.6003140216128371 -0.4391099671652695
Ni 1.3737999685031892 3.3664897091933716 12.435366627300132 -1.6479881662148779 -0.16327842047809302 0.34126277970779295
Ni 3.1645115135705963 8.4864132296542 7.857076309417752 0.32308456613686937 -0.9845124243418916 0.2675757344362875
Ni 5.643165051179505 7.957794755725269 3.6141466612962816 -0.10995579779555256 -0.366778150370078 0.7068301975992214
Ni 3.2613686650895404 8.29707445926224 3.5508457853990505 -1.2114441600045718 -0.14849971950702165 0.8749235229674545
Ni 3.4530530818483895 4.474807617548651 8.98871535568999 -0.20085072230491216 -0.5680554186894475 0.7630828494443632
Ni 7.2812562132135685 6.006054587570898 11.380325565310349 -0.021616035607878902 0.06752591076611597 -0.707986936911484
Ni 0.6857136284929564 -0.19325960851138332 0.03679868063809806 0.05996635325130319 0.2292174463730633 0.727593912509134
Ni 4.5179675106994175 0.4089914113892475 1.808432903369257 0.5689532479133685 -0.6565386484335208 -1.2560777395535465
Ni 6.058461740437287 5.4791682832667465 0.1912216026872282 -0.7939317165044197 0.5608535016243696 1.2884625836421553
Ni 7.863093794520503 8.87934508297537 11.213107142329836 -0.3033320661002905 0.03679042935547212 0.20007810580494576
Ni 0.07857103374568139 4.9271384542528995 5.605272938465765 -0.3180914837976522 -1.0096236175872224 0.9069191020374445
Ni 7.984093060184819 8.875601070505143 2.495355441912841 -0.5373914139466874 0.6278327958583961 0.26384660641115854
P 8.607935754892665 1.7315561480378134 3.5963080206760867 -0.9410124441767279 -0.7940816118187227 0.6285431916618595
P 1.8274930844435933 3.0335252074134105 1.3849877995015725 -0.8310633312493946 1.4249580795994492 1.6655506005786735
P 4.650063488022479 1.2003123545213252 8.256873689220473 0.8599273066689384 -0.5143844115285527 -0.7200986325733533
P 8.502904927956791 1.529379474645532 12.452598106379972 0.37830003496674847 0.7461372227289602 -0.16304496431104823
P 6.1983073724878786 7.836010600699726 1.5628085440604254 1.0225174428307553 -0.6402635654225812 -1.4815771136450742
P 1.7219209544999752 3.204396523524513 5.930651078592198 -0.8506679928541994 0.15072680906532748 0.10332286586006721
P 6.970827959989338 3.944511104295714 6.0327724018614495 -1.1023944189630563 0.17195615075774903 -0.5927410943615855
P 2.479898534526719 8.382374791565855 10.36439454780173 -0.8882449226667088 -0.4915437594849535 -0.8625624302989404
