# total energy = -381163.8983996481 ev
CRYSTAL
PRIMVEC
9.28708316096656 0.00000000000000 0.00000000000000
0.00000000000000 9.28708316096656 0.00000000000000
0.00000000000000 0.00000000000000 13.59258495883477
PRIMCOORD
 96 1
Ni 0.04964317502051387 5.400178895036525 6.2812147681304165 0.8151163210018348 -1.1101506658697076 2.0015842706770433
Ni 8.73893177335243 7.6783097132553815 11.224458020779224 2.0563150865610202 1.1253697968123069 1.3147204888974195
Ni 6.1270510429264045 3.5866901409197625 8.811243789976487 0.5608740704496599 -0.06577704639580931 0.29874984604624677
Ni 5.4986405520813655 1.8208441240827609 0.4909774461886858 0.18197034046064145 0.845660255226963 1.2371513349626886
Ni 4.094229242740222 7.381819579209304 7.568405440888438 -0.8939756545028992 0.33216390273031826 -0.42928938153042195
Ni 6.7292255234760585 5.990224444808915 2.856699390460967 -2.975264380290121 -0.2584691441493291 0.8219767955670941
Ni 8.447568109282654 1.9979952378471757 9.704915668595298 -0.33910716681737085 -0.34451111144176155 -0.9528359191742171
Ni 8.199175779597567 0.2128627351409968 7.678845577961238 -0.7784012249689884 1.344979030671645 0.6005330796021786
Ni 3.9305258255803093 9.186030537118954 5.954680919639889 0.15558336582668045 -0.7503216931239529 -1.3589856293633822
Ni 8.868059379422178 4.045574213381807 0.3993845159454269 -0.7642303327852451 -1.7129177770087274 -1.0930538582884206
Ni 5.229565887908553 1.2295355309828775 9.284442043914026 0.28061765522191023 -1.5511226259443802 3.0380625465632645
Ni 3.8741903783407317 5.183353361455514 3.0689742532296806 0.024663049964318815 -0.3512258044577758 0.5091730425309425
Ni 3.5697690751646505 3.6609960943262676 0.8570482656631123 0.866280759690792 0.40820376450471635 -0.1481359084096997
Ni 2.1441925030046813 6.113640494655064 7.291606709542998 -1.1821672654173252 -0.14660635913905073 -2.2395370400405756
Ni 8.373772945457121 5.69565673700395 4.306687989758086 -0.0596436798045618 0.5980691914427184 0.39097943020662984
Ni 2.116544856049155 7.45108264638912 9.044030104900383 0.1127701273158961 2.7306285424794585 1.2270597550546416
Ni -0.08669399380757192 0.38946219615796157 5.56952142917037 -0.5480375808066239 0.9208462536414981 -1.0722433493009726
Ni 1.093554057444814 0.04106933972681492 2.0998234625847867 1.7610390579959865 0.48218005888186644 1.193353363941132
Ni 1.763431375181497 6.7394413150955 11.29670224169526 -2.116971523900812 -1.8682082941853375 -1.0441013396491179
Ni 7.138042929919546 9.203258076622651 1.6415086883284438 -1.09076866179867 0.23971526058059364 1.5019446215578327
Ni 1.8683289809465855 2.4905449872369263 10.77289867090832 -0.7350511401181277 -0.6540266806449446 0.03672949421054965
Ni 4.34217579242737 4.928302193051209 8.026652419436761 0.20109240600207304 0.2542455929862847 -1.225942610731063
Ni 4.6959022207921945 5.285102645985156 12.849533215225303 -0.40293557412724157 -0.9209704379241881 0.6781048046400708
Ni 1.8401241089936353 4.214626990516991 12.929253538190112 -0.42598294286500826 0.18078249080012734 -1.85693657792626
P 3.191376153580519 1.661830683984501 1.792671756921327 0.0879237576961776 1.0544045213473388 -0.043767374893937526
Ni 4.468786598925418 8.219003702422576 10.317179636431645 0.4223587158488597 0.12096757552502391 -0.8998868777810116
P 3.028480712666871 4.518128872447322 6.231996012816274 -0.32927655388019417 -1.9969318595066965 -0.4551377100520935
Ni -0.009654851788701728 0.9597829097298661 11.819799065443801 1.7698749111200613 -0.3257317739517293 -1.0578369440676556
P 7.348608969362827 2.507075995493842 1.6214866654626667 0.07139696368574802 0.805967050402399 1.651596966612059
P 1.914262894900913 0.4601090387480482 4.965289859671892 1.4131574874200952 -0.09181203700699027 -0.6932894828003092
P 7.1461784148819385 8.980005881404681 4.08018160055516 -1.5730410232840264 0.5204023355878585 0.5910410809513433
Ni 4.9744961453376675 7.615909800627171 3.173678687662329 1.5670048443922755 0.49488490804304447 0.4644952400075936
Ni 8.383737985827722 4.001469854835689 8.449666990106286 -1.2671519950898371 0.15913508773368076 -0.5324723793785153
Ni 5.933888997569337 8.591109268619105 7.960497739034241 0.9379734002400878 0.6570456699769265 -0.41967834080321914
Ni 5.951302278738841 3.6915320241851086 2.662284517568024 0.8857170140385326 5.26532719699439 -0.1828458010870593
Ni -0.0014766462431738889 5.775562801634567 9.42311398548132 1.5011583782111113 1.4816917848460676 0.22443570871370377
Ni 7.053651204059665 5.135562030843107 6.441975108595601 -1.216213556368757 -0.42406824234079865 -1.3526064653099157
Ni 3.908803337764059 6.392633763782025 5.36321258870741 -0.5905697977418797 0.09583812744724785 0.1686646244906708
Ni 6.519086689864136 4.416407449167552 11.606110708598287 -0.883444415954272 -1.3002955717213414 0.3695708826238667
Ni 1.761332494357866 7.074872189378232 -0.04652735857658407 -0.10563428760206323 -1.360493067146844 0.8104808791123526
Ni 3.8741160816744085 2.4197495513141933 5.025940085808191 -0.8710283016781064 0.06654117825534346 -0.6218179571228839
Ni 8.397696472013196 2.59463461675575 6.569024265424956 0.4905538847678584 -0.2594515626672564 0.7956546127327975
Ni 1.7080153491876693 2.391665411444018 6.234035456306846 -0.3175602938845305 0.14683595865135357 -0.7642753270905677
Ni 8.754821972862308 5.851280391701213 12.677097153647424 0.04581885810632754 0.04746667812239567 -1.1608780170212458
Ni 6.124469233771673 0.7934540341237568 5.7961225466228585 0.685450960592497 -1.159001111713507 -1.7417506420800197
Ni 7.31633635492868 6.230927069529549 10.507774731967245 -0.6452921289854242 -2.3014929129180812 -1.7738503508280419
Ni 3.8105367094683174 3.5960793821263586 11.283734687296873 0.018020862057452836 -0.11657227467080569 1.0660289929601448
Ni 7.065640828587574 1.0137780119802624 11.466215658161648 -1.4471292163798497 0.9246026353601366 0.6279307548888411
Ni 1.8529124226845186 9.001003976724279 7.043881192438162 0.484862747920352 0.7008058457820124 0.89986373785256
Ni 2.1548076392056106 9.088302559654057 11.083665838096733 0.08133504873506638 0.45660375307465884 0.8347510645136269
Ni 6.171118253139361 7.008339524685795 12.166233276009 -0.6181844741353547 1.1350898523135484 0.7911356418165214
Ni 7.508904026955163 2.9543976492593353 4.496916245503716 0.18254343935529208 0.3187298887125995 -1.593592622183133
Ni 3.55659070397557 0.2858229901787225 3.4113852993134794 -1.0666380872990533 0.08304894610237955 1.1369500454507386
Ni 4.2167815938403646 1.7849959825818102 7.270143331350551 -0.6811777871384397 -0.9929721250734704 -1.3377907404533218
Ni 5.863381461228607 3.0684337449821797 5.994520649539054 -0.3973053724246577 1.7283467099692877 0.8513938152766305
Ni 4.039556183409626 6.499565240787711 1.155569484824801 1.4794340991601425 -0.15404353214338634 -1.9190706282528434
P 0.953653434758201 4.402430388815497 10.712629215186928 0.016494398110597396 0.25233757733029444 1.3473189916587311
Ni 6.679938972453896 4.665171262184255 0.5490003564621292 -1.0461517944202436 -0.1251618161120296 -0.2677284579640679
P 6.4327632506798516 1.6806091663976939 7.692845856021519 1.8641994301362603 1.0501642580137462 -0.1727850744169476
Ni 2.73400587569481 1.4515804053730943 13.052973275659856 0.18465997147766264 0.8143023097409718 -0.5919193697912387
P 0.3495221657592595 3.4513401890454465 4.495081117845532 0.4863930685219494 -0.3124772229346683 1.6366123202777683
P 0.3299245625998536 7.825788595906962 7.893037294721091 -0.41732732407253936 -1.5876955399724075 1.0863515065675806
P 0.806402085647235 7.112419867121328 1.9961257479808179 -0.08276021121736714 0.41870980624236276 -0.48967611014859536
Ni 3.8036178324169683 9.179752468814643 0.9760770973628762 -0.4942588444232714 -2.3434489456348935 1.3203902855886873
Ni 8.16248251351719 8.235404691513425 13.455014826134668 -0.3153164921556763 -0.13584809218128216 -1.0420213171916377
Ni 8.934768498697133 8.15510856938461 3.5127454550532544 0.5218547517636689 -1.471445167417395 0.6941446317117529
Ni 4.769288752952949 0.16226577666655864 12.672312448336209 1.1039422230661504 -0.816941804246348 -3.115140362683874
Ni 8.55101693005444 3.3531385703327374 11.5685537437719 0.8439185899455078 0.16222478240259802 0.7088860516869856
Ni 1.3087079160335529 5.083935134831763 1.4141320994212072 1.7610316017968188 1.1852574743068747 0.5041660762346543
Ni 1.6019661450945712 5.3406394040617595 4.503128375516665 0.856187380010532 -1.1873138426152712 -1.1262779104488732
Ni 6.061781421561461 7.560317320050826 5.624217706209191 -0.16795397157689138 -0.1818937215864351 -0.44083672004838914
Ni 4.507458013746651 5.6872705007927165 10.513742611689658 0.22557830695857922 0.1723757547936709 -0.006268092396898882
Ni 1.304203680637708 3.8174277252697957 8.210002661297517 0.05565204214666544 -1.255115375640277 -1.4162919192840189
Ni 1.034943274799088 9.115309397862546 13.567792522071663 0.09752245712820623 1.2617009992775947 -1.3598947714412128
Ni 5.3563717231557 1.868319693863295 3.032995163854335 -1.2423809587927441 -5.120080694317343 1.086280287010013
Ni 1.3861250423423424 1.4310280900514352 8.623598272093917 0.9022355805188461 1.341648166526199 -0.5073149062762812
Ni 3.6377412377671017 7.22318690952595 12.176781545210241 1.4792528363872717 0.8527171620737444 1.826902493458015
Ni 7.537229630990888 6.506567701588675 8.151609196400788 -0.45675750504370366 0.7470882737883198 0.13137745800443826
Ni 8.215688213687901 6.299112835047679 1.3849622995143842 1.5979655544398481 0.7294538485360081 -1.3506611686580867
Ni 8.940377897004536 4.177952298603194 2.65359923727484 -1.148299923245919 -1.2640419887059455 0.3243179243233383
Ni 2.2092670956205267 3.3230112721386744 2.7307507530015243 0.011108451208335708 0.6323520238849885 3.096119855717313
Ni 8.36426297216775 7.5933979107312375 6.2795022299716665 -0.3970986557304903 -0.8582154661841542 -2.1565135478594923
Ni 6.922136817584285 8.466931677943142 10.180248094272972 -0.6047689720603971 0.6063520002768009 -1.1795946195941427
Ni 1.1790137978830917 2.447155734104169 0.9986363513835913 -0.7914197487158434 -1.2568351865448613 -1.128112906775083
Ni 3.8801248245632984 2.9716437629296117 9.03637754826909 -2.492214002988159 1.4199053476668901 1.5434476258976257
Ni 9.497621468595225 9.15542031059379 9.657817154396355 -0.48916831727424137 -1.1161876160924067 0.3851049737037239
Ni 8.235934055260978 1.5412193332920527 13.706762579012576 0.4838754443064183 -0.683695668464287 -0.45540279078802215
Ni 8.741049228342643 1.265810878315187 3.1475671242830354 -0.9465002067641765 1.2165488282209889 -0.13227374456646251
P 5.334240603674672 2.354591374948734 12.043166420494572 0.6640339283693015 -0.22884592196625747 -0.751137761267345
Ni 2.3631262044926133 5.280719142672087 9.343434525682989 2.0976869646395873 -0.8658022773924766 2.911167806920528
P 5.469423388049761 5.34528294570696 4.642139295624058 2.9604203732987533 -1.2072787157729725 -0.7800536729707469
Ni 1.9911413703788592 7.4510733593058305 5.2206131396166064 -1.5454222331254932 2.22297476480652 -0.4193968050070584
P 6.098864745140035 7.426601894835621 0.6459593634305821 -0.13172841358595377 -0.02594860154496176 1.3054550044350937
P 5.506107367046849 6.570388537960316 8.915716047326875 1.3589069536066467 0.6565705301127209 0.18351763034310328
P 3.1348735388417146 0.22435550071286903 9.18513526228976 0.08781448581182297 0.5227070724616353 -0.7395577697392295
Ni 2.764913288885267 7.366653772196077 2.6733900117666862 -1.7099304122456294 0.26947706522405845 1.374791486047387
