# total energy = -381171.81000256626 ev
CRYSTAL
PRIMVEC
9.17813735054239 0.00000000000000 0.00000000000000

0.00000000000000 9.17813735054239 0.00000000000000

0.00000000000000 0.00000000000000 13.43313175285694

PRIMCOORD
 96 1
Ni 7.73174550274869 6.674699424713475 11.655512108868459 -1.0658150771771258 -0.2986837686950017 -2.326826249476548
Ni 6.350573504371255 9.182726413772958 6.477295128881322 -1.5330467422792757 -1.4282616900513854 -2.453826661459213
Ni 4.657666071067484 4.8756101204642395 5.9918349924731915 1.0496587791322374 1.1517853106913583 2.277990458920767
Ni 2.77377077774952 1.3154198224371356 2.46057326554411 -2.9659330755868663 -1.1547389940030437 -0.23139439941972406
Ni 0.2869663956731129 2.5723657318486364 5.601884388905645 -2.0463515475904046 2.62361254403852 0.5993596281193677
Ni 1.8171702348190848 1.1418796015159771 5.552168254534705 1.7663836101373513 -2.5558202669848953 1.0090332923013912
Ni 6.58187174360513 8.035027873180187 1.6319646013323035 -0.5876626513974137 1.0699157296090605 -0.9137996312073617
Ni 7.554947043070021 3.9643312197439093 11.234409989337907 1.3411504009541741 0.3909447203139525 1.9222917062933025
Ni 3.251593786072792 6.236057884716438 11.617362263179816 1.3039087429938963 -1.8846384147169026 -1.7527279670271299
Ni 3.439800670471421 1.4799471124854056 8.568564928629423 -0.5543352408898776 0.3659237727895827 0.7947056185559668
Ni 5.400250807384868 1.343780266833496 4.217533083751867 -0.016143699639398004 0.8727380852803615 -0.32580273639898083
Ni 9.499922840419629 7.419184035461296 9.951049400647207 0.31526892674719253 -0.5331503792821463 -0.43363788830710476
Ni -0.2543445421074225 3.7675244206529213 7.823361669727483 -0.5099160913445541 0.5870905809440276 -0.9919349420582078
Ni 4.542342775326298 0.13711586505339304 2.1144418431032763 1.0587262886511446 -0.5706620030743591 0.7711846526158912
Ni 8.346102482217676 2.5080361671968276 0.18454021852926136 0.3110795712561933 0.021990131117846 0.9589214632466646
Ni 0.2519655689075725 1.4669416918673983 3.491740667521079 3.5941646495455775 -0.28049475649080086 -1.2465196635514662
Ni 5.485139399689702 6.4488162865132095 7.6449965020040045 2.2598780655907724 -1.3163536536254685 -0.4389413027978892
Ni 0.4931101138852716 2.0767187808011793 11.595707365927785 -0.15654572973994973 0.7910489956399861 1.4426369849364509
Ni 4.086317843197639 2.534515093437442 6.192270827070431 0.9900832335614496 -0.29039273233080315 -0.05451535743906095
Ni 2.231645739186474 3.7123271026594873 7.002315790688038 -0.4787527783678723 0.6682860187774362 -0.13447178065904586
Ni 6.736798701990425 2.4694512777980258 5.756271672815048 -0.9729452883295826 1.4830346720272072 1.2792994290856485
Ni 5.898834762382758 3.4524573218703147 13.435146515387286 1.5545725321661936 -0.1383520895500585 0.66999323127653
Ni 8.858673918529497 8.896065650073437 11.68583024996053 -1.3241152998487582 0.39950469406882166 0.9692125607600276
Ni 2.2928639152782937 6.337090820611302 0.2777056550919066 -1.2728480170333498 -1.097948981597193 -0.3316507105393256
P 7.853979935910737 1.147726075004806 4.714075821004206 -0.9649828389493961 -3.55374048009226 0.9920025620713496
Ni 4.499664436671581 5.959419646997766 9.563032630618274 0.11978769628430982 0.7579355009154689 2.062904309742763
P 5.211777757003231 7.80249976354207 3.561861636837646 0.8142902255561137 1.813684452105844 1.124507963032644
Ni 1.1571887346076046 0.49108266334573897 10.069099520993623 0.44747170886640353 -0.2940928068902096 -2.288955699683019
P 1.0210677796424203 3.94110135412346 3.8914843436358475 -0.14949139399632963 0.08193154466848471 0.596280732083728
P 2.717270164253082 5.936777182167403 6.996324302629156 1.0541214428892813 -1.582385440613404 -0.654657115140092
P 6.181567283298577 7.392806068731477 9.854935028555582 0.8112149290648997 0.08112036162109901 0.9669633597145346
Ni 2.1114855650644198 8.030310310584806 11.705859699088741 -2.0382597717212056 1.6988217039269773 0.3174497364485952
Ni 7.943797187969889 2.9583706541715244 3.686749469506162 -1.8368189812407787 3.3416116137703673 -2.2639517214395135
Ni 7.297821525347033 4.852940121221842 4.879866940564897 -1.145584324086969 -0.9918922617457304 -0.25135310192983806
Ni 1.5892495501282062 2.8899659965384914 9.625738582773735 1.0658047927644805 0.3378421840620182 0.46379281462393024
Ni 4.712753251412778 1.5448273653779203 12.984303559603672 1.244103597910806 -0.036656731991085253 -0.35621811546604454
Ni 5.848914873362757 8.272337792375104 12.283269168861292 0.3084066524097205 0.6511290473821754 -0.12037982134235398
Ni 8.022692456588373 8.080514721862505 3.577256126606583 -1.047083047985261 -0.1633452691602864 1.012307849287605
Ni 2.3945852114740416 5.090800728657463 9.142549117544782 -0.23642861940952184 1.2780943530339537 -0.2498700896264084
Ni 7.704128487477283 7.709580301060273 8.111193563752238 0.05423510719448079 -0.30892652946893245 -0.229956638531933
Ni 1.652193216040905 7.94147511922158 1.4946780229242917 0.2251563889298122 1.939324750516189 0.4151280024283754
Ni 0.16823250409448695 5.95755648511671 5.143008727317597 0.9418413678359263 0.3413280857280896 -0.8677437173895636
Ni 7.991578570988483 1.0514474142547028 7.371605489278029 2.7589158194599257 1.0898284093725876 1.0635566201602522
Ni 3.4841402519856013 8.839794490010627 0.19912886783929845 -0.3290556961186398 -1.765037123411786 -1.333892176729864
Ni 5.873521459584971 1.6235757837988818 8.012513902272657 -0.7317197617520494 1.8563061434311128 1.0927432690265375
Ni 6.992051879695013 1.8278352304140915 11.72094488562915 0.2762714624380726 -1.1804819072951023 0.5092584031558972
Ni 6.355704083147166 4.121708740800346 7.442129378824046 1.3599060842951225 -0.8297782938893838 0.3434605586900601
Ni 6.336062869228652 1.4970459823593276 2.0504738970628646 2.367356091269794 0.726212201670259 -1.1242446820689285
Ni 8.658865868526663 7.2728111010816345 0.231857187798192 1.0830558665354446 1.4059483712661656 1.2255533457124441
Ni 5.752939091145041 3.5442386953213187 9.894159634127337 -0.41809428414555094 -2.6438957197675883 -0.8419617233294533
Ni 3.9241309781723697 4.756872557630675 0.15594022474819397 0.33521425952086786 -1.4529278253394977 0.46569800206644313
Ni 8.62666896272005 0.14137819203645768 1.8722289629386075 0.5054084332821877 0.5539320919141879 -2.042860503718011
Ni 1.053934689475225 0.5158774013835277 0.09158312568434991 -0.27648512111077544 0.3741965543213362 -0.49421796388300687
Ni 1.6066329422598267 4.388150067928611 11.684514105065242 -0.19682308920275782 -0.4006498634168584 -0.14337422535499825
Ni 3.9435519167946023 8.540697350208495 10.205056187300329 -0.901417455492925 -0.6204832974718604 2.5813906592548315
Ni 3.5704330993042355 3.7525089879563374 10.767192318716898 0.44206570735948386 -0.6546226623577307 -0.3480687468860328
P 0.6568086181312789 6.232937318019103 11.896488693932742 0.3243176672130221 1.3604524437168957 -0.2832679483605638
Ni 0.2596733686499878 4.8139605719172 2.0937148555368363 0.48647817203658794 -0.2953906997660268 -0.14435355854913204
P 7.259741433502211 0.5756096370391757 0.16797735187629315 -0.13782089963693683 -0.5910431378338724 -0.2842547377538653
Ni 1.3321240324052184 8.701177081687575 3.7001963585304685 -0.6050034566687064 1.0933971005604526 1.2003061411098812
P 7.876512263092959 5.505404726947684 6.818590590755022 0.4390302629672697 1.272762399298079 0.8530994851138276
P 2.766767858955208 1.7261139342183438 0.35674593828044227 -0.2194318277412092 1.7212561216710938 -0.4365226660540676
P 0.5056272575965195 6.934321395794331 2.84013972451941 -1.031555127552991 -1.511676761243932 0.4722028930644964
Ni 5.3795449295343225 4.7970360866528345 11.738018056718504 0.3462391498764618 1.8536062280014463 -0.49291724279371235
Ni 8.47941492715526 2.423220999990755 9.706565849303361 -0.7376613240474651 0.019961273613275297 -0.8028696424239979
Ni 1.9874522169827327 7.681798079316653 5.98262014257871 -0.9176143769677617 1.052485192837439 -1.146732064538167
Ni 2.85692470209613 4.995540841152666 4.740807146021811 -2.058342144293378 0.14271139496001872 0.6849475385935172
Ni 6.9858933495364495 5.276850750779993 9.517078614745092 1.0469609205851003 2.6975443583309797 -1.3265701891471542
Ni 2.7783231338726897 4.7584420191166865 2.3785243889338505 -0.022619280061412658 -0.23721871941098502 -0.42654292913353636
Ni 1.6459429045088914 3.7012490908839517 0.3673595363063164 0.2651681534360595 -1.3617117700452934 0.8917945876911803
Ni 2.744593479129446 2.6638992955913228 4.175393501759308 0.7742918307863051 1.0998320575525187 -0.13523282719478644
Ni 5.142189119652681 1.3004319241525868 10.513507684684589 -0.3361969351491113 0.2665236390226894 -0.5140673945087664
Ni 0.2968806196332904 4.858639744513148 9.78916633196806 -1.8611009937165945 0.8451223804456219 0.9307300884141131
Ni 4.272753347088663 4.166608188692577 8.24148181243461 -0.8987746185534392 -1.5467286106417426 -0.44490471947017574
Ni 8.56406488788912 4.969612603152758 13.251569083465526 1.5814631859094506 -1.7053890727318501 -0.5405399868779981
Ni 4.404872634171384 6.814638484814221 1.8725648827654382 -1.1103051891697007 -0.7621652227261003 -0.6403520113713295
Ni 6.591811666349874 7.0127669356829045 5.218718264463596 0.17684124676419222 0.6244991034994729 0.5469124660632453
Ni 7.415641274446087 0.41169820000676194 9.726231844192707 -0.8584885173398827 -1.1678354221756857 0.10568622388592122
Ni 5.17781864882636 5.7290483996357455 3.8026106040957712 0.02067938272622245 -0.4295706602162666 -0.5627165229750374
Ni 7.509680469683985 6.09091482074102 2.3550962755467473 -0.20922763351469773 -1.1062896402524045 1.2122609994789122
Ni 0.6966830358270676 6.448302310821884 7.61565858598039 -1.325344030049537 -0.8292057092153654 0.49851453437583176
Ni 5.051812001215477 8.553152082585795 8.364891964990566 1.4393230900718696 0.9050560806867768 -0.39655409608092995
Ni 2.8515922042986266 7.676456403381805 8.274178008912797 -0.9036715416344243 0.4160767394948898 0.6174830771929558
Ni 4.405671132120408 2.7528079120533104 1.821062682867142 -0.25180664452748897 1.2279411292183302 0.14422808871486129
Ni 3.5956179081791912 -0.05328000510204238 4.453687475455035 -0.16165913970711515 -0.0566246904725799 0.3002192315029217
Ni 2.8786401750546373 1.4319179197584953 11.389872033130422 -0.06354995683750346 -0.048339310535336105 0.5305941885191958
Ni 8.575721122317397 8.409413273624178 5.755478681748431 1.2833162635545252 0.437753196027059 1.2699814941188323
Ni 2.7071466787614358 6.976880418663562 3.5859606720646764 0.7773483582244419 -0.8085708065738333 -0.1772845049491979
P 0.7295692197482969 8.74640694252423 7.848911768468772 -0.44031092945190625 -0.30510124218557133 0.018119592418846215
Ni 6.65314915822718 5.9401547367104 0.19527221452688728 -3.258192685923079 0.23455171410178316 0.3076736308984379
P 7.273875765013665 3.951674568345016 1.5995767902689133 0.39200247215450557 0.01744904871438285 0.1548770837882752
Ni 1.0867189960719237 1.8145269312636958 7.724064319604576 -0.12673250303325914 -1.9652345284034152 0.252580546579036
P 4.847580089012302 3.7575753197708326 4.256690688921003 -0.1610248485572259 -3.4619132735766183 -0.9450825004810434
P 4.102994518753686 0.5056346001063956 6.811215957398233 -0.24704264747994223 -0.8449704282487899 -1.624948510786595
P 4.48535572055057 6.802725262540281 13.248130953216052 1.2038717469739526 0.48938069039536364 -1.4344801601572714
Ni 4.369784615101065 7.493554482368644 6.050806360542931 -0.6167030044938216 0.5299087324163971 -0.9118900728894747
