# total energy = -340860.9207104302 ev
CRYSTAL
PRIMVEC
9.33477930001127 0.00000000000000 0.00000000000000
0.00000000000000 9.33477930001127 0.00000000000000
0.00000000000000 0.00000000000000 13.66239307952009
PRIMCOORD
 96 1
Ni 7.495584905451392 4.44771418893477 4.008258926733359 -1.1795419119793364 1.2984343501428863 0.23153812408643995
Ni 1.5349270606374277 8.398220704390745 0.32164848312291383 -0.7457201897961996 0.47838253951264714 0.35312379281143697
Ni 7.120597494605104 4.647338439786078 12.804626628894034 0.8601095978830736 -0.2523090380852042 -0.4780333837033445
Ni 0.5869270357517528 8.603753870406367 4.793983151908997 1.268849437396918 0.0705281879275495 0.007861405025947751
Ni 4.144529898852955 3.6976460194512875 9.343204662152266 0.025681978147136415 -1.2137828354400775 -0.5196631434289889
Ni 8.203151825735624 0.8782374868303948 4.321523844755054 0.27527387441149365 1.5375484868043712 -0.23101953257880858
Ni 5.742980131201542 0.5344478411826171 5.049210947891046 0.9919300569622014 0.8431246332893029 0.9555188653230189
Ni 7.460178088360955 4.910429853674002 1.3119107868631228 -0.4104596504184286 -1.552407920414707 1.0639312298908516
Ni 2.656174051098257 7.086329520563712 5.896237600832203 -0.9077148584658625 -1.0600645478465938 0.7102443654870929
Ni 7.742956551350839 0.979218326598185 0.9990855369365923 -1.1574098559669872 -0.8044619266117822 -0.936016276513717
Ni 2.608538673399205 2.5029063132105964 1.5633197247192299 -0.8068288841820621 2.026815534440006 1.5219951124508047
Ni 9.290513568097774 1.8529909885895723 2.2876444404268073 0.6415246915231919 -1.77897353098722 1.3304620680023924
Ni 1.3893885198367384 0.594858797544989 9.055215525474038 0.3184812630369031 -0.2629611184824116 0.712507707599973
Ni 5.394774201566028 4.470276349996618 11.163268150977848 0.8931565010357133 -1.1448816415929897 -0.4570986904332063
Ni 4.67613623328041 5.765523622705209 1.3191984488991113 0.892545606924592 -0.24591367608182163 0.24993308165385986
Ni 8.132636904485645 3.1573116665741727 6.36110119824017 -1.1823019912229766 -0.08331248417641135 -0.4510329438551007
Ni 2.138765915667521 0.42022188336325245 2.4034741132939277 0.35583733508785814 -1.166591008245623 0.6350830496629062
Ni 5.897974803220953 4.507195401299724 7.870645127574588 0.757483758090031 -1.3871052704177338 0.797429445245033
Ni 1.8339760435821317 0.8588687536954228 12.24916806693442 -0.22893873879037993 -0.07910435963233473 -2.1204949636730386
Ni 2.5809263968493723 3.9382499505100883 4.282777977183929 0.6004122377535982 0.8324833515253728 -0.7139842921454994
Ni 3.582482849811232 5.9436405425319006 10.7392012721072 -0.3232822839699723 0.7495861005095091 -0.06352887379158091
Ni 2.1853651328875223 3.9778574181912716 10.952047304062354 -0.6146862311741091 -0.04102092249705193 -1.432393967052204
Ni 7.195957166203074 5.58882558930028 6.163979601663037 0.6288278127818138 0.8962981319884887 -0.9625809143761229
Ni 7.820799274186895 7.581464873084407 4.399400172795836 -0.4160607986552899 -0.1973707341761117 1.2113261463694687
P 0.053135429539201036 6.825021049482082 6.045922650504913 -2.5262111858692107 2.1706145060372486 4.760339653299704
P 5.974473317867972 2.9074756389948226 4.959598935577631 0.7135690589849517 -1.2045993691685963 0.1396245285045789
P 2.9708681237987147 4.587194458105696 1.8803278891562336 -2.3629281374054276 0.4682896740530193 -0.2942424450941965
P 4.650390912548686 8.268859335753971 6.872593884161228 0.17679753801045037 1.8481248931719012 0.030568616815476384
P 0.2539909377525517 4.690987866813467 12.583869371659642 -0.24239460718496963 -0.3167925624805705 -0.4161872969308252
P 0.9979625630119997 1.1508195706196764 0.5500901305046435 0.05672393505460553 0.7998755927926804 -1.0661457210436671
P 7.238243715483244 7.351474585851556 12.168355017391752 0.8960711035793472 -2.220570012019769 1.3810495511419572
P 7.943467606215748 9.107159837201287 6.0968289347972915 -0.6924831848489299 0.23218269964897434 -0.19643330996350686
Ni 5.951640448212498 8.066378642500956 0.9414852825583835 -0.34500810568283813 -0.03560746479096448 -1.1352037521835934
Ni 3.1104604103187268 6.073664680484105 3.603948174329941 1.7129144345746177 -0.7143177642255182 0.16387954439720165
Ni 1.9912390669205458 3.0704702166948312 12.944297327558408 0.20556663972334274 0.8045292895146079 1.4208851950816563
Ni 0.03071795755325689 2.1366282512557864 10.65035471167921 1.3292737041212461 0.4253540510317577 -1.2544836555935492
Ni 5.760510846333586 0.2550896412515089 12.751916865281363 -0.0027366822048727063 1.2518773283189537 1.7933436836659629
Ni 8.310100389775998 1.8799404958239758 12.611522721237474 -0.29627001704718653 -0.7717693214747676 -0.40947260391481094
Ni 2.143507983445518 7.948573730378276 11.243507111606446 0.47110426068367894 0.0991957310655711 -0.9526968224931913
Ni 0.30847057548079126 6.010738934634739 0.7721001150929876 -0.6232158659116751 0.19835263847340676 -2.538178385533416
Ni 4.160669731900508 2.8779777370687 6.818422294142976 1.1727958515047543 0.7174946192916031 -0.36874170185435207
Ni 0.6313512494436571 5.880892157485256 4.557788037014661 1.2653437382365047 -2.498390564112517 -3.0484045519192207
Ni 5.067291481511523 4.76088669264347 5.339263070748283 -0.5219452545949462 0.8091433912478516 -0.1613917449783414
Ni 1.978795806392849 2.796550459061875 7.811950837086966 -0.40458596524647095 0.27905005362447427 0.5832609227852922
Ni 4.790645968384127 6.250278700877217 7.112423028555513 -3.4588459475052042 -0.8816600703603397 -0.3947574091918234
Ni 5.402662089897539 0.17730479404581437 8.951845915736978 1.246839765895046 0.4594047128585636 -2.94891262976947
Ni 5.370690471512422 7.522861129953965 4.694425865952515 -0.35754249070442295 -0.8089847541828004 0.22235877158001707
Ni 8.000064371841724 5.335433010887432 8.283126612115959 2.100637305517163 -0.6625416600944912 0.30825984241921106
Ni 0.009687633740167744 9.055370482806943 11.281844115853406 -1.1485462349287703 -0.24727944608109673 -0.13675749136942897
Ni 6.649163146195303 9.365957252707558 2.8283204462186364 -1.5203681183703428 -0.482227367180034 -0.09089029652366927
Ni 2.683076884437208 6.661391706803916 13.253327056306722 0.35320838210544336 -2.4473158569238884 0.47896463726836225
Ni 1.4783956384650863 1.8049822197268985 4.2087961189797225 0.0799232559892043 -0.5513774438131342 1.618196793885058
Ni 3.4657421025048745 9.048742789652655 5.133849389905019 0.7057901863704812 2.3033729035496138 0.10752584819782127
Ni 8.40308412429692 8.064455678008303 0.1048585070020026 -0.6257190919495029 1.3747120389597034 1.6198690393811586
Ni 6.516599948330471 7.241641575072202 7.931524689847304 0.7794674614499737 1.3926583390254788 -0.3315275546979
Ni 4.883386998648693 3.075735032101899 0.866218958751318 0.5780251283076497 0.0803459453489197 -0.8394687817042704
P 2.916931770213545 5.023866089182307 6.460672486365287 0.08099849133125406 -1.743605435900571 -0.2418204798490545
P 5.414181207295271 6.290352907512928 9.527633759599983 -0.13200275029326297 -0.6461634758467839 0.12159389625511319
P 4.473300818421955 0.321942528664266 2.0737053058401487 1.5824360913456812 2.4140794634682616 0.6036001485632766
P 3.849317510114465 8.302296514456303 12.783313461274503 0.44501270580294966 1.1920228180551664 -0.5081651700917185
P 9.0380357980358 3.124826635339076 3.821644557500544 0.8383107568404271 -0.26135957832324663 2.6905435015331145
P 2.770525094957435 1.3286937861900139 6.301984042259748 -1.7456790306001482 0.9668299194604639 -0.5143800406531787
P 8.754081152880506 8.614012792626877 2.4275335729218988 0.43425469595549726 1.5587073802701736 0.6679440620569852
P 6.302077390050653 2.5787607281003666 12.624187216029615 -0.38032914958163533 1.1418405407738206 2.1649110278945685
Ni 2.3898994775404567 5.15851094278433 8.767758471203974 0.2308722083676669 0.9023597648015363 -1.4897629918899762
Ni 0.6364545731724581 6.094238533599666 10.185368828665156 1.2231902447969063 1.1885556854421724 -1.4586899246342557
Ni 6.3706973511452505 2.6049634530075263 2.7859937573883777 0.874386676627378 -1.06447990330547 -0.024951270628698962
Ni 4.557183143329594 4.108871042727072 3.0877414249681583 2.383188687426676 0.23475200303804733 -0.2278403635198786
Ni 4.259889098853912 0.019575031752873156 10.758301163604365 -3.278163215507735 1.4142592051247063 1.9776915232198453
Ni 3.545041050879056 7.772519796730594 9.149909391524346 0.4118015091583037 -0.40016855290506564 -1.313073697322616
Ni 6.51692666559864 1.9156366910662208 10.680165328704867 -0.37085257754976775 -0.6277394648136415 -1.4060733268798042
Ni 8.475419327469552 8.545682209684086 8.059637065041764 1.6257668929228322 -0.1906925508249877 0.39082490690663657
Ni 3.731381911084518 7.786316600226421 1.8962446209835222 -1.3944843364906243 -0.7626701873869768 -0.3476715114476141
Ni 3.430764685252602 0.9485442425066537 0.22584937922828532 1.0081154084728121 -2.63073064314054 1.3025591709445374
Ni 5.162720928154166 6.195296852033907 12.773258037238168 1.8463238354074203 2.5221467859918496 0.08194337174302661
Ni 7.729057065285017 7.071925956427001 9.85872810568462 0.6934951710532121 -0.7520790421346918 1.6849500881512078
Ni 0.40897720847078173 1.0778215981316133 6.7465164908085065 0.3461123944906104 0.2652722831140915 -0.6618767728169827
Ni 7.868453321444127 2.738712167816857 8.805275881846782 1.9085319335050488 0.48255826815689146 -0.2629732026672697
Ni 7.595765754651123 6.918676888097522 2.1928413574611403 -0.38961134621450966 -0.9654325248923051 -0.43656226104275137
Ni 6.323986116576163 8.582797291348093 10.922468189558147 0.6824255435026119 0.8736593115430502 -2.67609775842143
Ni 4.024335283283095 2.1971176197625186 4.152219889867746 0.09904917818537781 -2.5361546702351676 0.47435079264543467
Ni 8.339981017644833 4.573416324168051 10.576413926503001 -0.663736965954173 -1.0337091977815165 0.9642495603277975
Ni 0.2955839129462937 6.919274313959316 12.306222236735831 -0.14374317865864278 -0.9478788322792578 -0.8323141729373601
Ni 9.246350728220404 3.1705297137663844 0.5450213454584776 -0.2787818875647522 1.7811281154363774 -1.3756204097065856
Ni 0.90781193394506 3.862143496584874 5.588259901687393 -1.274814139620785 -0.782487222112904 2.1054360124573868
Ni 4.2289349713896645 2.15346819273513 12.268800974317653 -0.013724034454311848 1.5292723628385083 -2.5239583852792915
Ni 1.14386516019722 6.828969661037383 2.610541916992036 -1.3409084601466972 1.7469802659100753 -1.3307757425880695
Ni 0.3993838559994285 4.565211053347462 2.4022036498597044 0.8743745924425198 -1.2536722154358473 1.357747643191223
P 8.040726669560138 0.47892270819623645 9.731708833121662 -0.010509641282072222 0.5633772964874878 0.42667611227729096
P 0.6115456486472475 4.003985464865707 9.121437381820275 -1.080529757679481 -0.36012824915372815 0.2078029852530292
P 3.6831771118609424 4.7828700974017035 12.597873407251278 -1.0287780790284862 -2.4102582899499585 0.044374412350317124
P 5.993936332271758 2.297858555707682 8.226754814666066 -2.806434948086812 -0.3131457097566026 -0.17380965902672
P 2.957360698454696 1.938880291001678 10.103189167463633 -0.29577225147516156 -0.4097590248069782 0.44572464426830977
P 1.4397029791347769 7.773397265965106 8.574339981492061 -0.6243862320706924 -0.5906710992064343 0.7079360290688904
P 2.3828983932225483 8.016250878784728 3.7179062239894067 0.6013838576382481 0.5820995554873395 0.09551314000766131
P 5.916476335378414 5.956914598398655 3.268522490747291 -0.18921005274219027 -0.010999436434297186 -0.16929351632392137
