# total energy = -340895.59189830814 ev
CRYSTAL
PRIMVEC
9.08109583612400 0.00000000000000 0.00000000000000

0.00000000000000 9.08109583612400 0.00000000000000

0.00000000000000 0.00000000000000 13.29110168740854

PRIMCOORD
 96 1
Ni 6.129621590692716 2.0619808488866602 11.512180481076463 1.4853640914913322 -0.10954493551037907 -0.859996469343977
Ni 4.559200455851211 0.4634737010468383 6.045497043805591 0.24778466785228936 -1.359419117356375 -0.27912153029235803
Ni 2.752135046332027 1.699572478886401 4.75817452905462 0.08301989263665702 -0.31873271692607685 1.0409152286116523
Ni 3.2474089285472254 4.1114751910891885 5.0285686961625355 0.7455013889171741 0.8523847184349901 -1.100692348670285
Ni 5.151405954318357 4.504940908623799 2.5018373441637363 0.18048501416436658 -0.20821590442073173 0.17086394613483477
Ni 7.279197504252223 6.079430374370389 2.6533027567353593 -0.11301566766779891 0.7912132891319922 -0.6137380083282269
Ni 5.2006436555848055 4.830979490064093 11.52646867716142 -0.49358547250533064 -0.5602541774774739 -0.027765857259358633
Ni 5.672833392351956 8.221206811790482 12.441706914368899 -0.7041292537282905 -0.8245905790408573 -0.27553715537520934
Ni 1.789420840437533 6.448204592505612 0.5721435416914484 0.36903377917347413 0.44851326275704045 -0.923395502425913
Ni 2.796596091223309 1.5393547062113844 0.4237439070518716 -0.17259044190763825 0.5266958819060542 0.44128254933655614
Ni 0.8226555577199177 8.829885417984915 4.628626341124563 -1.2053786705367824 1.1931363628343195 0.07501656271620628
Ni 8.927180278067674 2.439300378141716 1.379111506468211 -0.8372782018108548 -0.3523653173788577 -0.16790126396208502
Ni 6.848590105017175 0.6448477025378722 4.85801754461052 0.44125169609862075 0.5888605283602568 -1.0417348962994704
Ni 0.7051116702885918 7.475921281923758 2.593452886951764 0.5495344770671245 -0.3870451281492302 -0.16377721449138247
Ni 7.700224347449628 3.9402511303405943 3.61724018623011 0.29504694327336284 -0.29174461837300725 0.7719444136000512
Ni 7.439487925693402 3.850366444406381 12.573581679035302 0.7761281126640955 0.33856389271939114 -0.1203523105385282
Ni 8.339560732964518 -0.17901382470033847 6.705706327948465 -0.5532448360391762 -0.42680569587661976 0.3044926620672949
Ni 7.025135687887151 0.7156039683415711 0.4879717731063177 0.5247331017527286 0.12906629337275835 -0.7124400875868311
Ni 1.6766608742579894 6.326063854395373 9.341676905296673 0.464300093277652 0.9265214496494043 -0.18956357942686708
Ni 0.03777100163731778 4.904055067727522 1.441938159445303 -0.09345959991274227 -0.15078080223171453 -0.1528654526748851
Ni 6.473413714363905 1.9113254700577462 6.999001202369868 -0.012849345158842387 -0.1576947557427284 0.23182274520639432
Ni 3.4868138563390674 4.491055913191043 0.5664188189178652 0.3833399113835011 0.06611411802025388 -0.4295099821816603
Ni 5.9708931177240245 5.5137235133609135 4.776755359110186 0.4678500154124394 0.11466554456639606 0.13909976634936044
Ni 5.14922649133349 3.0579500274919127 9.252586815242358 0.6990482396609574 -0.6484196188708123 -0.12364615079845159
P 0.1683108452254887 5.665541272448423 12.539090769190208 1.0900456675897163 -0.807290654309829 0.53403740987279
P 3.963262627022479 6.335962248784976 12.518888963539647 0.01742410901371838 -0.5356626041810387 1.5939474344193902
P 2.3607579808245807 8.54336776533687 1.627960773861142 0.7697327506607131 -0.2387025030453631 -1.0314743949137268
P 6.442038528477594 7.918533889767113 5.965870363653484 -0.7398999835699966 -0.643754352184659 0.16690958947277706
P 4.599484196688164 1.0798694224268521 12.54666712739135 -0.6935033985833282 -0.3376907460858184 0.708419139352896
P 4.072308425031979 6.27438333836672 8.0587541814464 0.00792542549466377 -1.234072696037365 0.10057667057349776
P 4.858386237098793 0.9883955447328406 3.6159506706307303 0.12645353834025963 -0.14135102427738236 0.24739591705430297
P 0.22996876117694603 5.675312531497243 3.700561964251143 -0.27502910539053926 -0.9149041771254502 0.06828952840501788
Ni 1.5771139024242007 1.2659955613344724 2.7069057407385797 -0.08163946734936262 -0.3747441992946901 -0.8161416769425557
Ni 1.86899848267248 6.597361590532431 4.943160082333494 0.06328487610157488 -0.5219555390075914 -1.0159336189656505
Ni 6.085469303057623 5.68697265846628 9.302056992560525 -0.7178394042255315 0.16028437084677558 -0.6331480374237226
Ni 8.641852248965536 2.3006138835380288 10.176039811683632 -0.13678500217325476 0.32537541905357514 0.5480092986718498
Ni 2.2468356343864415 5.187775742878321 6.960191323376431 1.16085847663722 -0.24105917620299774 1.2866939217775066
Ni 0.4421004340419118 9.182894853862935 8.987456051242894 0.26043526673676437 -0.5097152881876577 1.07442518744364
Ni 1.5932691717995255 0.9703241641499872 11.438322112957637 0.04231393027686261 0.9059436254980526 -0.5943380065350603
Ni 4.146973194455206 6.899253538319557 1.523080474481469 -0.40862696808506405 0.09508119467656528 0.5348527066852337
Ni 5.650348599224748 7.975917333939502 8.077108892217288 0.5323795625543928 -0.3491889765334051 -0.04975958792163043
Ni 5.366273761338908 2.6727027016294045 4.90912141105776 -0.7613067313805469 0.7385108165319538 -0.7077496240896972
Ni 1.1348009707412645 7.295261962669845 7.121850265950191 -0.877235973150715 0.9386979371109382 0.24139599071712617
Ni 5.182463301852709 4.466382575983197 7.079199991555503 -0.35246250507835425 0.5517731365896562 0.21583331175667345
Ni 8.23092358426468 7.078786801697955 9.278345343394752 0.16181494855868905 0.6817791681678645 -0.3338407762121089
Ni 4.554323907422571 0.33503522301990984 10.371258851786031 -0.4736295982086939 -0.45051949455379187 0.12156381434812612
Ni 8.04416176865314 7.283011564475739 4.689247195939055 0.4243310090838821 -0.39429461062279186 0.0795761570624307
Ni 7.203161489367685 6.066871218920094 7.0153362774414445 -0.0883616165645446 0.6162445768001644 -0.3314501644927453
Ni 2.2596127361352227 5.286078604591581 2.7283171483457416 0.21178022473322236 -0.4567171387240715 0.22711608375934433
Ni 2.386284941034832 5.15149676527606 11.569598433412779 -0.9058351249446464 -0.1139021840378103 0.15326963009183925
Ni 0.9529883523245262 3.270275127696786 4.054118082094535 0.5419782619864214 0.6547900411735303 -1.067700981345929
Ni 3.630912684021841 2.6703325356333614 2.7134849946241464 0.06766757855030281 0.3058172944159894 -0.358420265323686
Ni 0.9274523110185042 3.410142164750609 8.332816203135932 0.3435911707306534 0.07897811846711561 -0.40194287119666905
Ni 3.736171665095134 2.5932612758310114 6.894040989347417 -0.5831331389581763 0.08469162391212512 0.6518373863031096
Ni 4.1089143220819695 6.813800427121239 5.8162393324274575 0.6092887143076217 0.8343980520495824 0.8334835106551128
Ni 0.7157837740378226 7.541586685438639 11.468386896724297 0.9238228197713187 -0.3040404050212248 -0.0580627084706871
P 0.07093788771910454 5.539241392475396 8.027041178797436 0.13271674564115207 0.02134966932036968 0.49623010921702926
P 8.509831278657233 1.6834898582772386 7.839091555859144 -0.46959476601768796 -0.27872532329520383 1.8239403255058972
P 1.852534456040966 3.1526567752801435 10.304458311299866 -0.29653175534900544 0.6698536203748722 1.9491525352398884
P 4.127993704295324 5.961158183058287 3.754151326610708 -0.9210856233458137 0.6861220185175925 -0.2356727150801038
P 6.863528507559283 3.9754040520673413 10.385825837511135 0.8501249758665359 -0.6231209922050237 -0.3299869496836575
P 6.3047505226225296 7.64150598219901 10.311582430931649 -0.49649956082833197 1.2577769816328404 -0.5916303777959102
P 2.5146371486519437 8.581789881540915 5.892715780456855 0.923345623024584 -0.9975885407995593 -0.5491984338839445
P 7.01398410228125 3.8829584971259097 1.4560937715320124 0.5059841032799997 0.837680579455596 0.47197560754503876
Ni 5.394606780142175 2.855250888803535 0.46078932913714415 -0.9462814058851511 -0.22954166248170146 0.036635134724530456
Ni 1.4952205807678327 0.9311755602843182 6.976605403981209 -0.04130451517574177 1.7921213812230876 0.20101835823102798
Ni 6.838637224052951 0.6970921546138592 9.428468570011526 0.123095163390988 0.049977874580023604 -0.972348535285848
Ni 2.7783975752996715 1.7038042695153508 9.05896241555722 0.30067765919657896 -0.7215849873108928 0.21140741477483588
Ni 6.6457365877007035 1.9911483018784912 2.5250831331164942 -0.7442903993282085 -0.5124437428624142 0.4458837955539934
Ni 3.935992096424334 6.912284910749906 10.401802209299785 0.4306682641558196 0.3413643382826637 -0.4620683757336559
Ni 8.341358789927034 7.322550655459531 0.3962145652242735 -0.5317007913198133 -0.35805773977794464 0.17187001880184594
Ni 7.620537732065437 3.8626077615047163 8.002279754960618 -0.18544518638311933 -0.1723173907519097 0.7981706942864318
Ni 3.0741779456334 8.328045903527805 12.740185278255977 0.3188684711729927 0.17164376172365278 -0.6473197009384143
Ni 0.061725116060157396 4.912591297751583 10.468217711325291 -0.06342962920955528 -1.518394796694056 -0.7870961816398251
Ni 8.628530281470537 2.345029522950459 5.745211541860227 -0.33955890964280877 -0.2561160705361202 -0.3390158926551452
Ni 3.6835467151063725 2.8934187343260143 11.7143910568124 -0.7003661871414325 -0.026693193020470154 -0.7119675188257868
Ni 0.7732262453327168 3.3120390871442944 12.559200855773488 1.2743415708597408 0.4019791237512432 -0.676395792368764
Ni 3.278775033337766 8.367221750680786 8.155699419342005 -0.7229834103203162 0.17916629535294304 -0.345887680074314
Ni 5.640023393333942 7.834224996635852 3.770712520966964 -0.7808774544236229 -0.062317369981983 -0.4638097839047947
Ni 3.1031284789490465 8.614064095908486 3.682100096550167 1.2462826078399956 -0.9070810815366055 -0.16161723072558618
Ni 3.3784037350334875 4.596396624126269 9.373842146514997 0.23093725727764744 -0.28742182262793725 -0.35995881345539943
Ni 7.47336949401231 6.228905210749167 11.469729082679144 -1.287074445045377 -0.1710755479250086 0.7413837672043748
Ni 0.7146413721899216 0.0954059921625419 0.2951583152734645 -0.15273972573029823 -0.3201601934012228 0.631655512038596
Ni 4.815868546702351 0.24571084069472315 1.4725341873145237 -0.6041855887531014 0.17819364702702858 0.28721947680914406
Ni 6.035432465363391 5.686373306145441 0.43090435106673586 -0.029353513461452676 0.029288464551472142 -0.5776842000284631
Ni 7.857100276881182 8.799545477016416 11.458178836968928 0.05870676981258922 0.6261857471732765 0.014248796609530299
Ni 0.12887800306221003 4.947172110444802 5.867995221551004 -1.0522005717174847 -0.43930074301983696 -0.6068191697212065
Ni 7.841317332432439 8.679929283530312 2.5957658420444543 -0.7199415381701989 0.07871612305498057 0.07033252697697565
P 8.601958995246704 1.4563534908710423 3.3920090327165178 -0.05703169610301146 0.5744736635109655 1.5597628181178815
P 1.8491926127975036 3.3870580193025623 1.4628183229499034 -0.043834223576130954 -0.2735905731717998 0.2738970486686251
P 4.851039630620638 1.06281512457027 8.216146825227284 -0.31365221707937596 0.43389654128513017 0.5390790860617555
P 8.593876820011156 1.5089057920936417 12.456141316095758 -0.28190372102318545 0.8338311238025189 -0.44759666448004204
P 6.337932846567126 7.677966581716676 1.2524511069931026 0.06573847984839001 0.23852689669944724 1.0020910566556032
P 1.6039031349465211 3.1682217734304 6.215437037612268 1.218440645927063 -0.48191883480067965 -0.9130807507634662
P 6.911712801716378 3.881142277971854 5.844522405203988 0.7013460345561986 0.25565455751866933 0.19416508275462044
P 2.301531074210827 8.423270273774941 10.145097794065563 -0.38613830006424466 0.39672687421336833 0.2779653052007277
