# total energy = -340856.86889904545 ev
CRYSTAL
PRIMVEC
9.36360394431729 0.00000000000000 0.00000000000000

0.00000000000000 9.36360394431729 0.00000000000000

0.00000000000000 0.00000000000000 13.70458086010250

PRIMCOORD
 96 1
Ni 4.0527924953923735 7.858114303251881 10.903432645861614 -1.6058349298855956 1.580446314609162 -1.3007365159135018
Ni 8.351997591076657 6.556760632915596 10.477535676889987 -1.0293115829344532 -0.16336609509589284 -0.13565397389260508
Ni 3.864612147768627 0.6155586387327111 3.9266638144685224 -0.9318706297764596 -1.8647169932026275 -0.3446905744424193
Ni 3.9474332242841284 6.268651904446917 7.975120024893759 0.7245219584520296 -0.7286154117951129 -0.5970075829474235
Ni 2.3675497922711775 7.094680949892707 9.403014374725593 -0.7591279785616734 -0.9983878967724031 -1.9356696702621052
Ni 8.500195350037748 1.0974518317606412 5.362300928367137 -1.7100060026785713 -0.07243928890733331 0.7840244846930368
Ni 5.882833969258139 7.465919753805664 0.45206449643688623 -0.6270884614932039 0.5513597032013214 -0.45822406228690116
Ni 7.546100294020728 5.757324222552228 3.2748876922022547 -0.648530947637696 -0.7135562034691454 -0.7838797315850564
Ni 4.64228754266314 6.443676388587987 12.430685133060734 0.3273353709934234 0.1016933006764442 1.8737253673488243
Ni 7.269864615300115 0.2516534093960058 0.6333466770658369 0.647219170804808 -1.8961261036415278 -0.08019990668935864
Ni 1.2877015358467876 0.8504202972507915 8.589332177385325 1.2992203363792914 0.32153599070282685 1.0248409487576093
Ni 1.9455696188118665 1.2693207813866485 11.667942813669546 -1.0419914923949667 0.20612251222681277 -0.4227119854232204
Ni 3.822934746799661 5.395430295333728 10.72192948418057 -0.9715075274417915 -1.3682799101811145 -2.0584583581562677
Ni 2.311443077688827 6.049824481251068 12.818210053240893 0.5378956072766156 0.32103385425542774 -1.6966375517914651
Ni 3.4441114237258734 2.7889775131002543 3.6674277586324657 -2.4551366385198876 1.0826727721644127 1.0415351215838384
Ni 7.460722953639909 3.1016282473967616 0.184939604313174 0.3622128995968988 0.6047589447580681 1.3159934420725723
Ni 8.479014878010833 5.231398682173914 5.220445138329048 1.041252557346413 -0.30288649392243966 1.575055482610894
Ni 5.756191226480054 4.342755217433701 6.545047700794258 0.45366318238909614 0.48836741863950084 -0.7076804614146586
Ni 5.281606326297839 5.063574809433684 0.583087533120449 1.1684512013828137 -0.4617274474544693 -0.6616957671544282
Ni -0.08328082946710282 1.4357775679571487 1.0343448869009604 0.9541322693881374 -0.15293204424676243 -0.24584631317899594
Ni 9.182567984415044 3.6567495047423266 2.9125386938341054 -0.7664689923077768 0.10655217143064229 -0.4906441304888195
Ni 8.206103278675522 0.9419036437362753 8.520151999034637 -1.6642550216957015 -0.9844422332255883 -0.2438601359869026
Ni 0.020820909637068372 8.205138827473588 8.924258925365312 -0.005783182340680363 -0.41900008378927195 1.2675168346284236
Ni 0.4488499712172399 4.924750017978757 0.050606533650161774 0.6949884677692869 -1.2488262001974557 0.723712832287173
P 6.669198788573951 5.870670647789102 12.446925367668815 1.1640602714039696 0.3718365387295919 0.6853954247642132
P 4.822883371126055 8.603672536761637 2.360312662815119 0.3967104191531361 -0.356866804793637 0.795377962032643
P 8.912381193815293 1.986610294715478 10.298074717220025 0.6892052854286066 0.026988869884018035 -0.06270303545617588
P 3.2820555309894357 8.191673965062138 13.232800470500539 1.935260093528512 0.5703951225662176 -2.4610625170860194
P 4.3068177056568215 3.2114352303585805 10.819643372702616 2.5163114102569955 -0.0728889748502422 1.10778088008595
P 7.526820633585972 3.09334145794326 6.588024769984856 2.427288248849052 0.007754190024122129 1.8930158401473205
P 9.3277225721079 9.223009389668912 13.196524932622788 0.44174663345716825 -0.4331522069199379 -0.057043266067237246
P 1.7203281269429693 5.301082622414543 5.490123485236907 -0.8310839000746849 0.08011917405009428 0.20073733665549945
Ni -0.02983525111377539 2.9604812821740736 8.226448517234356 -0.20342979588599805 1.1554172510169909 0.1392946559689859
Ni 1.712153700736295 8.374339149987453 10.995828943727568 -1.2268607516699581 0.554937907470883 1.626599673236773
Ni 6.14953749920625 8.397738796139203 11.448888791259265 0.16692938696711895 -1.1518770990742162 2.6994189496458736
Ni 2.103898797195204 7.390205652651978 0.9099868634750272 -2.5504926841243947 0.2900417767492876 0.4805245255563144
Ni 3.0155486367232727 3.6385279315485257 12.537142754906714 -2.3579947046595517 0.2687887809077823 -0.29923578454372984
Ni 1.7909858819894335 4.915180414790645 7.855328631090958 -0.22434906253716846 -0.4545152459767462 0.2712202731674103
Ni 0.335821908513043 6.715426901039415 7.115788385809185 0.8762718094652329 -0.6124899948537387 -1.0977042125762384
Ni 1.9696153536328738 4.564962901638266 3.1604681979581817 -0.5995586315040512 0.19237353807183644 1.2837417811277183
Ni 6.349000989532221 2.5942800971605338 9.022794938309978 -0.3014718729631002 -0.1559705739627701 -1.5751120468804423
Ni 5.026822664117307 2.975575411664519 13.128262387454523 1.3146155878884394 1.9625037597358135 -1.3061813410781569
Ni 3.645728542949365 0.6569476407014868 6.433245333840866 -0.586577645863351 -0.13677446065029347 -3.26993902782573
Ni 7.162183170424109 7.1546922873023 7.563229134639134 -0.1670700263100413 -1.097117486834833 0.34373412406642095
Ni 4.176944519532457 0.9712585419698646 12.109216692969467 -0.9245836091967431 -0.9647846068956609 0.8886143901909856
Ni 1.1035194470893064 0.33567396357138723 6.23769489358565 0.46215733590303637 -0.3705016219682522 0.14047762053349355
Ni 9.098791820301512 7.862468379066432 1.4868232546303266 0.47208102277465147 1.6556153437428325 -1.4394161640063081
Ni 7.067919769940044 4.53939089938119 8.328835780464024 1.253383223440519 1.797491901506382 0.9451398360815401
Ni 7.375401794882503 1.8314179236393984 2.2773043142215723 -0.18753266503976734 -1.382427148215774 1.9971370335389669
Ni 0.9577374979349993 1.5074278650172526 3.8903330313277484 0.7994071377966941 2.7403827936527447 0.2879167599864848
Ni 0.10407552101324485 2.5353268469918966 12.39941163238757 1.1378612444110985 -0.24685624250074908 0.6059233973798146
Ni 3.820706209070923 9.025212620837541 8.39527523195252 1.5794852362474734 -1.9445507748018187 -0.26865405510213086
Ni 6.669386060651996 3.915072609197913 2.481516088086381 -1.6787102778890832 0.5765218042892458 -0.8707138557614811
Ni 5.846503186117365 6.470952566755273 9.610255274452783 -0.013162762634203136 0.2620797443187229 0.05330256807788239
Ni 6.975969179619838 7.804685579385577 2.350610096451596 -0.4584929996775717 1.1520740455763707 1.144320369772881
Ni 1.2815683752908062 7.654175010260628 4.760477760198653 2.1482353670111003 -0.060187468123173764 0.720789745103107
P 6.530767268482919 6.033241538740164 5.301768038220188 -0.5133418291966514 0.6077080000840631 1.2667547596514184
P 4.559503920563247 4.2168428357599925 8.421314478044318 -0.1338372323988405 0.4217791891963058 0.07199037429537279
P 1.1901515103930285 4.845814837082693 11.42829073539507 -0.08024207278120375 -0.6126398901680417 0.35109082154180826
P 2.080574059874671 2.185408969164389 5.662101989028571 3.7456468487196912 -0.8923543168493921 0.2876521934711885
P 6.067465511002928 1.2927485183501062 13.092849237496171 2.1946388939763044 -1.2773024532602777 -2.1287327782017984
P 5.381890524091059 2.2657205998340846 3.4126600145785675 0.23748894235323612 -0.8100533046566308 -1.6081751479829982
P 5.767633550448618 0.8717449687778015 7.418604526927147 -0.8618170674924835 -0.5717099847228992 0.09360666701356783
P 4.665649734399282 5.730057407988842 2.415980224374453 -1.0241716906047262 -0.9317559585754663 -0.4281195295920369
Ni 1.5703419196365467 9.174505921455198 2.7236757394858837 0.6213361323904589 -1.7496896944214384 -1.2627140139231414
Ni 2.8885219861851947 4.87172392908025 1.1014660087535406 -0.5783182340680362 1.591809305030465 -0.7082162793134706
Ni 9.356927652679053 6.907886415646495 12.52055981239581 -0.0560338509661164 1.1213411352688882 0.9067105855710642
Ni 8.678263005447052 7.506595249157087 4.098218147003414 -2.080234573491095 0.7955234864715718 0.17358880126516557
Ni 2.7463543881371604 6.823745070980774 2.8723435513628677 1.0045454317333666 0.4270270678588065 1.9797622897059453
Ni 2.504352045283216 2.92245568672699 9.974673629283332 -2.0089036871565917 0.3277035529661195 -0.7582046954164554
Ni 8.455100233644457 8.960444572645601 11.159983220098503 1.7282947736854302 1.125481382689507 0.33321522681296806
Ni 6.3556866027184356 4.304748349194422 10.881272740866523 -2.800021845471617 1.4361691178239202 -1.1182655816673581
Ni 4.828361079408878 4.785653682010663 4.3489979321553385 0.526019938884952 -0.9662102835985938 -0.6955530820235053
Ni 3.591663094017708 4.1286189597928855 6.15256194326668 -3.000368117336284 -0.6923222337910335 0.6953293960484734
Ni 0.4728039427200049 3.34770375794819 5.629581256315627 -1.9134869635174785 1.0020440054677515 0.10246540295577837
Ni 3.803823631235146 2.200315826576789 7.99935022271164 0.3397607412409697 1.154502195401889 1.0250821182341376
Ni 2.304345465930913 0.6763331098603385 0.3006007124346869 -0.8457160481655629 0.22403795905465285 0.3656846601955831
Ni 6.1222332302272555 0.1954399497291699 4.164520889874936 1.1625065537636043 0.14717123050358524 -0.11634678892356091
Ni 7.2659880832845785 2.5415723707947047 11.719924860732952 -0.22762336241306605 -2.7763594688576703 -1.1620496687318438
Ni 5.14364298640192 7.891102279799548 6.533685903819253 0.9830391822304748 1.0738911693170408 -0.18969984789441524
Ni 6.864046022176108 2.874729397637164 4.665615089064843 1.2752969927944744 0.7570772666802316 -0.475441197496136
Ni 7.803046948702682 5.7767443370455185 0.9167717308626058 -0.5410104987565134 -0.15459066289610796 -0.7781927085026081
Ni 4.0135683586458 3.025080785495775 1.344464639062686 -0.7170351631566813 -1.1628351407476167 1.5931095118991272
Ni 8.347072335424066 4.48423927239687 11.875964637962184 1.3396316503168026 2.2944432051601518 0.5714598163853061
Ni 5.809161133755147 1.1061693469936464 10.496584992668746 -0.35985416955673505 -0.9830489524224876 -0.2770227387818003
Ni 4.696146992308947 0.8115304411635293 0.8578400169829434 -0.47790302877306723 -1.1752129455866793 0.9746882391626183
Ni 3.3024400966846583 6.876949068353424 5.609408308068596 0.8100954707484758 -1.9371100022530576 -0.9946615969607514
Ni 5.1884291038664365 7.023723559521371 3.9896087689806943 0.06412639816626374 2.5695414732257293 -0.06200472383757063
P 3.3000711048973868 0.47397907500973874 10.102907248364412 -1.505808218278297 1.2373346546180886 2.2315043995440855
P 2.4356887378679333 8.179941369372603 6.914893200446558 -0.24155797021628722 -0.3234581474262042 1.123774170190413
P 0.3391609696645894 6.222564246039986 2.6217276292792326 0.774605505371982 -2.013056790093017 0.2822654752379784
P 7.037478693653792 8.408141760074615 9.617983993113711 0.48201756516207306 -0.3755103880367533 -1.7443749670767443
P 8.754716831309016 0.12557435557283694 3.383825732721944 -1.2656679543451428 0.5062360713898056 -0.9678087384339655
P -0.38893414256744985 5.472230574540076 8.777811223973554 1.1646166581280717 -0.5774384025662442 -1.0989038893112943
P 1.5683942900248766 2.4922542690414944 1.87018230743437 1.5115052686630743 0.9212257484681037 0.6313580354028352
P 8.619431482129144 8.55126444572068 6.948496365770604 -0.19583784247135305 2.0270104240596316 -1.5321113749492
