# total energy = -340859.7710981706 ev
CRYSTAL
PRIMVEC
9.32195625728302 0.00000000000000 0.00000000000000

0.00000000000000 9.32195625728302 0.00000000000000

0.00000000000000 0.00000000000000 13.64362526031486

PRIMCOORD
 96 1
Ni 6.794354290257236 5.234958835217741 2.178559777104769 -0.17399914932970678 0.6565360773303597 -0.034931521769862424
Ni 4.363281367170772 7.357036880503879 2.456998215108381 0.511527401695732 -0.8407409635484746 -0.3571915351229074
Ni 2.5803454056102706 0.8829644924546269 5.335816806704538 -0.2765211165550334 -3.8375894977672744 -1.9005193476132172
Ni 7.174932468707053 3.478320111726287 13.377151448519434 0.008451473201462863 0.5910346531934401 -1.6224144315108315
Ni 5.642160520199001 7.198647524945145 6.098154255438043 1.5560887117004039 1.0651167655585203 0.687030646374791
Ni 6.089409328450246 4.2560788723838 7.942145300464349 0.8132756682486704 -1.0495867882437213 0.7016296272348884
Ni 6.281133998909694 8.1936171839532 1.1608268335732095 1.8133363247378063 -0.9282412605539884 1.8536100846561883
Ni 8.987185982102774 8.437610062088346 0.10475361692779447 -0.4567148247312263 -0.20065094758928023 -0.9240426490916086
Ni 5.132072406090454 5.8761602614287884 4.503228164843719 -0.839335855670832 0.07908661902052185 -3.1035670560239774
Ni 6.768709589112978 4.9462392118662555 5.987409417345067 0.010087466142989079 1.1273606019900906 -1.4943560105772973
Ni 3.893939523037342 3.6620931536593613 11.59043636596879 0.9493446181915068 -0.4372088934878148 -0.6994135934201761
Ni 1.976217398683377 5.49648631271761 12.875775634552442 -1.3155105888988827 2.258831112383497 -0.9799955103081445
Ni 7.21395417680951 6.154001162048415 11.803536281693153 -0.9659899400576718 -1.0862720594798967 -0.6250655175259042
Ni 8.023799110254568 5.739668180674803 0.18544540085175143 1.4253267757927777 0.7307116322025092 0.8758285512802272
Ni 7.453472516031811 6.535791194787128 4.2285548648961475 0.36494212560260375 2.779400569676839 0.8521152668236873
Ni 0.778498923969347 7.156055507668478 4.097875955946435 1.0199447970075726 -0.5629574353412499 0.11116010251629888
Ni 0.8050525158302765 4.562118690110434 3.2801185461904927 -0.7064782135764414 0.8318894266951156 -0.1909864279163227
Ni 6.0613315967721295 8.109728901293376 12.497574554900076 0.17666692596985703 0.7770418827276167 -0.5348161970203434
Ni 2.0472134161005577 0.2049786275975445 2.796669785938704 -0.22364149494718258 -0.33467869873237194 0.6520908970748125
Ni 4.647367978356247 5.163748412810987 9.360345747913334 0.016741738234713102 0.2676461826629068 0.7992600706958687
Ni 8.64162107064599 7.970412267850656 2.500221328810881 -0.906893905226464 -1.573114299724123 -2.116904932328935
Ni 5.052695950167752 7.068829964736156 8.199545948012723 1.5097720880220515 0.4594769608573958 0.9990584404768665
Ni 8.867538675964447 1.4786207057065288 5.703266874423182 1.6211779880005692 -0.033616145392548556 -1.199382086633715
Ni 2.7682107862573866 1.0741783197215242 12.299031805772177 -0.676315573950132 0.8392795485115998 2.1571447536855883
P 5.433404636002527 1.6589166580260781 8.853757096112876 -2.465284268476851 -0.15058694105335355 -0.38495893504416284
P 2.3120688319168567 0.5492636344861347 0.6943645416693179 -0.7997925461605709 -0.02027289131642315 0.515232618461461
P 6.820903221140131 4.0104826178048825 10.94453387731243 0.011269145155916076 0.5227934615278544 0.284124125713272
P 8.323211017216547 0.39289248241621677 7.3665340893463975 -0.04285720437484232 0.8238236189678457 2.3656514498738614
P 4.570070318636806 2.9904928287091552 2.6946027567498314 -0.6757077651628041 -0.15287393731531734 0.9495503064444099
P 8.34412016467804 2.044174458422249 1.0377453188192702 1.91168179198794 -0.21366072958538684 -0.6202364715683769
P 0.09514361241684759 4.261606792332381 9.422314383073845 0.16980053786732693 0.5281539545088194 0.02886706074333738
P 5.898980409884311 7.244464939021491 10.308672999732988 1.2150863847428492 2.1659530960058375 -1.8363685239669212
Ni 8.570662341053081 8.16133525008822 6.0050782528771744 1.7099769492128485 -2.4031504752605835 0.3748362447878641
Ni 1.1875053396454558 2.34629905460014 1.7128479026643864 0.4704851390424413 -1.7535934003512186 0.15545918154399035
Ni 4.750366270956355 0.7138837854810083 2.7766275803915743 -0.17942777654444583 0.30736638407066424 0.09575559503577057
Ni 3.012091800919713 7.731164265354342 8.701958363494523 -2.528534434685749 -1.0500827540435334 1.6939980572860893
Ni 8.15491242235707 3.3451186814644576 6.643422499553248 1.3910205463117398 0.1138193945160169 1.4140550595337
Ni 2.0952121678969156 8.06553350757294 12.970503487728639 -0.8960163390820116 0.7520389329253758 -0.950168656754699
Ni 7.20551780656758 0.16933985735232093 4.980250368581931 -3.336603361922499 -0.08051666659882907 -0.6491932638120432
Ni 4.279206645389581 2.07033186715027 0.5223875029452375 -0.6260679906484895 1.1013778047730838 0.31075535514755515
Ni 0.12096915950883248 6.725688761857164 11.475475207146062 0.7099851982884353 -0.13499294326983846 0.5655182540898905
Ni 9.302864702404166 5.28984651254867 5.665078549193242 -0.952196228707689 -0.26903663525253024 -0.043303290773325426
Ni 1.8930096188165504 4.737697732659355 7.699971135958153 1.715538502461026 4.782626489722363 -2.3982934042785984
Ni 4.705210715760869 4.685131222389466 1.2567180668667453 -0.9801832008389185 -0.8028943250143463 -0.09537481465758414
Ni 6.577637455578321 2.8407635703379954 1.835177135563603 -1.0775184816569832 1.1105288751447326 -0.4244001717589207
Ni 4.755400127233309 6.068052727097469 11.451053546637983 -1.392128434663938 -1.538819640207311 0.43897832668341175
Ni 9.47837849126061 1.6590844532353097 12.671816828948785 -0.2689785283210851 -0.2579659792606654 0.34816644880616165
Ni 8.72023312617108 1.60164255994163 10.231313815103496 2.93041405674465 -0.7470049700458942 2.4126735842596707
Ni 3.2527660626944987 1.359877629306838 10.253552273500349 1.5707655969862884 0.10948245770355984 -2.3532355927080117
Ni 4.463604258379241 3.835108658289465 4.987290309804811 0.9123978657638286 -1.4445516854606604 -0.7001625557710587
Ni 6.047479170054438 2.3637963661405874 6.374779572986345 -0.2963687474085799 -0.7212072922564998 0.38076932244284745
Ni 9.0087942762694 4.180636281921977 11.64351092284441 -1.1159834705014007 0.4496478905821159 -0.09528482604693912
Ni 1.5561234484594748 3.071426051295285 10.803718273333907 0.23282059034328936 -1.0857449833318333 0.038892306189823346
Ni 3.472195586589327 3.257995680048889 8.997234118548938 0.5691291113696004 -0.9936691511404951 -0.6533862188474683
Ni 0.563254026153638 6.763041839823372 8.85295261130417 0.29023075283164207 -1.0186327630643683 -0.3099999650387693
Ni 4.079287975545982 8.677902123664328 11.077340988832566 0.39805562032712094 -1.3819126704732005 0.15494059003635893
P 1.42033983636669 2.5934986856228286 5.665501765998749 -0.5851599395802181 1.7061897142562745 0.5862084354493904
P -0.12696877043447552 -0.08923722105188887 3.9929163237895287 1.523875617302969 1.168256054652872 0.7880426047134944
P 6.113133706644407 8.107547563573364 3.4779369793318744 1.5521667509381785 -0.3205887962982092 -1.0681581234880053
P 4.092236172525034 4.371755025236977 7.089691570221701 -0.16804293174627188 0.5523989430991132 0.18390252448634778
P 1.4394032365266338 0.9534962764595994 9.301554967576552 -0.1466662658427087 1.6474922004150658 -0.7498946328888634
P 7.698649282587649 4.562650041606334 3.9384369481343966 1.3626792761648854 -3.300581949522567 0.731091127029115
P 8.203144223055139 6.607104158710635 7.4681788339253705 -0.2013281761619629 -1.215395688453152 -0.6113656514413084
P 5.819501412444858 6.254063038486968 14.056753740558783 1.527644597427098 0.4227482379777945 -1.153614650590613
Ni 8.073037682208028 8.096370538247314 9.616831911571394 0.10467860855701325 0.8153528624926731 -0.37706307723585386
Ni 6.241683480828089 9.242160124486535 7.5535064266021585 -0.3142230019811814 0.007775787290676931 0.1719813475687296
Ni 2.342104174369346 4.504928489630601 1.5683342787135144 0.17636327868650917 0.03000348834062574 -0.8939360595142153
Ni 3.551338993610317 0.2280607230185898 7.668835802689588 3.1179258958488107 1.967179310834612 0.14491894413429882
Ni 0.2646773664553919 3.857835587184303 0.353526794134834 -0.0644452149582632 1.109399903746612 -0.46460374056099984
Ni 1.2602445628474332 2.91102315322577 7.990130069326605 -2.317892180211711 -5.895737009551343 0.4126697706958699
Ni 1.4193610309795044 9.539810181751578 7.273907405068027 -2.9290961092641745 -0.5709666787989714 -0.016249371979326854
Ni 4.34961537957445 8.402755268348479 4.61582900438992 -2.312011038840586 -1.5521122435511592 -0.33227240328372454
Ni 6.512859182858785 0.32696854129587033 10.347584708753837 -1.4476426656811585 0.3181385349855037 0.6739326755402522
Ni 6.552468174193553 2.139976200937528 3.8966466190796143 -1.7061192660296551 1.2522334261067918 2.879370202793957
Ni 3.5501737491017633 2.3346186436463947 6.559213541604671 0.1918624027633728 1.2334905982816498 1.857138409524421
Ni 8.848055787781423 2.624540799330708 3.547328688109678 -0.0750103920686192 -0.421297621574197 -0.2545626100060713
Ni 7.436459946206922 5.860368867848865 9.446791043122728 0.2970315778035594 -1.5183660003386497 -0.8232849728555562
Ni 6.542652154453495 0.9903739346663177 0.23374245524229925 0.21580117296715734 -0.09967369914325414 -1.0314021469148946
Ni 4.243717958637059 8.887105461752085 0.4990714264268746 -1.0294799901915173 0.9565776456048365 -0.6615474145020219
Ni 2.456932029220295 4.964603465321067 4.950098501678586 -1.225047609720619 -0.6535525692220036 2.0568886996763025
Ni 2.50934938819309 2.5220086045340206 3.7519698608975447 0.43460976530207085 1.3452163434934317 -1.119157754464324
Ni 3.901667424618072 6.7260336742316955 -0.3290566594551992 -0.034793710640417495 -0.3788160553712186 2.018711931496265
Ni 2.21553997682824 7.239608199909837 1.644520761269598 1.2098858143785163 0.9922203345091105 -0.320272550609371
Ni 7.409808473807273 2.1643531160564784 8.729750843316948 -0.6593077265382259 1.0013881170513075 -2.8191986755103837
Ni 2.2479990278585213 5.194436292188266 9.84492619363183 -0.3820877841439549 -1.5453646404146806 0.8166576973470259
Ni 1.6496692776061934 6.674259530227623 6.374233306360734 -0.9491235033196365 1.296114443760458 0.7460572614206441
Ni 7.372856239952008 0.5612861612275919 2.441731647655109 0.42443102499685614 0.23636459894080583 0.3270543494178948
Ni 1.1074763467979645 8.606402720619451 10.464455936374987 0.6055279617136088 0.182099409839338 0.8114735820429251
P 4.828782565404008 0.881422640920908 5.254528417592201 1.1347702641906006 3.248448719162438 0.838528272167872
P 0.46778973844803623 6.355280837478005 1.5244977803017115 -2.732512389765733 -1.9950598392949639 -0.45439646101069486
P 5.074844917786348 1.2369396726763524 12.26373608351027 -0.1591865097969065 -0.7538921840840306 -0.9337997284783724
P 8.437395657098774 9.15465492287216 11.557828163641414 0.4769591768025592 -0.2882623162513616 1.2281928402178204
P 2.664802327590267 6.9208439121497936 10.674308082605108 -0.24388764679072836 2.2598371850505083 2.6337799714898256
P 2.42508822729053 3.5822692438453756 13.046470904317113 -0.7046858975627089 -2.9494417628000624 0.9936616949413274
P 3.4087689974997137 7.673713050104593 6.5641392631912305 1.4912436902005608 0.46163694462319205 -0.5188493892784419
P 3.11991886676327 5.6987727594025905 3.2148340912564404 0.7100001106867708 1.1233496810584847 -1.2158309762183577
