# total energy = -340859.8723241105 ev
CRYSTAL
PRIMVEC
9.38493824914450 0.00000000000000 0.00000000000000
0.00000000000000 9.38493824914450 0.00000000000000
0.00000000000000 0.00000000000000 13.73580577171769
PRIMCOORD
 96 1
Ni 8.80624415065174 1.8220575987720664 6.657690182496057 0.3953677890823126 0.16452206307720696 0.8372293508507904
Ni 0.7710890472340548 7.390939158865 6.896733943658081 0.47535737953307816 0.5213706130383988 -0.08608207650174853
Ni 4.016997562527428 6.176706468240223 12.92029699017784 -1.4333190499696349 0.608503756512481 -2.9151496743864116
Ni 5.2102361463751095 5.422392059563782 8.863426579168886 -0.07883465091071584 -0.18588767323717664 0.1204096461390249
Ni 4.031947769096903 4.830859404150083 5.012813647683246 -1.8339653138420675 -0.09189276964625463 -0.04316316565103534
Ni 0.6448672592645006 4.145899688849928 12.933868549324181 1.8129090073924004 0.32610561235138036 2.102079180170012
Ni 0.8641397710982668 5.578454197067738 4.783260874533595 -0.016622953268661693 2.3606725086020313 0.6317200467279444
Ni 7.301782245864363 2.5810457066773824 1.7091192523457863 1.7273966873511928 0.870651892175294 -3.1620768793344123
Ni 5.414977958377413 1.8630791636905701 2.6072615930748535 -1.4875752402100382 -0.19514467305907035 0.7240725296194369
Ni 2.066234921135284 9.363822099619512 1.8892772187054414 -0.6511485877662012 0.21618221045565994 0.43146402058423755
Ni 8.322150267872914 9.11830273109218 5.739382425033888 0.5616657131130198 0.013314714831035133 -0.5677376303387126
Ni 1.6477792962013482 1.4198097621278252 10.490487685776527 -1.1783756595853772 -0.276240352089821 0.3789127288500829
Ni 8.147515337650194 5.50603062889659 13.262977685505625 -1.4733202729529207 0.32388237944781645 1.1037126235538477
Ni 1.588954503497349 8.032399685559055 4.121977481351125 -1.375686487057831 -0.18010706199965756 -0.3426709729092292
Ni 5.791154436672626 8.865988667300376 2.8823350705211657 2.4049070529403744 -1.3814167046733887 -0.09429212311636664
Ni 2.982111041107089 4.908913935247587 10.530871074896712 1.2927761234158444 1.6149500048129866 -2.35082364083241
Ni 3.445098197850291 2.1722002584710935 0.21481185070227113 1.951373197040291 -2.535499810259988 0.13362974437372468
Ni 4.6053111841348935 9.141905850691822 11.873464380909237 -0.47872475334341424 0.4712814096914916 -0.33079401896598515
Ni 2.6111713583333866 2.237716512119246 6.695861541680004 0.043590482996441055 0.35938545745043265 -0.05127962411058265
Ni 6.117327964181798 3.2194185887001523 9.863915425059758 0.782803210691426 -0.29153970145105274 -2.260777951697223
Ni 1.02826075504366 6.50409065277856 13.466474116207383 3.2486145553163404 -3.216841376669802 0.4660574422883909
Ni 2.5686294334247677 3.943541651153114 0.9747919465764465 -2.6304370231595215 3.2985672330853832 -1.6610956501311134
Ni 4.61411425617643 2.194489486721253 7.795880472775681 1.0623219764222027 -0.11179670765903327 0.7688742593151597
Ni 5.424569365228639 5.0022377608137285 0.455227689830683 2.5783966096235145 -1.1451873457588666 -0.49528651435683735
P 1.345800139399086 0.3556028167499504 6.106445189832794 -1.6054814032009188 -1.329703078349181 -0.5195741832596084
P 5.976469426579002 6.947181740515305 7.340730677932147 0.36596671021237615 0.38679521692195323 -0.15180307284864178
P 3.50139844217564 3.913293995300372 8.572502879578703 -0.033580149948290554 0.3193785780401919 -0.31658198913166125
P 4.826457868129315 6.7601680767928105 10.596405159927462 1.4400890217036166 -0.18872899934071366 0.9568496683193005
P 4.181196441459969 0.2215464823621929 1.846421836860588 -1.5251637399867732 1.5020407808160647 -1.7146499292084856
P 3.6823963605051437 5.945452205792992 1.2352784145620335 -1.4770709982446046 -0.2751707731747261 1.768430465364051
P 0.9966522831503817 8.146482994447029 11.636768731287503 -0.9182970048570831 -0.19765638373733055 -0.3549284501203436
P 7.493826236467735 3.2673474681416526 7.956561876866893 -0.16101687813742593 0.4992285297237209 -0.6753323841012563
Ni 2.661756175288485 8.289115285371626 13.386655216726286 -0.9488303975592498 1.0712269922213167 -0.9043482559864747
Ni 9.062115106025358 8.004676578084963 13.379609005117775 -2.333574881054291 3.7690703698499544 -0.057150738179379
Ni 3.584323756204443 7.173518295340183 4.974435819858666 0.7699955174037963 0.8201739380304004 1.3553914842542207
Ni 8.233659685485229 7.012575989966718 11.492418996670368 -0.14673234319395376 0.8897595595390225 -1.1895429890561062
Ni 7.61110980928552 2.567512625777707 3.8235674165503517 -0.12288047627702064 0.4051243542484442 2.2434785411868265
Ni 1.6091790453411778 0.8476222798476225 8.140003633106435 -1.6770107786994732 0.216464260472453 0.7336586306459751
Ni 5.621831381477101 6.211815522086052 2.9088869377065767 0.051236943798105304 0.4892647336427896 -0.42493830365057783
Ni 3.9565116357601537 2.1491039255348237 10.652598415957213 1.5640984693787578 2.3816323986831502 1.797930531705697
Ni 5.884243638783501 1.0903796610595775 0.24290941721096654 -0.009145413944693927 -0.9100422210474584 0.1324128412474881
Ni 6.302708648655648 1.5647976725432817 11.462131924077141 -0.3696400452989053 0.18165769431622908 2.103224863738681
Ni 8.43866427575743 7.382708568054309 3.9221355455885716 0.8376553826446155 1.9279442765933892 -2.2270682181496033
Ni 8.2104225784758 0.16828038856032826 11.013451167142168 1.6817004708656587 -0.7057374787556749 1.7208804834992295
Ni 3.729189662423162 7.609307901149085 2.859822480741595 -1.5935995641616685 0.31183059048960493 -0.9525487269511014
Ni 8.866495453963749 3.8789826612024423 5.523620818584704 -0.9979024724955524 0.18331297053146495 1.2634673471493982
Ni 4.535130616196076 2.328553329059579 4.876815569579716 -1.3279732401422677 1.757858860495792 -0.9560636820828954
Ni 6.127566931769556 7.570810884609232 12.323860704549107 0.5299071897545002 -1.0669926424249947 0.5185151458674747
Ni 3.208700989263655 3.913481694064583 12.32993182107754 0.6095190851508728 -1.7649463634701927 2.539886112253142
Ni 1.0109924687361684 1.392649750946368 13.623680277679211 -0.386950768663211 0.2444072667396242 0.05272561252848984
Ni 9.384703587138082 5.210395690324688 1.7766307438575104 0.35097460767891814 0.21638995559109186 -0.46029122922857496
Ni 1.9796025565132973 4.705439089903714 6.782438535166548 -0.4994018220767915 -1.8069029104076362 -0.4943938273392388
Ni 6.5631312990614035 9.27679556759268 7.654277709572787 -2.5991502972310982 -0.47138116849414946 -1.5049965210102791
Ni 4.076469915967958 7.713415020719197 8.696976253559622 0.2515454204463023 -0.28457843964187113 -0.09467367482550146
Ni 0.596535765973766 5.694508342979935 11.021253804770456 0.8171384936381862 -0.09451349509855335 -0.7778396960385636
Ni 0.38715591750778633 1.4023350071797003 3.3284603087813944 0.04492128599272264 -1.0628737351606148 0.1923210875673462
P 7.751546024668839 0.41381195750733457 3.3803543246168704 0.14396943573683593 0.16901275185870893 1.3837378966073974
P 6.830433109175523 0.8179959069044215 9.580601033370725 -0.44252233528092816 0.29068918052529935 -0.9957190916909884
P 6.57367996961011 6.801574424177948 0.914409254129489 1.9870745070966422 0.5546643420945222 -0.1198997963821419
P 1.263475461415761 3.503847911048605 11.079259292368668 0.8856187978977714 -1.546469443443085 1.9745439787297994
P 7.988694028312322 0.5990490524265628 13.326863775386597 0.11402945364429394 0.129623451427809 -0.2848067536025934
P 2.94670166923852 1.038236944361521 12.187835410124768 -0.9458510032159517 -0.4365182951786934 1.8824612045599258
P 8.919060492881282 6.844163273777621 8.774762375424304 1.076814256501107 1.8287112645319796 -0.10053964668797523
P 0.3157252757993182 2.8355746158868844 1.6316625418122963 0.1306099837107944 0.21241477299342776 -1.2927401279715864
Ni 6.236629298714861 7.899865588149056 5.124732789819856 -0.37851086542597395 -0.4384047135681288 1.0530626626074637
Ni 6.003582513069407 4.6763833212037165 6.370419100857437 1.1109248250315706 -0.1593171218374998 1.2015932353524208
Ni 9.002736601966934 4.91116632041813 7.792157467787539 -0.04287314521444229 -0.43059370216414233 -1.6247852457358531
Ni 8.244996690843626 8.577814754605898 1.7204919204693834 -0.5498324679235176 0.0002864208921672487 -0.19356370172519566
Ni 2.3884949294106383 5.3196645259106266 2.8927054272438717 -0.08260440236579322 1.2053966682589112 0.7598221764152204
Ni 1.2267240433830775 3.960612853758183 9.17466679299736 -0.08023873034709407 -2.245112991466456 -2.4112031703617314
Ni 7.699027910442358 5.277207065445903 3.67690992562723 2.460459850505014 -0.7416719878687549 -0.3243608617461317
Ni 1.6616690047530263 8.227118383552446 9.226739122658838 -1.609580770081273 0.9426533222142605 0.2586714899681222
Ni 3.6266498275342194 9.176076410716592 6.917324498092123 -0.10012004265205338 0.667787738984779 -0.7920530114244682
Ni 4.661179721302555 7.787434028386147 0.7472803974876006 1.4497921079239935 1.5770804834607226 -0.9802194533934925
Ni 2.8069599392827858 2.590149096741658 2.6241432199280688 -1.1194166645526658 -2.6739550010468145 2.486724183518182
Ni 7.656485985533738 5.382675001056551 9.650104008770736 -1.0627783472333308 -0.36869336511491985 -0.12356876059329687
Ni 4.459919721376381 4.083480464811271 2.3233700276858684 1.4174304037638363 0.14808757167026754 1.9804675433030858
Ni 8.563286870255899 0.024438379100385075 8.499386702967612 2.5216317940286443 -2.019777139535986 -0.17541891249536887
Ni 6.049165157958259 4.800236350768917 11.540823692479146 -2.031402125369424 1.1406735170489128 1.312209806660424
Ni 2.841290043257136 7.384491706314322 10.939181581624997 0.44947871199410333 -0.6549355656124591 0.995832477340401
Ni 6.33690736349505 1.8380307636064963 5.983550362458895 1.9776660692985488 -0.4797092287438706 1.2134056546063168
Ni 0.6147247147197169 3.770520930302615 3.5675050084372386 0.643404425044408 -1.267000042893005 -0.5958040495576254
Ni 8.925395326173433 2.105332573720616 9.337985364725748 -0.40944663577288193 1.019850180411237 0.14623123518781914
Ni 8.416468896889377 2.75435736061241 12.44906328822899 -0.7414693849396456 -4.351588758042267 1.0342169906558705
Ni 2.775022994552136 0.7389034016408249 4.596371091995482 -0.09225786629515723 -0.018744884707670943 -0.8690799197024838
Ni 8.191061450947347 6.519284867741511 5.848953455630208 -0.8557672617539779 -1.3520421081660132 2.1865242352889696
Ni 1.856387702746417 5.9923581269695365 8.750422538175131 0.5356188954272968 2.047227779547771 -0.7308574137517542
Ni 6.846669052279849 7.8428333186432795 9.731200198342293 -0.8753354136938926 -0.36319968899020033 -0.6733022410451048
P 5.541862322984635 3.077630942214508 13.239970509482356 -0.6916727731324925 -0.3331146966793618 -0.7293355777905891
P 4.91765131272165 0.20243217870867744 4.6795554303188975 -0.22775217468144648 0.09662591345586584 1.493347623917441
P 5.954217738081685 4.504995579601861 4.241726477436833 -1.044509373720814 -2.1568156524809434 -0.4129860163847081
P 2.2788225414816448 3.2621857521258266 4.95927163669799 0.1803844840307603 1.1149845969232413 -2.007616335803736
P 3.1286943910183465 6.405971123786807 6.840788449997091 0.1376576345861952 1.5753611867767707 0.9905717431620942
P 3.4611933668814583 0.920766611273345 9.235873483019208 -0.40965180980515253 -3.397364957381588 -3.6001224097909095
P 8.066682864842353 4.355596748227425 11.399936061567898 0.26867745214089855 2.08140905341517 -0.7603777918083744
P 0.7892939503749639 7.4734890753653795 1.7630591847111716 0.021535560078930652 -0.3196796542203785 0.5055575572655422
