# total energy = -340862.38139778783 ev
CRYSTAL
PRIMVEC
9.36517747827387 0.00000000000000 0.00000000000000

0.00000000000000 9.36517747827387 0.00000000000000

0.00000000000000 0.00000000000000 13.70688388610342

PRIMCOORD
 96 1
Ni 7.390314563359898 8.195410792570609 4.418112474018555 0.20905871203700124 0.939199559337705 -3.0432304639174492
Ni 0.9170185310902025 5.638932686305971 5.2475843876824815 0.6357813612815115 2.0986287597275664 -0.7105346430340022
Ni 7.627431496920288 6.112726390076011 8.187930825161363 0.029118514632511146 0.12099945720422389 0.20672697858003106
Ni 6.371720378685853 5.904669602842013 4.175075811649622 0.7149037186359752 0.6453432939383338 0.7132170749621718
Ni 7.8372302072018885 0.7689391512419934 10.304205310423885 -3.8465063406409308 1.3248910016725184 0.23502659685567265
Ni 0.5317585344734123 0.9619067642055822 10.971469537198676 1.534580405314983 0.0014809554209006754 1.5551217198014442
Ni 1.8279983956153851 3.5520901449235494 9.83198870257436 1.746868165812243 -0.5115541411686093 -0.06849650220950139
Ni 2.2962947400900364 4.391884357421169 6.7663755215464825 0.015682957952895572 0.18703541368837465 0.17538908769869793
Ni 4.579506326967708 8.810056768576846 10.191109551781679 0.01595832310146929 -1.003108442176524 0.5836044221676401
Ni 7.842549628121447 5.3899688029863535 10.6919592538556 -0.04980432511663681 0.531786151944768 -3.1731364795826833
Ni 1.388415685893139 7.039466912110921 12.57231086571133 0.644058256578323 -0.510953788580449 0.4180351487728413
Ni 7.327633429179255 7.477916435334458 2.039392932172853 -0.09587772243593165 0.9590088807541485 -0.6606066478553074
Ni 9.023432976730401 0.8310218505691854 1.7621574504871036 -0.24165567213641606 0.004737771795301517 0.6697888285752078
Ni 3.1840667578181105 9.103523976209388 12.178224189135591 1.0488843628600582 0.001570686921229553 1.8431176697652967
Ni 1.1934795125822062 3.1928419292998464 1.7928874079929964 0.014282220950627015 -2.029120271313783 0.6117680290860497
Ni 9.01099602077763 4.581473014279517 6.61176205723423 -1.300908779825308 -1.3815167205863628 1.2373433963688367
Ni 4.884436512074793 6.1653399582557284 6.843778715032664 -0.33078887675966256 -0.5318015785637358 -0.8868439285541243
Ni 1.2657505887023344 1.1183614224487934 13.564127197858452 0.5558866445373974 -0.5762526097882592 -0.4512656286911971
Ni 6.7604220780983075 3.008619519249433 4.767994575449211 -0.0879723515459259 0.6572403024862359 -0.5157666365880601
Ni 0.8797732194756178 3.358530652730883 13.290510420826429 -0.29964613260827105 1.0847301689140738 -1.9473031407359753
Ni 5.105407879323001 1.123821321033481 11.7449358153289 1.0074260957152714 0.2384957863511957 1.984158104780796
Ni 3.1613562019555586 4.386817796298843 12.468069882561103 0.17483861451186664 0.8871630024564398 0.19077019814045856
Ni 2.939907210645911 8.481273475930825 3.534854471929966 -1.041088263854407 0.06609406341559584 1.234676905280267
Ni 8.216229582542754 7.517250181570629 13.377905322374367 1.5622521601986386 -0.6631201583057806 -0.4066503039746674
P 2.648949870630343 6.028364869577098 8.11966991812179 0.5831907316689892 0.9738089218814584 0.513108887250239
P 1.1200846151410446 4.928761898011889 11.696961756169515 -0.8298757386991966 0.7787138711134008 -0.00948917043735785
P 6.7982012048403835 0.3549795676393106 2.6734042225760315 1.7651240266986374 -0.48383482087646995 2.0504318883073656
P 2.730286438740141 2.6569196368320056 3.712838737130876 0.08705061106260492 0.25099648992136775 -0.3599413299539027
P 4.1688901117951005 6.589685523900296 12.52923011188728 -0.23954351088941972 0.24632222437414997 0.23292677690385047
P 4.619664208839305 3.8001643363640154 0.35372557034859076 -0.6030082806155486 0.43164065537141794 -0.10590553898557889
P 5.863884254066173 4.8377604665412015 10.055685336526075 -1.0629210434587824 0.11700293445032106 -1.6976533946504893
P 2.207250630753484 2.154524680441663 11.80434101035873 0.7430822379527202 0.4907906833690128 0.015693499475856843
Ni 3.5098625587857164 2.071624127660093 1.2632922295625737 -0.020140993724249184 2.390128351969303 0.4472739910333007
Ni 8.10812733663701 1.0083955061856673 5.550835396432389 0.40169527396223725 -0.10064146237316215 -0.5985229911506853
Ni 2.487709606595064 0.1466193486486331 1.5257953502473416 -2.3062787643424993 -0.5253360254440501 0.4455896613523423
Ni 8.544469694883608 4.1740596898718545 2.9701857665878557 -0.6103428666037488 -1.5359829420894644 0.37672960515583503
Ni 4.579272197525826 0.4368836655162307 8.146659423664177 -0.5533103991697891 0.9045799123813066 -1.9157600758223714
Ni 1.0496959397336478 1.3400258128449722 4.183711441983997 -0.021408290472447 -0.6126460608156288 -2.367885224300386
Ni 6.73716834193059 0.11897615370451205 0.556018090723455 -0.9788518836220046 0.8276105968141036 -0.3170417023768991
Ni 2.764769022940518 7.191285807404869 6.137873765169671 0.05390626310015233 -0.7862343478601621 -0.6930202882993226
Ni 0.6058464550625444 6.713418251346082 7.36054172701242 -0.03135974525820406 1.2614289765631308 0.28414598009014286
Ni 4.962748127795476 7.768059004892278 4.592779593286881 -0.4624524985459519 -0.0508456218969576 -0.27966583283160223
Ni 9.043717951575056 3.145791276659245 10.606894408513273 -0.34915015287566964 0.40170812947804363 2.4929238845709905
Ni 6.473800815346393 3.06726426185203 13.321487619022951 -0.30190536095609294 -0.5484145045300683 -0.0378324974667413
Ni 1.6416594554103585 7.122489212202269 2.055442973672746 1.3554678460181107 1.231603408561266 1.1436081741972048
Ni 0.6025143248456802 8.241169050692022 5.016774901286393 0.036513521545001634 0.31707306983546685 0.6076624915581083
Ni 9.145882674834676 7.535062749509011 10.804314226943692 -0.679958312909042 -1.2348093170930732 2.6204439165025515
Ni 3.910879466841164 6.062323003827659 10.211779435428788 -0.27661110516567844 -0.5990693505724586 -0.11158536297917558
Ni 9.180842883096492 8.829189826567442 9.143245440801318 2.963671019025567 0.9869598574411195 -4.631019592044927
Ni 8.337911336077655 5.040891170318004 12.693219055570255 1.5755946429438157 -0.4907919689205935 3.2892518692217294
Ni 3.787380868837259 4.746993164512398 2.2357985018610367 0.39414162998469543 -1.2752725673144423 0.5503847408825618
Ni 5.122911396398098 6.704474506666191 2.2096040999032813 0.13277485257259716 -0.2112127822655266 1.1343126078278918
Ni 4.924641219834766 2.298682860397233 3.3243028013632734 -2.3741723428606787 0.5141578973400436 1.5222342250448042
Ni 4.727232639617559 0.11528346414714953 2.4098625036870747 0.696474051175878 -0.6341003740346627 -0.10517534568777372
Ni 1.31662223383445 1.9954571376270491 6.214166248583563 -0.563365726523262 0.42854093340017163 2.082503057810297
Ni 4.249318257670396 3.0128338492033087 8.583360468215739 0.6380084508398173 -0.15907672369191958 -1.4682806536464843
P 8.117801565175572 6.346780910536584 5.339612242626378 1.105359158018335 0.12385466726483185 1.7288696723522934
P 4.791356011160195 8.430570403996866 6.595026484728507 1.0458563746670118 -1.3878182373243582 -0.03165953588680999
P 9.340884404389335 9.415655982948763 6.993800432730725 0.3449011477913286 -0.7406520312446728 -0.033714104422993545
P 7.308294337279805 8.08848855905195 9.456914273197205 -1.5532319589778991 -1.7611251899518896 0.22619794282044917
P 4.42380088293852 0.4879042169733832 0.17962972691845655 0.548251753699959 -0.31992930833733935 -0.06537929673675837
P 8.370052625859213 3.5195929783903313 0.8609351645817941 0.5458549713330083 0.8271197732206141 0.30892498680703573
P 9.33331734082771 6.446107984960594 1.1517211218459047 -0.8837431781416135 -0.7284467474277325 -1.4009334345500777
P 8.887441231707676 2.9650901734147364 5.089558252625359 1.1524427417696992 0.34629828524917133 -0.9775102819924456
Ni 3.714828837386873 2.55234806290984 6.367847877717124 0.15325780301729733 -0.7685880955333086 -1.194567438853891
Ni 6.759129683579119 2.9669913044828182 10.921604648666653 -0.695204697545151 -0.19056605254945244 -0.4222047067694986
Ni 5.442086016749282 7.2724538023165115 8.726433224078743 0.7828551469752841 0.36014830375838625 -0.3822667329239804
Ni 1.5722541236588659 4.5927299578452025 3.475051256848937 1.2514003886825351 0.3591769409840524 -0.2592178493898955
Ni 6.56583241636136 5.011699911504159 1.0935390190204664 0.33735290313042543 0.4792466872851553 -0.1599976928442922
Ni 7.102382175733445 3.4770750717445646 8.20055508466764 -0.7420807932713993 3.2463614976161064 1.8730473674451935
Ni 2.9255129325590072 0.7978279148169265 9.88704939168063 -1.1243668094690893 2.6568329966545465 1.8630956555491205
Ni 3.824916500959777 7.8229108505363865 0.8700006565714642 -0.9980330845361458 -0.8513182248436888 -2.1812470460504305
Ni 8.336178778207728 1.7449011741026346 13.395216853307119 0.8162254949056137 -0.6507107288978342 -1.2632218067974956
Ni 0.2350528484007577 2.0080064757119227 8.557481672745642 -0.9854652751734643 -0.9912384302118153 -0.1951912100262896
Ni 0.7601143443185779 5.6765245094945405 9.570818246672784 0.6792414893476754 1.1582405793983988 0.5738365441475988
Ni 4.1151246267613235 4.679704362915519 4.937849866427979 0.27220911944324083 -0.24788828330968923 -0.48209906913228584
Ni 3.105324343924364 0.1864616240325726 5.961974188519277 -0.7400501359946158 0.579135330652693 -0.4081088907980649
Ni 5.697820923528125 0.7666250158384319 5.085446003108144 -0.18396757339632833 -0.4393884176376368 0.39283268136528476
Ni 4.191600667657652 3.1964287923494785 10.729173660383859 0.22763698925982084 -0.044491140433839504 1.857086987461195
Ni 2.4071222526992884 8.517835129575115 8.41109270746782 -0.7236277287725343 -1.5145857073606108 -0.20900523309124652
Ni 7.366452090643287 1.4293789730448094 7.819366130786293 -0.5607532286010793 -3.3242165582223717 -0.12286324988584
Ni 8.90534745142281 6.353402091153006 3.252917671051226 0.9959769733380653 1.0785281538684197 0.8902753228331765
Ni 6.011694853315102 5.045452011845865 12.163379446002505 -1.7811702815282229 0.4758147787854708 0.983457757825132
Ni 6.830969961526184 2.5146063968784658 2.2008457857413606 1.7090274408153856 -0.5959428891283349 -1.4386211789088383
Ni 7.174194358147485 8.222635364072646 6.533509442132902 -0.45656132987249765 -0.35167703306258147 3.028677505803939
Ni 2.0871890529564068 5.278991447534298 0.742008646318961 -0.9879993544492275 -0.08754297731799117 -0.7223663455616075
Ni 5.880189028398834 7.359325190432401 11.199716710982809 1.6578930840334158 -0.8968282934603458 0.004818247324249766
Ni 6.042618669998872 7.388244859093661 13.552517187094407 -1.9102617717119619 -1.2193824410150418 0.394024901901173
P 7.792558309690807 9.305633875619584 12.332851701214356 0.22410017975115598 -0.0048868957786561 -0.87606612121233
P 9.093381488787061 4.080332991697662 8.770431765314973 -0.46234708331633917 1.0027001509945117 -1.5014766807824789
P 5.909361556857328 4.306605049510078 3.045560462589571 -0.8130257570213932 -1.0046917275032439 -0.22261022546919082
P 1.7680612584935993 8.558583017640254 10.875809866352306 -1.9681316474455524 -1.9243516741461242 -2.0266980350255355
P 5.761766356694931 3.171601706332314 6.634940871980547 -1.2472128329637489 -0.278943609953597 -0.4248496005915135
P 2.274820387680622 1.896776260462634 8.265113936972176 1.851042066818696 0.8972792649548352 -2.4424914389520516
P 3.1522345188998364 6.364246966900979 3.752053545610572 0.013135766051009636 -0.14364162008377196 0.4633187032009892
P 5.565163181757798 1.3929016059995976 9.71406894091162 1.3258435953937748 1.0323380284656027 -0.04945311242480515
