# total energy = -340893.0443387542 ev
CRYSTAL
PRIMVEC
9.04051570604052 0.00000000000000 0.00000000000000

0.00000000000000 9.04051570604052 0.00000000000000

0.00000000000000 0.00000000000000 13.23170856512584

PRIMCOORD
 96 1
Ni 6.165686029644766 2.159914836192906 11.624942537216624 1.4138282882348747 -0.16428012226973 -0.9470020861012594
Ni 4.790289074937526 0.19067442312800872 5.9192578414275605 -1.1069403864625258 0.019625487540411362 0.34336568498340864
Ni 2.874775543315865 1.6287935725154599 5.105084355910487 0.5153737720250157 -0.3836610421683457 -1.0549881617649508
Ni 3.2195356139611424 4.182630804361353 4.832524556726974 0.5218593797493593 -0.31007735524392405 0.49748455044942064
Ni 5.143348339101943 4.418353213749185 2.5455958976279773 -0.1874609312615675 -0.20360565934223002 -0.17429199797977724
Ni 7.276973355301759 5.904632094940346 2.47772964944843 0.04455387535097488 -0.027007124716463167 0.42925570007900915
Ni 5.114897835828816 4.648488584362695 11.438917651372813 0.8069785223860488 0.25030254917813666 -0.3290590385527494
Ni 5.833139695866978 7.867201511384576 12.401736201989054 -1.120556948804696 1.0589481748539633 0.7816703826385635
Ni 1.9302134103385673 6.516882947551074 0.1458614902794031 0.18660938189454956 0.13809832166803956 0.6435895444720207
Ni 2.4812418898429676 1.5859596085789889 0.5537243613207481 0.7518980364721374 -1.2769746376072137 -0.7555073510899505
Ni 0.37534051944466695 -0.1921570677218418 4.725492985929112 0.1228074569472401 0.05905721117347248 0.2732283047363746
Ni 8.860365457388987 2.3245968722981734 1.3265049411224297 -0.43326070747334416 -0.38631519196174113 0.3591499444008589
Ni 6.826665262504033 0.6729027691690633 4.7647912041299225 0.8920519551176249 0.04109651292999374 -0.38393049377964844
Ni 0.8314354464162498 7.149312231463238 2.2764488931650253 -0.321428261480369 -0.481717517423151 1.2712855576422364
Ni 7.592632005535153 3.8999700368565615 3.6371848433733676 0.5378187312920931 -0.9373529930472696 1.45474405261263
Ni 7.566857494943579 4.098581128819485 12.358124753692403 0.9300628871437596 -0.8091865857809613 0.10618656056110745
Ni 7.9913368340548345 8.768070831422877 6.940057740230072 0.048774341190225674 0.6999383555753946 0.18790573210846992
Ni 7.063228439862758 0.4644275703992413 0.747937242339161 -0.8608873565893626 0.3736216556544727 -0.966749958152148
Ni 2.1180572479645687 6.240595743696602 9.355664581196896 -1.2625440640041805 0.5036261445707843 -1.3340670117448314
Ni 0.1032408825161909 4.915418854347551 1.1813404746124445 0.11652959435832834 -0.8046208207871497 0.4395012890664173
Ni 6.294540501571005 2.11404325894224 6.918953560109073 0.6382606760599395 -0.6143895258692966 0.550241273326162
Ni 3.6507682183869905 4.595013933310726 0.45196702744997197 -0.5017096442743617 -0.7402136581556735 0.4746642101207954
Ni 5.789944111297865 5.41290939918927 4.663304181682046 1.1472223739110243 0.10683782099186115 0.8400274824212177
Ni 5.470488444421727 2.869251788152255 9.193192951208655 -0.07893081016894793 0.2558283640923723 0.5434543323113157
P 0.20420717125306223 5.675726234477819 12.352342439776454 0.23354178478003007 -0.5646427934634727 -0.23662453747041184
P 4.2537706233178945 6.36014752484812 12.606258887244097 -1.3786972488596965 -0.12166665847457754 -0.8063383176988888
P 2.2176566107100526 8.558755768733743 1.4971410609441513 0.3590080195063559 0.3827601276206311 -1.1907838034417428
P 6.4600271435839005 7.724162470142946 5.886667685962261 -0.9877550996489054 -0.16124030700214165 -1.1163112861544646
P 4.550010245578402 1.117226944548142 12.574026736205115 -0.5746942641622038 0.22696001779745426 1.1012124828398133
P 3.9921019335379833 6.169446884224244 8.033658200744535 0.3063564547489111 1.0060898934023512 1.0972938645116972
P 4.7834273234331395 0.940891683555979 3.7456719372176153 -0.9885734817851427 0.12629335861331156 0.3674211832707156
P 0.3066226546752473 5.31946662771452 3.7522615691959382 0.3170332177364669 -0.039649496070822035 -0.8244244857766382
Ni 1.5926857523461342 1.1573306727081643 2.9436579454731366 -0.7583103677563844 -0.9732041984179239 -0.9143629599099995
Ni 1.6119601320659644 6.716596982443558 4.940481876344401 -0.18264859747458867 -1.3877195069629649 -0.03094116966354671
Ni 5.969533957983809 5.667228149610728 9.070495070553147 -0.27688415632140706 1.1062145640400949 0.7532452945286511
Ni 8.46096450915147 2.3625399171781587 9.99160700955518 -0.03925945972125497 0.3600922537094702 1.4491465039201947
Ni 2.387844320947298 5.270539356118028 6.940468179648121 -0.8052710527766389 -0.3721273304971333 0.5456320566889249
Ni 0.5963775149408982 9.038924685271901 9.046188739730102 -0.8631229307881005 0.3774631408877499 0.8841470984482513
Ni 1.2266714290173102 1.0995888981910176 11.173794580499587 0.2661132909581482 0.8855642905107524 0.9381634047637069
Ni 3.894672294588353 6.814180310162061 1.608168539732711 0.6762667229900675 0.6536746966221645 0.4326094470425904
Ni 5.6548155213952835 8.02136942759577 7.906740207306095 -0.273545064645845 -0.8145825599855518 0.6600595171025858
Ni 5.338406508349156 2.8008783670354265 4.848852632342352 -0.4379984792686457 0.4940986646963232 -0.36373447844774776
Ni 0.9969428816155231 7.660752292209132 7.276474318828712 0.17496819811119546 -1.1959936297774565 -1.0350160895183982
Ni 5.1594494977703365 4.610292405039861 7.10424978037811 0.2564449146304486 -0.16622053382555244 -1.195029466091974
Ni 7.971447699259512 7.225541860824219 9.062780798407308 0.21851085858883657 0.4609923690606577 0.030920600838256426
Ni 4.583433032550359 0.5957401585758663 10.440466811719173 0.06609689162907327 -0.9898981141338372 0.42968610274820834
Ni 8.01571006469492 6.7551819039464815 4.674908587783535 0.14330866222438546 0.7164204123908178 0.4666747641574156
Ni 7.275662480508431 5.988500960165893 6.962631004171182 -0.3080109596331986 0.8138328263037209 -0.07258609889784273
Ni 2.300738951059603 5.004133436050503 2.601605509314768 -0.7192475974269678 0.9990242448048213 0.2817993342348373
Ni 2.6765622340488475 5.169122849693516 11.448854986357823 -0.9219024628201542 0.6753755786343659 -0.40219175398268153
Ni 1.033367119838411 3.1742787917859685 4.096351737619246 0.020243066519752235 0.9033241855973346 -0.5371697848541845
Ni 3.3431104246508054 2.623024299386166 2.7769390811545116 1.9889516695146974 0.524273902728123 0.1820976100671251
Ni 1.0941555481855683 3.2589070603400643 8.351497423392763 -0.024066811141216615 1.3546841737745507 -0.056368094377083566
Ni 3.7691989755773183 2.8525449149241844 7.319040683497029 -0.4935397068690597 -1.0647056461630309 -0.8837359790527618
Ni 4.074171736116135 6.69726835962883 5.8726820079948245 0.04062625816179455 1.2241071001842208 -0.11823757818837055
Ni 0.8575760978983744 7.360498680926296 11.209043551666388 -0.9330404817148448 0.4983193876458901 -0.19177858480031487
P 0.23975357539021094 5.746097609589996 8.054961272213488 0.6519073203090967 -0.2546130036280324 0.25459423457495506
P 8.540674737101632 1.656837252576864 7.950325438106881 -0.8502347619715228 -0.3807382120945959 -0.38627945362779925
P 1.8195303752025995 3.2290371960838167 10.416768907610546 0.018134504817181672 0.3506398500473187 -0.32118503512131136
P 3.911740788449066 5.881045389176257 3.7839775067818238 0.016530393554855402 1.5656712131825166 -0.7912228022136889
P 6.934952560948746 4.149705245759279 10.208170757825627 -0.05499461106832464 -0.3167858776123512 1.5438970547302184
P 6.193892438990859 7.970136824466184 10.244663703968715 -0.21683861309273625 -0.549465571502402 -1.4705640503640223
P 2.419929111578479 8.601246193069205 5.73414604768117 -0.07778821192407248 0.12583210270617687 1.0843373043510294
P 7.178612543223075 3.7365536729655418 1.5147791073012757 -0.9663673780017487 1.3144325253433558 -0.5936993445097969
Ni 5.425891579901125 2.9691585284354844 0.534199559312813 -0.7064530167654608 -0.46173567498458545 -0.19859072262614186
Ni 1.5746589638089195 1.2286060994019459 7.161900245685515 -0.12509573876078456 -1.2735751250073615 -0.6289273144741555
Ni 6.7342983124113935 0.8295080084442669 9.116977786672978 0.5160054920717436 -0.5055385311021487 -0.06757707571902556
Ni 2.743226997676441 1.5697318826891693 9.235123767615102 -0.1857210657523253 -0.012861429343700432 0.32792466783799007
Ni 6.319817783792696 1.9835253321058466 2.6546905141350643 1.3409228583244004 -0.16778710698172394 -0.494136202802478
Ni 4.124183869610555 7.036170176025304 10.238087632764117 1.0247584163461319 0.2880088054796588 0.8505774900229223
Ni 8.239254899278524 7.107608332003775 0.4980971634529769 -0.5384031430406534 0.34941857604570786 -0.6452358218261919
Ni 7.682386246556953 3.944838116851645 8.20403033750443 0.3985397590523911 -0.5146854877087395 -0.8520810711516422
Ni 2.785880151296591 8.545393886357614 12.319170979144182 1.3137426983651825 0.008235500535914847 0.417216766636604
Ni 0.04455075788994003 4.889716667882504 10.14453908725432 0.41447699910793784 0.024947413973957035 0.5146659473247137
Ni 8.748181696627555 2.09438013704232 5.722250536970405 -0.7957412589093328 0.38396468945169354 0.59316584060383
Ni 3.4983180001808467 2.9616910623714228 11.739251723246413 0.9649545568146222 -1.728135108179114 0.08291370607609591
Ni 1.2892137174327825 3.472507327526008 12.626662427389354 -1.4380251971960523 0.3226762749548572 -0.572883179095394
Ni 3.187966132731476 8.337688035483739 8.006797924203452 0.31611199147377816 -0.02848293793104127 -0.21638918426014347
Ni 5.450798200974358 7.8023538914360095 3.761510016875763 -0.21946036698629948 -0.3316142008744353 -0.2842138572136008
Ni 2.882957210129395 8.15350560676324 3.5809374661206146 1.2562919124468817 0.21549855412507402 -0.15084353714884988
Ni 3.6815511747406595 4.344853820164654 9.192134306806594 -0.8601661621526219 0.13455045641578117 1.0031392954144596
Ni 7.390531274467233 6.413522730226112 11.344351143782129 -0.07446763219127175 -1.110547901308126 -0.1919354220931533
Ni 0.2546378806297648 0.18041524577994889 0.1641540699816098 1.9367929852332708 -1.1168962121236572 0.2688718275398918
Ni 4.697370653380108 0.431355555440947 1.4770693077293449 -0.7450954117280072 -0.6571796244516295 0.0777110788292339
Ni 6.105747409784317 5.617686122938744 0.3718707694744648 -0.36794774519814694 -0.06475503288919815 0.05847717030028639
Ni 7.832937956441726 8.904103472907064 11.174931877389248 1.1789065923881825 0.9687320215791831 0.837838445189699
Ni 9.203064290428205 4.8028553919218435 6.061432609357176 -0.20272582784043794 -1.0819423217562913 -0.6664289109640393
Ni 7.770386627510438 8.281076325443598 2.735126695505255 0.46820534186932916 1.2834239927769833 0.7724272667737406
P 8.545439088936694 1.3843199438176865 3.450247769483716 -1.0276925592737913 0.22165351798287636 0.48501187190370665
P 1.729739972117536 3.296271512207822 1.5333826807475548 0.6308453574324748 0.040066271893266475 0.2796347224833507
P 4.6324597498208275 1.05241548666284 8.223838107657405 0.8344553876500791 -0.2433178903301874 -1.156261087074525
P 8.478494069318803 1.8095677267733064 12.318509213386447 -1.1758994301307424 0.1696544992077659 -0.27216798179266033
P 6.155931313079241 7.541480767047911 1.5090627891507837 -0.08468262505106061 0.6375407671747795 -0.1152782384497305
P 1.8658358972124358 3.19151001493137 6.304591747055295 -0.43761409934603346 0.47381111809188076 -1.4747930008437051
P 6.96980374941964 4.003465861918765 5.986672967867887 0.3840122548601773 -0.5027920787052631 -0.7942266220370193
P 2.3771945933159846 8.476450912744374 10.128727225092037 0.584008085363962 0.11919788521911086 -0.0021196174461640916
