# total energy = -340864.90619488317 ev
CRYSTAL
PRIMVEC
9.28370543411042 0.00000000000000 0.00000000000000
0.00000000000000 9.28370543411042 0.00000000000000
0.00000000000000 0.00000000000000 13.58764131414944
PRIMCOORD
 96 1
Ni 4.633265348504589 5.516665634037429 2.04226296873074 -0.7316881371831656 -0.4005609032474779 -1.051949117828311
Ni 4.343743707151157 8.714651536748288 12.487953314386768 -0.07202071331267597 -1.4043388606872007 0.17530192730153035
Ni 1.6563801772268532 3.345401863175526 2.3803235361937176 0.8434403647575087 0.9198275825689964 -1.78456413770112
Ni 3.9851698638998596 7.4919875155128945 6.8625875571493475 0.14336908314867566 -1.9868891305587137 -1.0483832548539234
Ni 3.573075458139663 9.236219398380982 5.314561220905386 -0.9667062493984062 0.8848333258819987 -1.1098130800246304
Ni 9.119059034311196 8.943216367445443 8.388384988818927 -1.2783260094287854 -0.8311602618385749 -0.4688000380305346
Ni 5.843498488005479 0.2289185398786976 10.257079798544225 -0.8394865223160832 -0.6055169059700153 -0.28821526506351014
Ni 0.2570212449560071 6.62721962702348 11.89456670660163 -0.6078609807221597 1.1375743092982988 -0.48843709553517173
Ni 0.4381621225804463 1.408560941214267 -0.28211510106382237 -0.05506968728063419 1.9821865828767216 1.1921323470498373
Ni 4.780226407397195 0.35149965962045937 2.2761473627093527 -1.1423961561669744 0.6947375281007455 -0.39216188055050527
Ni 8.1699115460571 5.481508241110942 7.739371345735078 -1.325932812673471 -0.2934788274552945 -0.7127136529631919
Ni 7.97306913723209 7.6276317373372695 6.30064393169923 -0.0074263743710581785 0.6384193131249909 0.9035257600851795
Ni 8.478009882220647 2.7291959071428815 1.486664756025606 -0.7660961823493904 0.7639945626253551 -0.2025805605118253
Ni 2.9968729893317967 4.336353877531542 3.9018681023497983 -0.1361154869100559 -0.00573818803535786 -0.44132831497282704
Ni 2.7086974852834453 6.866126505705878 11.147599757865109 0.9501578581214215 -0.08793147100566147 -1.6148075656978513
Ni 8.804072188627858 6.153592820862766 5.056844626403513 -2.0510700361119967 -0.846470152722768 -0.34364362123514364
Ni 7.5032950688755715 4.155897209006305 5.367430995655069 -0.21198308477264782 -0.8248350909514957 0.35086199336045376
Ni 8.946224288044382 8.576621402596976 2.2450042440636713 -1.8860260390930486 0.20918906696727843 -2.01095465614835
Ni 5.2687814120859775 3.3738192858710576 11.500036143375794 -0.37046742629620716 0.5222638142766296 -0.6776414918504072
Ni 4.607122433669366 7.700787337089243 3.5160744344192136 -1.2408290409245921 -0.6215371926576715 0.922840144143075
Ni 8.501079890518065 2.708558229700161 7.475512651639816 0.6064404462255492 -0.11501855703044063 -0.36512981613337764
Ni 2.755812290961271 6.858959485019516 13.336324322129745 2.429661377066919 1.047994504055937 0.5831981878681569
Ni 1.7756665098681104 4.700553646347521 12.283187262872886 -0.12266167539799519 0.27234641635205353 -1.2025748825393998
Ni 6.095968860499758 5.8212732969133185 3.7238019880042748 1.5567692827071964 -0.06347668039740681 0.7937645947989361
P 1.522750519507322 8.501590494323441 6.014664952384548 1.715186518438246 -1.236312641111477 1.959376526960742
P 4.60261983647651 7.697603026084811 1.180345177845877 -0.3996445620807956 -0.3115318283022635 0.3705296469927103
P 6.37181560357468 5.9114644963537275 5.984459487999647 1.186339137406828 1.7673056077309885 0.791206861374089
P 4.241298016381737 3.1258329431585303 1.8617106780383155 0.3537513990931069 0.28894494414068306 0.17689755392342438
P 7.547689748826579 4.804150516605423 2.155869530315112 -0.9271853084856483 0.39855107190630074 -1.2615541892870854
P 6.2073733271271285 2.2202167502390813 5.347647419123159 0.5558365080257524 1.2276593363118535 -1.948044132667058
P 4.249541946912163 7.882293064341887 9.204662226467667 -0.1665007840701326 0.8002054653282735 -1.2613988946561436
P 7.153744987421091 1.5434438991833561 13.680852847250994 1.813230909508193 1.0692449287942811 -0.46234194111001664
Ni 6.17160320963419 9.021264480023468 0.2857413164525433 0.9080349608094426 -1.3256412495749814 -0.03406994510051552
Ni 6.49184463266012 8.352122834931718 7.866103210229264 -0.9550097868970842 0.5302617448804416 1.33948638298819
Ni 6.146750729870735 4.341961235685119 0.24124730085212664 1.0965999237684663 0.0859280674223875 0.6412940635696245
Ni 3.770149959603482 2.305274060509079 3.794117702227805 0.678842968357676 -2.397166746873323 -0.3264722516621797
Ni 5.048423377097039 6.61207790326771 12.901642660760846 1.2927491268326512 -1.9483974022414188 2.075657238533058
Ni 7.366638923145997 2.0363808128928147 10.956422266168099 -0.25147754332284433 -0.9579519002445437 1.7667379081529768
Ni 1.100100540534182 6.485383173595733 7.087286652854533 -0.877577929871166 0.4628029399068352 -1.2436945353978452
Ni 2.1355493556022793 8.048090761800072 8.282088416986422 -0.6112442953720957 0.6568510374676171 1.7828029320356393
Ni 0.1996850794651203 0.934126452670504 10.315126167509861 0.2290816921261474 0.2952238351708593 0.5150055900523195
Ni 2.2661339579006627 9.17435278458058 2.989362471540001 2.612849134874429 0.5385640940985499 0.6014604765124545
Ni 2.557057438792489 6.998317189064805 2.493794555677026 0.01555928789083772 -1.849788654027569 -1.1551228597050236
Ni 5.825989419333878 1.4248631281640722 7.167303839380197 -0.22695410426018334 -2.131598015564735 0.6129787615646992
Ni 1.3337157070517784 3.1853786305708605 9.476700793525044 0.03933787836767418 -0.0410368633366519 0.699269354532828
Ni 4.698919714170319 2.169778377973539 9.113733900806407 -0.7144103239393245 0.308809544275094 0.6323167997716789
Ni 0.973851428728714 1.0629192997972967 6.8107241360815305 0.945211826970056 1.4144687500323512 -0.26024474799251307
Ni 5.028909028026144 4.2951435085849665 5.2645591828008005 0.046370102624107234 -1.234208450284281 0.6386152311858808
Ni 3.1555500846313818 5.8048968403190955 8.838638209510666 -0.7730373895539138 -0.21935469464637064 0.6965869226046584
Ni 7.604728835739793 5.121142642688055 11.756040822573826 -1.0481114892497756 -0.4104066856933061 -1.7051607587711277
Ni 1.559968895066416 5.9724398744211085 4.47367659331977 2.5196764700744865 0.8328024254276882 1.05335448281627
Ni 6.273593998831549 3.57680750777168 7.766397140968323 2.663466699920981 0.8445068583488101 0.5472665069685543
Ni 0.49023349865263466 8.37313186059653 4.273570961993132 -1.2165624550677434 0.743621655395958 1.7383747836292511
Ni 3.74352429207954 0.2822617836115484 7.64842909451549 0.547352124703825 1.5764487634139948 1.0783132096441366
Ni 2.9365289032419706 0.11654299765055826 10.535083146418943 0.6227677226306629 -0.07930593412017956 -3.065952073884681
Ni 2.857041816303342 1.6994937058116457 0.7435589004282787 -1.107920490987608 -0.6445051143077546 0.13689298850602874
P 1.388238909760324 9.18407282429382 1.068988986487378 0.34123475468333486 -0.1639178538343048 -1.485947731908944
P 3.9313429391077346 1.2904907740003584 11.987288644175592 -0.05614672239489685 3.090111444739704 -1.1157153044416785
P 9.32771031659871 3.4781495688675905 11.844251807619933 -0.7373476494617882 -1.1190083733706535 -1.5298400624165203
P 6.397921383587694 4.911405166850925 9.629547721737797 1.1160840006350068 -0.3233344773641464 1.5072223250170043
P 7.323367571566815 1.324023518455197 8.822142921485373 0.4921443691834299 -0.7673133425859431 0.26444233101362846
P 4.371882618680121 4.024282115391618 7.600029423989228 -2.9659914396286275 -2.023992206058598 0.41354240310881035
P 7.164625490328365 8.042399850296523 11.239262424635555 -0.8675614261754284 -0.851197125884792 0.6743003432923161
P 3.578051524315685 4.835677980660969 10.811537043836983 -0.007812039845251061 -0.441056292258363 0.7001077912737234
Ni 5.239732697412891 6.71431935251498 10.700946758186548 0.8495284799331175 -0.35037579775265465 -1.2132575590642267
Ni 7.8542562735739985 0.6956614783723959 6.095347780598311 0.1760820000006645 0.18903830305101638 -0.7778687495042862
Ni 8.388292151763405 9.208321863196376 12.411413803960988 -0.9928147735599998 -0.8050414532643361 0.20585306061551
Ni 8.54761910645165 2.088935870024277 3.8513898101503816 -2.0976730806825166 0.9288570397611163 3.6035152375225423
Ni 0.5672966100715632 4.048401182416445 5.7229105798457915 0.5865079689676803 -0.534109657871622 0.7613913206745533
Ni 6.382454730137595 3.261161518994129 3.294622778916215 -1.2103864081640185 0.18881256019345546 -0.23372227622195232
Ni 0.7110436501019701 1.3862243456554793 2.5967072168357257 1.6467882323695056 -0.6129995875003056 -1.636361123498911
Ni 7.468137675949084 6.574924513647482 0.13068950817112387 0.11106445747869904 0.39508188241077763 0.24367913032434804
Ni 5.024545686416572 2.0792622488388006 -0.024596249490213013 1.9399292168694076 -0.051959423786426644 0.9026307590747357
Ni 6.927287557884303 1.2242329674737296 2.3300764082625522 -0.10513446514750925 -1.6291098412531362 -0.17599535382412915
Ni 0.7334275925590746 6.686366115097062 0.6515666621107272 -3.222399330373553 1.7259301301079952 1.3008874396690693
Ni 6.669534756930776 7.743176736640958 2.3521159252436674 0.1341820173327689 0.03856243365423036 -0.2992558391483878
Ni 5.225231549340228 5.818646008242022 8.066303535352537 3.0385762529748894 2.3604213118231736 -0.5679998828611637
Ni 2.8656663787614103 4.971888508524034 6.585400246992676 -0.9141163911168321 0.14978372842576784 -1.323688753834301
Ni 8.766890947890973 4.493220650248431 0.05981212976168014 1.0490345152846774 0.9638117014594304 0.7880960836592492
Ni 1.8797832676369406 8.824700582365026 12.503742112419532 -1.3956156218815898 0.7419108433524384 0.7676576132992392
Ni 1.9449920154361617 2.0377269501978956 11.609199523482843 -0.038711557637584944 1.178957757341092 0.6919987890133437
Ni 0.9610770498887754 5.765636049538499 9.63793183622206 -1.1513168556953721 0.5662337920996764 0.41290296975259855
Ni 8.14287739548886 3.578784937054315 9.626490597499432 0.8382367090693822 1.899785040550354 0.07225956879635942
Ni 3.6680756170561533 2.4020381234805024 6.159427629802374 -0.7946773364211926 -0.2966222581802827 0.7726872053033467
Ni 3.743162227563001 4.101754638225403 13.51180863796118 0.13622630145630735 0.4684647661783029 -0.2576088530315628
Ni 9.232283107226815 4.488987280516592 3.460595938409338 -0.4721949226446964 -0.3505915133078865 -0.9445932195494506
Ni 5.791389048740527 8.422019854034842 5.478400984862594 0.9461433376453897 -0.13546139826582476 0.10446469277399427
Ni 7.6300733518975195 6.817897655361778 9.601299262483316 0.39713902205012247 -0.11935780783574285 0.12050451984567634
P 0.30363658727511994 6.701693512963877 2.968749860102272 -0.17186847613994916 -1.4176142376398684 -1.3202301058617392
P 2.159389911460537 5.266497620520117 0.8271967321193325 0.11123980671429876 -3.4571101957610204 2.4111000691249638
P 1.0799084809579709 8.161537643648945 10.383254640705273 -1.3628415127743627 -0.2544705645128972 -0.5044175301238281
P 2.5777043999407616 1.964274271868249 8.274452569169672 0.2638113822978489 -0.20761195228814566 -0.14215989333192292
P 0.7673567512409956 4.520654000155422 7.883726468479159 0.3762030432284037 -1.432103689505295 -0.27621798349231785
P 3.813783375699202 6.008117154858524 4.790010504678745 0.07790751111075615 2.6194643261981017 -0.2499109701666728
P 1.5612778975492876 2.3968670994878822 4.711786001695225 0.42962028250727946 -0.3152450154877926 -0.5533047427428341
P 7.423501619653718 -0.20773869403172396 4.01718657923801 0.22264210714839072 0.11296707381805061 0.0405583810383366
