# total energy = -340870.9011858839 ev
CRYSTAL
PRIMVEC
9.25100124850739 0.00000000000000 0.00000000000000

0.00000000000000 9.25100124850739 0.00000000000000

0.00000000000000 0.00000000000000 13.53977543272778

PRIMCOORD
 96 1
Ni 7.434918766911141 3.9887357468215816 1.7489730365005531 -0.23220121159173557 0.1720739072825359 0.15250884066641476
Ni 2.1941802514063733 9.61650840549044 4.106289145980231 0.11799409471899679 -0.17356411867481722 0.32368543294566193
Ni 6.816655845192508 6.295019632495767 1.6311236052989455 -0.10928191165697952 0.4910529358914639 1.134927101483439
Ni 3.667383713188888 7.116490049702663 3.5383627727661375 1.6314462026957965 -0.6078368123524436 1.6196720928790043
Ni 2.126194642540707 0.14830465272108814 6.662070687660031 -1.404918901560387 -0.7841455836519334 -0.6988062988534803
Ni 6.355733954306268 2.0413167052237258 3.7794928980575055 -2.004481132608864 -0.39904009572757726 -0.21431224712645672
Ni 8.471798750376992 1.0230774894629135 7.591278266501102 -1.393692436716948 -0.4061288842535587 -2.6848994158734603
Ni 8.325521917150168 3.3302402202646317 3.905223257302746 0.7338386078672652 1.5631263352734757 0.5699606061319603
Ni 1.770715664955714 6.018608963384697 2.981187913312239 0.026369234022148132 -0.8349395263753492 -0.759793380059814
Ni 7.764013888667466 0.5231774295203935 12.964348655809083 -0.9033822925287796 -0.047425540471815096 0.7700279133036287
Ni 9.029967167375068 5.663203993810444 5.6207400474483284 0.1118895244831557 1.0380322506369026 -1.796442634306261
Ni 6.683311911842431 7.786900865988689 11.911847431476373 0.15873399564052018 -0.17166767298305274 0.7654652336336107
Ni 3.4561093445300095 5.630427696054142 5.4918550967453115 3.0695171655281204 -0.7223365207649366 1.6694090550928153
Ni 7.773366651024684 4.383411217094536 12.557721816901818 -0.30991820395824043 0.25752220685502747 -0.08039325364708735
Ni 4.96735292383268 6.8251297624221925 13.53572750272418 0.06330750180939419 -0.2376429514325972 -1.2103020759803285
Ni 4.972709253609958 3.3524426234865126 1.9830085688623962 0.15163312292968079 -1.2716498829601905 1.3731827467993707
Ni 6.3933485257646705 0.6363153257382913 9.168580471089806 0.2959848817065999 -0.6953522788666089 -1.1748349934219702
Ni -0.03287435837053115 3.7364331872089367 6.808367873089807 0.6662875002901686 -1.5866712124729514 -1.3860161511186129
Ni 7.5845352116225895 7.4949300126196166 5.824499827716735 0.3697981681433244 -0.08208426819626508 -0.5814423815193147
Ni 5.849935455907801 4.490796840677699 3.8642653739591823 1.3770296313492865 1.5640953840549643 -1.1480232725457649
Ni 6.163220616369879 5.762578250231043 10.84538737121804 -0.030024057165916034 -2.309755667147506 -0.31308657438389303
Ni 2.536985357152209 3.3999927703867066 11.896926491411135 0.4601019960359044 0.6682680210553071 1.913767727982691
Ni 8.243151001196992 -0.10685276590583717 10.733589019994527 -0.1153826252380787 0.2418307642616996 -1.7102818820477772
Ni 3.3880589786549455 4.335565038151383 7.697402978601287 -0.17078449904715104 -0.4627700297863707 0.11539676630546579
P 8.06421813323132 6.562688105338222 13.413611509703435 -1.7732541120049397 0.3092031801690869 -2.937706733751321
P 1.6132913751112383 5.468599929570661 6.7553050544896465 0.22870168307890934 -0.42150536670962896 0.6730790692907054
P 4.965613735580299 4.388295745803349 13.676527743156274 0.413615679548907 -0.14273196378530903 -1.397634966304464
P 1.8613754781117262 4.919284720857308 10.575783588894744 -0.09180920879351286 1.2812802069611031 -0.4034505660904471
P 1.3604152534153613 2.7380096163236525 0.1619508048013365 1.8555278705041913 -0.05006169254308153 -0.6248644572586917
P 5.405443343405753 5.182383199036592 7.895828631495637 -0.9337485635254629 -0.032297940801757276 -0.19609341012558487
P 9.308265040759998 8.666782105671816 5.752414175056093 1.6431161828345575 0.4805373810721208 0.009777905322370255
P 4.1972255640763825 8.989734562536754 7.666328865091997 1.2920330746022328 -0.9164272986381958 0.4014839292823795
Ni 4.695354982361957 3.3620636648826605 5.562234864758405 -0.5191113846905769 0.2639437941106551 -0.2016415936373237
Ni 8.296640290959038 0.9376907470720981 4.565639291738389 0.7674287851178848 0.5160797969531048 2.3071213148484526
Ni 0.18487016062725695 0.6870348656984089 2.5771069499744157 0.8060878922509794 1.43216976685654 -0.7160622577204506
Ni 4.892234792931983 8.138161386961524 2.09942316975579 1.085382972006724 -0.9105957795580835 -0.01722330585682195
Ni 2.6713098966445865 2.517123457269969 2.83169543201878 -1.3601755359064251 2.1281972174133026 0.7221783979205175
Ni 1.0011896202866764 0.057234095105471096 8.6371039682651 0.22548394747256006 -0.44698114238323017 2.780054144100438
Ni 7.159349938922235 3.639371681123949 7.858607227594289 0.1440285711095455 -0.1440743367458164 -1.0812697211692992
Ni 4.982802096074571 3.7384499055015907 11.582032581815607 0.2779987295418244 -0.6097808234526918 0.44025770761646765
Ni 1.121878183800282 5.868483713599414 12.60496205525704 0.8891571500683332 -1.1745372596758932 -1.8529246285533896
Ni 5.658763513166067 1.877250196415371 6.927910237537084 -0.3683305824588624 -0.9891200983172321 1.6114137095249537
Ni 6.088083983466498 0.0033220345820738784 5.676090638680477 -0.4914679119416955 0.4912956480298894 -0.939499092855995
Ni 4.320189873920231 5.520442541093752 1.8221022021126223 -0.717812664752654 0.9575438661728478 0.9097378024331623
Ni 2.1969370498064236 8.228580674082632 2.070137274805995 -1.6915670792470932 -0.38316996146454013 0.5241625739612392
Ni 0.4837524370992733 4.718473234716741 8.825903029162497 0.2620694599060777 0.9450110238131596 0.7796039870278381
Ni 1.6741999679499306 4.39143183525844 4.764863306048592 -0.7385406413286247 -1.2770198890228524 -1.0747884843203297
Ni -0.008478542730355637 1.9040688493071343 11.731227180865838 1.0420807096746636 0.7732117103482491 1.299151430814569
Ni 2.886099645813596 1.0151493813124337 12.12817284686823 0.1871734819281357 -0.7883616786158101 -1.46244193547752
Ni 2.405389863055855 2.444540100737104 5.991851367101793 0.2255883342609083 -0.4196508299993934 -0.004632613676004925
Ni 5.653166657353886 2.906377840756247 9.322691052253417 0.49114626693621866 1.1533896790640008 0.18493276552307505
Ni 3.5980844621325936 8.831671953599647 9.800806854234734 -0.8761517389476007 -0.5259767443518426 0.7477773294355444
Ni 2.7909160930011256 7.741200919356984 12.305205559158162 -0.4177147893189451 0.45808393716461104 0.6831053431784557
Ni 5.461578419551741 -0.0365904856097934 0.12563969943208508 0.590484694227241 1.0436624523394864 -0.19254760175585547
Ni 5.496352933598011 7.179554125854146 6.746816335657814 -0.30740726461092865 -1.1146053592069514 1.3792657197686569
Ni 9.342401235713641 7.837291070301015 3.5674192428826395 -0.32614032224405765 0.06597990643523477 0.9267129968349201
P 8.782697152492718 5.784789904454266 3.2887975844507236 -0.14729258657279795 -1.8681581576736923 -0.183703006881032
P 3.978818673382475 2.1998881192346653 10.158094402582176 -2.4280094432857924 -0.97478774085496 2.5433429604534905
P 3.4456279600090136 -0.18121786529725759 0.7528742422526272 -0.10975525174897226 1.4639984813313627 -1.9984413541726875
P 3.7409291738613675 4.396408873980678 3.772967241710541 -0.7635872998846075 -0.6468563881487505 -1.0924216240210607
P 1.1153562278538547 2.169951878890496 7.786223692690422 -0.20504033490622756 0.03580261152090609 0.5945789189012728
P 4.210981803072606 0.9642688739289574 4.897038837929118 0.008604453839559377 1.0989920781497269 -0.581458836579547
P 2.4266209111367782 5.736878968501717 0.8019119501686874 -0.7160738276846765 0.6822036572997929 -0.14527375637055626
P 0.9568588218536549 2.284766056551646 4.246912692286682 0.22633652528084244 -0.36287444444029765 -0.33847004745400416
Ni 0.8342247727577319 3.8929046239151397 2.012904104800658 -0.15105642449060436 -0.9897829287122115 0.4301905531884527
Ni 5.665960792210494 7.53824320090497 9.374318115445227 0.025962999722664963 0.43474320555614165 -0.7733562063459133
Ni 8.458662328470712 6.234360816693321 10.810021718185986 0.0027346253223436774 -0.722703160075736 -0.4709379103091438
Ni 5.3268005809935834 0.5624053756129195 11.287745277710385 -0.6853740846079744 0.1067663443239774 0.4038184909528271
Ni 3.7489960470319836 8.112221579197293 5.700313460595549 1.6865886521958953 1.46325748940028 -0.8365896603842625
Ni 8.538535474061428 8.216202834286435 1.3106568924947244 -0.3107586975816648 -0.19369559931736965 -0.9929019339571674
Ni 8.697708203159626 2.282074015160993 0.7249778477044686 -0.13779595993627236 0.12024535264701873 -0.5049407496171497
Ni 7.372085965793221 5.964842143582375 8.213796648837263 0.9998711661861491 1.453388052805368 0.5651022495983945
Ni 4.250317060780705 1.1169751530887835 2.5141464850379682 1.7951380565622244 -1.8062889309727215 0.14304820947414718
Ni 8.354089009295656 2.0574134475595893 9.559000480745233 0.5648101722792724 1.2203769437178271 -0.49055311343691005
Ni 2.679367518813861 7.0696337279031525 7.952627929538013 0.930399958768204 0.548097744620598 -0.9485118378775665
Ni 3.708865203208435 5.936700597498642 9.664664492978565 0.39090718220779774 -0.7983897522757734 0.8649900659038264
Ni 0.4091680889760368 7.237123107208213 7.460754963460337 -1.2971871079993467 0.2660631544465031 0.2810246608523418
Ni 9.475523145031499 5.886301142184973 1.1347130230627975 -0.21058131932911472 0.2988999984708659 2.1294809692217327
Ni 1.9553656517510207 7.117748185885236 5.0485489626153655 -4.466380800884198 1.2535963678925894 0.8711609706012287
Ni 6.1248012077946825 2.474698365113492 13.64606327063545 0.9177455032289872 -0.42244896156982087 -1.0259894605397555
Ni 6.997919965496478 8.905624458331195 3.1221500462678247 -0.68758857576079 -1.1695385209097213 -0.19536295971746354
Ni 1.0601370008407693 0.34863786209225067 0.19519242792516292 0.6312359080026742 0.5514468635984889 0.089080239898124
Ni 6.7852856996402595 5.2623581056420745 5.844850180469856 -1.2105072500125993 -1.118055779649397 0.5913277589538268
Ni 1.5487933937516756 2.7404703826807446 10.009725917951824 0.0059837283872606626 -0.7338974861296587 -2.453620458985678
Ni 3.5520884834579305 2.269807187380904 0.3166321727477756 0.18493430818497184 0.30963795371366026 1.2070691708653276
Ni 3.098844923685924 1.455848583264078 8.376043485681558 0.7012362484512117 1.6311461549568749 -0.551362788525115
Ni 1.3078325617848743 7.154280390186572 10.042965690875382 0.676347455629332 -0.13569948241855984 0.14248796609530298
Ni 0.1765146562147559 7.935277676520247 12.215057326376389 0.13878943419779322 -0.18279746434762711 1.4626802767405713
P 7.142226335437359 1.3531624683628805 1.791854203023213 -0.8531372803302983 -0.36421758873175336 -0.018181813115349332
P 7.862287275928316 8.053588732688844 8.933868690529831 0.41549618440107156 -0.2585637607456644 -0.692939041439426
P 6.127345233163857 6.963385977485111 4.134952448539679 -0.9093158844043951 -0.044523536333671704 0.1449359134151633
P 1.2550463481248533 9.413541436037084 10.995787375743193 0.27974862235339565 -0.6340324969112049 -0.524458250824787
P 7.004562184460357 1.8789431296610395 11.160701276274516 -0.22521629563347018 0.006234410945486038 1.7190418876285942
P 7.174854617172182 2.797391793940841 5.750816527124253 0.3604066996260954 0.39528294267799025 -0.2031423465525663
P 4.56208505702262 7.121097048371204 11.297873273980098 0.379068794811973 0.930939376211442 0.058149354647222436
P 7.815310691111353 4.133893208885969 9.891956970461896 -0.18142552370076498 2.000510320886574 0.8547023108245733
