# total energy = -340864.53751668683 ev
CRYSTAL
PRIMVEC
9.31305325562020 0.00000000000000 0.00000000000000
0.00000000000000 9.31305325562020 0.00000000000000
0.00000000000000 0.00000000000000 13.63059481745018
PRIMCOORD
 96 1
Ni 8.513164365550393 2.276538600346491 8.128482184355642 -0.06465424564527573 1.2532850072997577 0.08165695085085936
Ni 8.113354992057372 7.575395787527886 9.589532595078493 -1.3032952777796134 0.8837632327462716 -1.0024718370337897
Ni 2.982607728028144 4.040039726502824 13.583146751423788 -0.9298993649827018 0.37212938737966234 0.7596159739416852
Ni 6.20415114872661 3.005489899718625 11.588009503688301 -0.9126701455886089 0.37579526626702375 -0.9218289292697415
Ni 8.612665025843881 2.0818585364401763 1.1330186007841152 1.0271338585568441 0.09207146131596401 0.8080987520334212
Ni 6.6845929367479915 2.015177075592051 0.06416879909717235 -0.6751251531864567 0.4409920146793309 0.44658159295196637
Ni 7.638761801439988 0.09060855710664556 11.606915001666192 -0.5532828883659633 0.02599102474712298 1.1282275779760762
Ni 1.8887151263103894 2.4717867604974617 6.141086877737899 -1.7746731038396533 0.5415972244979189 0.13155023613687666
Ni 6.817769597380421 2.8271169919498886 4.7668238783973935 -0.533369694381804 -1.1435238420135143 0.5732238502642644
Ni 7.839327714963065 4.530278846481221 13.045406403644293 -0.17624860748551582 -0.09701620691574905 1.537529717751294
Ni 3.6908281709969355 3.7799075247696057 2.3312676887291857 0.05531188519842733 0.11322624101670824 -1.1368268896093132
Ni 3.4682275736237655 1.0241471463697638 10.57772297438282 2.0862902927668716 -0.10413044936302711 0.7089593281270822
Ni 3.620877828478741 6.293528520201394 3.358933306594539 0.7578323996787013 -1.0034591406477236 0.3792629131006501
Ni 6.352629155751981 5.522007254692839 11.615433651420073 -2.350988705655364 0.6026820076243814 0.24223674145086665
Ni 3.2054411517310903 0.5854259740337772 2.1337601818740595 0.4229513551275361 -0.47732247367924896 0.6813893889286137
Ni -0.180067883449512 3.397876769818355 10.108026587133304 1.2115002100534875 -1.0133954259248288 1.4824376618731565
Ni 4.963689715887654 7.680093131501996 12.204275653364338 -0.24238535121358898 -0.8738184628287339 0.4247976643076555
Ni 4.730909951376635 8.747341088040073 3.9720507129866705 -0.17499879423881476 1.2160844869900604 0.35331559710726895
Ni 6.041871196872059 4.163828829518645 7.669349593340768 0.7185649695376464 1.767047726083912 -0.029008728527524237
Ni 8.561899572899309 7.720260329915121 5.675724785443512 -2.355303273870318 -0.32825325482200246 -0.7427305110402562
Ni 1.2882280826559993 6.653729478472756 5.024877406658362 0.46261087850068716 -0.6091655584661959 0.21162981519828714
Ni 4.255245759642277 2.203319376158228 0.7318606971890266 0.5819139218390945 -1.0532374976224312 -0.5998113709448057
Ni 2.910254617786651 6.081805568955405 11.31512493822054 0.025343106750478937 -0.6893567234048062 -0.14521924898353702
Ni 5.501863120640535 0.6466015578353368 12.324756759886688 -1.9228357517222303 0.3397085478467956 -0.6438340563826589
P 5.188115671686275 7.460519276415927 2.424282738780406 0.1973707341761117 -0.6100762432059236 -2.071197917210123
P 6.423846073504163 8.257874951476536 5.356428619398008 -0.49602596362602325 0.6242324801016474 0.6862937682087664
P 5.492633884928176 2.199128502222243 3.154828432858852 -1.1587172619245012 0.20932482121419432 -0.12881149704947492
P 7.567433127049514 6.1811944726106 7.882340982431382 -0.12467099251854015 0.41467343138946006 -0.03615510976431838
P 8.225474839424772 2.4771790182950966 12.00391928353806 0.11162727196070453 -1.9663925532672586 -0.795591620705346
P 0.2609461625821182 4.24258000730241 5.038181103141818 0.2695937933075808 -0.9015542381811054 -0.3377452534728377
P 3.1525150704461886 0.9138861844193034 12.882793044485501 0.35957237665025815 0.07373229668714398 0.08278720780056065
P 1.4434673662980946 0.9404693634479192 4.258089034781513 1.1099624611183014 1.618868366030786 -2.394025115920548
Ni 4.391300153710749 7.590622629495301 6.184691524083849 0.09031231253301221 1.0969071705962399 -0.6075154244572828
Ni 6.579271618210079 8.899246298639763 7.455539586874657 1.8085023936842726 -1.2301895589328748 -0.8590731861987592
Ni 5.5197069305546425 4.303682949289079 0.24355962357969288 0.3348568761814491 -0.7686096927998634 0.29235242716033516
Ni 2.303993481153792 8.2618795643487 11.630536629780046 0.39942293298829273 1.5781696027598435 1.691760940425454
Ni 4.832850631606186 4.266132718822648 4.223248902793687 0.9406355204532832 -0.044729481696890706 1.0175428724342992
Ni 9.355148191502652 0.8663188339405483 10.149926944745289 0.03596047725500903 0.31815344738383916 -1.0451025272201226
Ni 2.77818621048396 3.529749603004033 11.315096999060966 1.260659445386958 1.180859088128863 -1.8401902117058568
Ni 5.898692317112411 5.907204447729057 5.920516525960385 1.0393949353123841 -0.5142301453388757 -0.029609338226000616
Ni 2.7024990272000613 8.29164408234739 7.499580084109951 -0.8915932703136517 -0.31736206183079535 -0.24165078704040963
Ni 4.603628453414158 0.36108569832451404 8.091502844049824 -1.3588308489530727 1.0850759822892668 0.21875588472010715
Ni 0.49355177299846403 5.525443771320346 9.342532729650017 0.4894385402164926 0.7628583921383829 -0.6009845653173005
Ni 3.7453281582711293 8.074864143218644 9.658694121991404 0.9765540887267634 -0.6130674646237635 0.5691136847506327
Ni 6.317360623317366 2.0423898170163834 7.508849365951032 -0.7348310536875216 -2.064066705481981 -2.2463592051687313
Ni 8.288235504879452 5.989010306959494 1.5548552076846756 0.14136902199951135 -1.0179357369973436 0.5009339424506019
Ni 0.94246235683081 9.33242434171642 5.968455467261464 0.7471728630823261 -0.8967172218037782 2.5260507490319464
Ni 7.595260529984458 4.886689392103813 4.557852934369367 0.08057914440564833 1.1665971788932104 -1.0616637740129133
Ni 1.6219799698646966 1.7946812282400648 11.573492316374049 -1.3737005669760536 -0.8729057212064774 0.3640412110548892
Ni 1.7072316587758334 2.0653930583983486 0.9495300328975199 2.0182920703500273 -0.6700983893958267 1.1660317933080435
Ni 9.705225860955311 0.6494532147224452 13.132055981839413 -0.9459803297049642 -0.4920898617964106 -0.22013965244151118
Ni 3.500338981026606 2.033952190825266 4.15684031440406 -0.5219126015847978 -1.100422639948666 -0.4735172410005458
Ni 0.8015670377136145 5.420643983761135 13.513439479593881 0.5123524687001886 0.4537035487087283 -1.2510815718905357
Ni 8.12465172557815 1.1578919032468489 6.016681250600827 -0.2926293349708057 -0.507552476208384 -0.7015360390798175
Ni 0.3950578537549319 3.2089242336245536 13.231422534166947 1.6956147669539055 0.5696322762582642 -1.7522037190925437
Ni 1.8055029960480988 4.877115573423384 6.535625063124769 -0.8945356407714272 -0.15108984883170107 1.6200665001039452
P 6.020451174532577 2.790805397557872 9.414583165662798 -0.8047380630913044 1.718363116394015 0.574496546329101
P 4.468132842537151 4.5895284908828655 12.058373636851618 0.10897954992521232 0.5080273589622735 -0.2255047734081665
P 0.1681602136393984 8.394143545768403 11.400942860765694 0.5711952498700098 -1.1763072070921223 0.2633259580209982
P 1.1975375706812723 2.9550038383697856 8.404488485253054 0.8325689692606436 0.646199728401358 -0.2583282476960906
P 5.955213236929069 8.216320108137943 10.366530867168724 -0.23336566421348195 0.5026164723593474 -0.18128951234353294
P 8.774935664645241 9.540664211068945 7.978245872887794 0.35097100813449233 -2.0002436974887488 -0.1744452357281899
P 1.5056692485613112 3.9363761314329238 2.0899515796632238 0.09718512839344552 -0.08230615439908406 -0.5065075798836374
P 2.5067852143895366 7.445655643522966 13.923243621771569 -0.6643182923789398 0.13056910317052997 -1.0848808355593251
Ni 7.109575493016499 7.370462052058194 3.556208918425208 -0.15386021248798662 -0.561796068043297 -0.5213628997289149
Ni 2.279164881346375 4.318211312267161 4.249556415447847 -0.05277446348855427 -0.11442180398670616 -0.6503669724051702
Ni 8.331410819473296 6.368554476708726 11.565846299704173 3.0898844163305625 0.1831515052529362 -0.7292851841686279
Ni 1.195162742117547 8.782590994368308 1.5602940307482658 1.2003321092518102 -0.39486770951744254 0.19720824045631843
Ni 9.269104893070272 8.858706578098996 3.6792110684463837 -0.7226928756630908 -0.29156464115171726 -0.32364969461172005
Ni 4.359961729722769 2.906119622169812 6.128219963449104 0.48424542605132737 0.047283872687628244 1.3764531900205264
Ni 6.928566991194688 0.5279364966852468 3.3390462128103096 0.4735671204018747 0.3501276862975905 -0.1105468944123322
Ni 9.147671992511794 7.602543337579881 13.562918799892765 2.794335079499484 2.1280871741979994 0.26245229716679314
Ni 3.3518423478948516 2.7452459413471137 8.826259900781276 1.4461735373347995 1.4001759875587627 -0.13059584264340732
Ni 2.148325797064907 0.9140947968107835 8.783105074904455 -1.552203774823701 -0.8939571425601378 -0.9116974972626943
Ni 0.5469742400184503 7.094348651049084 7.3339278756949104 0.18016362626920582 -0.8078174733475765 1.0816859827711114
Ni 1.66370244816073 6.182339978153102 1.896929239224921 -0.8961392378131212 0.14549024325673654 1.4394765849305984
Ni 6.054583514477881 5.292468432692315 2.3835409249853927 -0.06989132567449899 0.45260028834222055 0.4903808495251039
Ni 8.492489387466197 4.530753812193966 6.869029573449438 0.07039551900442716 -0.2754047435624031 0.6330577917027613
Ni 3.8828633277969837 4.77436465756621 7.705484239722154 -1.2135568354722004 1.2357660245793878 -0.4932579139625828
Ni 4.78083722953401 5.245996297268831 9.825313956632996 -0.8792969694448017 -1.7578640027021144 1.615994901137733
Ni 4.023853640056728 6.050094622839781 0.9474392524561227 0.3846943685288665 0.7054762546744883 0.10926648503801181
Ni 2.3765980438314434 8.104963931132211 3.7457695969923868 -0.46039972978198135 2.469315244013115 -0.4738396573369711
Ni 1.1980497886067816 8.023074254423053 9.402956750059056 0.03792917094560565 0.0981454354241858 0.6983368154162296
Ni 6.910350659152937 0.8923078401755734 9.57483845975361 -0.5764374721055557 -1.1711328619800345 -0.15663828945375605
Ni 5.385189190262698 6.674059873588881 8.303390636337296 1.3812485545266406 1.7005821382615098 -0.8603481962564409
Ni 5.362092818348821 9.363716200438443 1.0666593715764012 0.37257727355035836 -0.7531707325369738 0.522912503604222
Ni 7.415704864460456 4.800245632384218 9.596170008087775 -0.998903402956241 0.48108399760421017 -0.16210831142939178
Ni 9.08696019875915 2.2909552066862813 3.397262108307744 0.39741695830185747 0.4381144360212197 1.1049395539824132
P 3.64918019712643 5.610891034348497 5.546125268541776 0.2990187834369173 0.02994872384329036 0.03343462550936177
P 8.465295272148246 9.418011300542434 1.6042665426952643 -0.7530522046812386 -1.5969381416165982 0.32043298744663523
P 3.2248216154217255 0.9240551071986426 6.333605381998565 1.6299446784496057 -1.5632577186450176 0.820791259899425
P 1.0305172747524618 4.8380100630740435 11.323289691953159 -0.3663158660216788 0.1649892325216126 1.2077551411887586
P 7.341656778538186 6.88284921307968 13.419824668917155 -4.091738160164378 -1.3716495979842958 -0.4750496184846722
P 7.473436481191953 3.7542873154409473 1.6610649914970168 -0.8714497054862411 1.5025362323952445 -0.2743385070814179
P 2.6565577358084687 6.315144116657889 8.87159491241013 -0.034412416041598795 -0.23602752731636126 -0.3361205733852211
P 9.036651085420942 6.322715628902236 3.6166189692544606 -0.012818491920906956 0.964684590982687 -0.4825999200281043
