# total energy = -340868.79409618425 ev
CRYSTAL
PRIMVEC
9.19184255616022 0.00000000000000 0.00000000000000
0.00000000000000 9.19184255616022 0.00000000000000
0.00000000000000 0.00000000000000 13.45319070662719
PRIMCOORD
 96 1
Ni 8.720824920104093 7.540987591610284 7.220408296463044 -1.321413070426247 1.430132424711537 1.2145505668440373
Ni 5.862649068509209 0.8493722067317752 1.3357796941543967 0.17367159078695898 1.1775104833716044 0.21144495288099066
Ni 2.6386746525606894 8.65238246080725 9.864767184429208 -0.45284068648780074 0.9779440270957546 -0.5078201280474739
Ni 0.6118448853598095 1.4263901200220428 9.936243870937156 1.625375056801052 0.4931116181927056 -0.5431200889003485
Ni 6.039334665152228 7.950153268905432 9.752150568418857 -0.6372548605032444 0.7484496729122208 0.6118973555750623
Ni 7.710558702153954 4.087566403036488 12.993966350670785 1.6486728509867281 0.011648897092838005 0.5664963017324437
Ni 7.072304734091248 7.9764327466289995 12.111288421804149 -1.1220875265166097 -0.1313160086388835 -1.4350756276494252
Ni 4.078438903428408 6.537367075791707 8.649392354440172 0.2727102274493755 -0.5257944531377075 0.9312659063129252
Ni 1.176197358861584 4.06823595824717 0.8608427069945377 0.8983053922265045 -2.46998501638663 -0.6254614674127422
Ni 2.0823108093805485 6.591332383142199 10.61151338876999 -1.0884263868187383 -1.9793614547231007 -2.158821627167379
Ni 2.667141788800593 8.312697921012079 12.205972672270285 -0.12519266934996504 0.354029592455158 1.2287206876968322
Ni 1.3658066860675042 9.082082714259954 6.667482202380005 -0.12824302614051464 -0.01005969822884719 0.8548036122891279
Ni 1.6402659114427984 2.369997096121429 7.406048586075038 -1.6214726364228529 -0.14631248204771577 -0.6817945947868322
Ni 0.24712176657933121 5.750453438885617 8.667568303810786 -0.9416881300875137 -0.4193021884107231 0.9461266254748414
Ni 0.9581852383132994 1.2629499684296213 13.072021638860006 -0.11427216578271933 0.815266473426454 -0.432068744047772
Ni 6.532127725563504 3.741613026652485 3.746081181294467 0.067072111058149 1.2923038117651162 -0.19815080687524583
Ni 5.195872813151567 3.5628408817606902 6.1466144974038155 -1.5082057719761963 1.6319763641676537 0.5421019320484792
Ni 0.5881777292763403 6.192084703910614 0.2670570346055189 0.5945208119698278 -0.8167214607054257 1.380001569493417
Ni 4.276118668354263 4.699522509690617 0.9021830186635617 0.9595596110512958 -2.101772961783503 0.2690957706252398
Ni 5.202849421613332 7.247234688815694 2.290270730964688 1.8827111157872027 -1.7246006126632942 -0.7326327604846222
Ni 4.764986812015638 8.10231502974346 13.439508744681923 -0.227743175820382 -0.6981339553768041 0.2590484136915667
Ni 5.223319654873347 6.792284444000054 5.157267074627964 1.390497069708102 -0.4208523065066623 -0.4291659685786802
Ni 6.948711219760688 5.075781390815647 7.866201413748858 1.1621075185529728 -2.290232252402598 2.20658012549858
Ni 2.440663981304633 5.772844767229307 4.632942317685412 0.7225802613446266 2.0349780156461406 -2.3929645358665175
P 4.1369449809766765 4.535613574130409 9.99881458124141 0.1117296018665237 0.3551955877388012 1.2228475167455068
P 2.0718504926091534 7.3191332808946505 8.244155270631925 -1.4466134530856958 1.7177522222828934 0.11324526718010175
P 5.5037903452473165 8.844234597584542 6.6437635719785035 -1.5218153923398305 0.1795110802868715 -2.2222301733310115
P 6.757088879046037 5.910262812688318 3.5985263719202574 -0.5873898573520013 -0.07554158198174087 0.14514263010933068
P 2.6674635032882894 7.628990291759085 0.8401785258576544 -0.011971313429263254 1.9036640638897862 0.026356892726973963
P 5.033664368454898 9.151444357807359 3.274560801993947 2.047641727156738 3.357002237293825 -0.6141257306849489
P 3.7510346652207454 2.764593703045171 4.664436327662416 0.08291756273083785 -1.6562300945086963 -0.15713759768767777
P 2.781543460625534 1.6193177023724916 8.980179190689903 1.0804207429054424 -0.725588452043331 0.900517826496791
Ni 2.7792730755266457 4.059457748654304 5.85262260670408 -0.9435046144709621 -1.5657735430883357 0.6398786712793367
Ni 2.424504722179753 3.721859757107909 3.063843327658122 -0.7224020838955494 -0.2629588044895665 0.7792152362298516
Ni 7.8959949328623225 2.8113893732412807 1.8950159881175435 -0.04249005084341069 -0.7725046569788954 0.08661866573150889
Ni 7.305198447656132 2.3110681938179023 10.179047309907347 -1.6285020324658082 -0.9473784956040716 0.13743600549369234
Ni 2.0616475474279157 5.346168629960952 7.585272050433858 0.46931554421437244 -0.8417956300652342 -0.3424202903510038
Ni 7.332011052245023 3.069873176341808 6.226392336878589 2.4834383136780582 -0.32655144163954725 -0.04786185667828531
Ni 2.254758966628477 0.6816900198230104 4.404171145484299 2.0240063471259853 0.65707266656012 -1.2990778972641563
Ni 0.40888440691447697 8.641499319280596 2.402282523738168 0.8704068660440235 0.6212777683486977 -1.3969399971199685
Ni 4.8442204944140785 2.2079541045898625 10.06057824777367 -0.5545910656544255 -0.20964620910935508 -1.4003212548873754
Ni 2.764510976462621 1.4274287982251777 11.260670720412863 -0.3415101198319086 0.4280909903469466 0.3139016140860207
Ni 1.976889567683598 3.6175231528266214 10.380589487054063 0.0666188255708143 0.4524259675478853 -0.7578768797633916
Ni 0.6255747405104535 2.4058085145233234 5.068745035377595 1.4689555682263218 1.2257762603565276 1.6710414484899156
Ni 8.048276187652922 9.16413829230762 10.094386763693588 -0.21764259705127034 -1.3232694069086952 -0.456720224047865
Ni 0.10116082269559602 6.62286959477898 11.432992030234214 -2.5017553668196912 -0.13519143243388973 -0.49508648253088927
Ni 8.888125645548875 4.1558066417982085 4.020660819806585 0.05559907742154296 1.3747480344039613 -0.46124125184667014
Ni 3.2442791960434336 0.7206340181508193 1.8185619188928022 -0.054458278948880404 -0.6472569660212788 -0.06294626181523354
Ni 4.431506765911761 1.0933145149884125 12.928959802102542 -0.2578340816684914 1.5635130291889332 -0.30194521305509286
Ni 2.902498916156982 5.896521008142417 1.9314211995453001 -2.469119068841909 1.6785315862193737 0.9806989641330724
Ni 3.406138350724888 1.212541904128804 6.249975847195257 1.7729021279821597 0.6372854566308637 1.4054194953458892
Ni 5.818610951064786 1.7657529453295167 4.657656424630271 -1.5709106072045849 -2.2797845747067123 0.12202147071083502
Ni 0.1195674873130992 0.3595334045018056 4.45834694602817 -1.4443778788869577 -2.1298265254866093 0.2464731481297175
Ni 6.276640463119809 7.064050459521202 7.488153800072233 -0.5335303883293844 1.5654570402891814 0.0445729015143684
Ni 8.15552660600849 7.462820162942495 4.411543003173806 0.6339743899797597 -0.25945901886642414 1.2648349169208863
Ni 2.8159393352815623 5.917846082755455 12.789503925160034 0.10605132053482381 0.7959508038169775 1.052079215648272
P 0.2001008962418344 4.060974402667731 6.738044300558644 0.2861645531820685 0.5523660329786486 -0.2838004238252661
P 7.898954706149132 1.8974077055375056 4.214723594706478 -0.3385680064844492 1.2627158136953542 -1.2488097451372235
P 3.9894526761315054 5.772559820111632 6.693217523027238 1.4294281995556608 -1.2472400866572584 -1.7910813699943475
P 0.9667704192135481 5.2397638611159 2.6158917517262608 -1.061381209775488 0.9920596405615301 0.678555004803612
P 7.646408833307234 6.316395181956612 13.426405773190163 0.2709940160892172 -0.9450218224464372 -0.8219102039952166
P 7.885562191618444 6.846801261900884 9.488925612953933 -0.8334953377296549 0.25783459588912366 0.30644155826354963
P 5.6311249394776635 0.4637119090919965 11.196202813815448 0.6869833380766234 -0.452177341872189 -0.5846012388632706
P 8.346128652205019 0.8691024966700874 0.7947873691964039 0.20290091996572154 -0.8838295672078328 2.857710972652969
Ni 6.389966689371591 0.9101633763269406 8.093129621527593 1.8158886588460146 1.4268000179041942 1.244070173569709
Ni 8.736892260803916 2.9372808481982458 8.57295115379494 -0.055477464242014135 1.0555219227812338 -1.9094762996961891
Ni 5.927148227371142 3.6934110045530164 11.706898825874921 0.9801914283690344 -0.5874867879411818 -1.0812944037596477
Ni 7.354466723486253 0.454899689681859 5.934726901517025 0.8807622411364185 -0.9531156551981651 -0.5494550299794408
Ni 4.141016967206666 6.738337520334573 11.081285479625942 2.62328447127514 0.6769172120898729 -0.1481968435546222
Ni 8.139312195828577 4.4977891422197835 10.471976623613434 1.171141603730783 0.3642286444753469 0.09106615997990124
Ni 4.442950609831257 8.965383081808607 8.459474181326064 -1.7022315009394748 0.5919646212068772 -0.24144432745655836
Ni 7.240809590904266 1.3219707891582047 12.545759241517267 -0.5794250939789698 0.798566901283586 -0.7756612003300062
Ni 6.514203632677546 5.1220255504614185 1.3954862263338992 0.2665683762176957 -0.29539892729614287 1.6327217269741108
Ni 6.154673904912742 5.719458545956668 10.427474318122478 -0.22990753046155243 -0.43702634516336347 -0.9266338068575526
Ni 4.367981942355424 5.106316691619315 3.3852940094748947 2.507739352317268 -0.28066573485102625 1.0020938848690808
Ni 4.535071255422577 2.7083028595407574 2.7956134139488857 1.0309447476625018 -0.7770405971760359 -2.5278325235227173
Ni 5.512743199847789 5.924997336224826 12.746077065242236 0.703234509828163 -0.11561865250828475 0.23985589992351594
Ni 7.1370061134883045 8.03644628634819 0.989720611581579 -0.5295405504437009 1.5701207643134378 0.8937221437311963
Ni 3.4393576695401973 7.905940506453403 6.0818644012414795 0.045384598782386355 0.38825174686282166 1.1114171912869568
Ni 7.233207937152118 9.083700478540942 3.1550962633169104 -0.51997321847024 1.428425212212443 0.11142364059033069
Ni 7.508227864920256 5.7570899491746745 5.823024873835985 -0.9459816152565449 -1.0492525448327543 -1.3054722308262743
Ni 0.5451507145075353 6.187856456358029 5.823186650264083 0.08099772000030567 -1.3829483108265668 -0.1632372828275124
Ni 3.510640408171277 3.5652399526546574 8.084277877194681 1.7990926703345984 -0.17761874836016506 1.6518725888709487
Ni 1.108793577767876 1.8630761737790167 2.551518521106655 -0.9226550247154626 -0.1545405263844629 -1.04409722588406
Ni 0.006517016336484265 8.251461866239643 13.195010329953698 0.523956114377388 1.573653974277677 0.21138478906701658
Ni 3.845297010115874 3.9422341811801376 12.274031831734643 -2.3018014452974356 -1.4656576142013404 -0.8186577584961902
Ni 8.47284739298749 6.686486336760373 2.2944282013299793 -0.20126389858293078 -2.2389533996229636 -0.34253419022104875
Ni 3.528610460269763 7.932339478129542 3.516085655671606 -3.8487072049469906 -1.6534232211875202 0.9552620121172064
P 1.697420788142741 7.808093342981082 4.854059442632094 -1.7002090711928075 0.3764321285200743 -0.9283556746446656
P 8.921822940174476 2.632497734396913 11.579780239943453 0.009944255696905454 0.27191010014558337 0.15149068381454556
P 5.681073411653201 3.0517468629207265 0.39575753663220165 0.6982154593470169 -0.20736126972992033 0.29693439010406286
P 0.8284736336109985 8.941153384963794 11.268526988202414 -0.45124685963811967 -0.6224710173258505 -0.14729027257995278
P 2.694147422082103 2.321105685834039 0.3316361624972502 0.31243222862934583 0.3326390425945239 0.33363714484173507
P 6.136198301476447 3.1422497442310564 8.181316158526508 -0.29098228628568595 -0.9175758104203423 0.6466291026292929
P 1.1988736343229474 4.639986945781718 12.12862975187525 -0.7023994155213774 0.7103783199617959 -0.5349234120221691
P 8.66142723383278 0.5613559328449426 7.672758169033844 0.3564924521733538 0.6262338268023924 1.537047635908553
