# total energy = -340896.16345546674 ev
CRYSTAL
PRIMVEC
9.03208389863922 0.00000000000000 0.00000000000000
0.00000000000000 9.03208389863922 0.00000000000000
0.00000000000000 0.00000000000000 13.21936776269633
PRIMCOORD
 96 1
Ni 6.558322573624525 1.9297137586900315 11.401334996329561 -0.4769095545115464 0.1725727012958254 0.24003356315196078
Ni 4.393919146710139 0.29291680354385796 6.081728408551368 0.3974938342863799 -0.2458388569798282 -0.9799584864226218
Ni 2.6441967561071973 1.4988472280182852 4.60377690665058 -0.46186011637759167 -0.16919838550695376 1.0791603881357803
Ni 3.4116619577194087 4.0709498903844565 4.85198399164928 -0.050588511580829006 1.2889523787943802 -0.48833759384282993
Ni 5.129175937112065 4.5388118367368895 2.7177305640229057 0.028592981146344308 0.30609497355740833 -0.30299936535122013
Ni 7.311679660174913 6.100504304576028 2.594340556152163 0.19673618591590633 -0.39546291989928023 -0.21818330004608877
Ni 5.035233232401414 4.6725589352231225 11.45816486826874 -0.2540095657160787 -0.8703091641238947 -0.008619109127578704
Ni 5.537778380954491 7.798698656492857 12.219837794471767 1.106435164691333 0.1785114353777635 0.5847346791173413
Ni 1.8531397513314227 6.447462775757155 0.36880437252557885 0.11212992262873593 -0.0005913537270957558 -1.037126965213814
Ni 2.9847785760503927 1.7301950251972662 0.531157887160217 -0.6059295680274016 -0.8437838641398565 -0.28690477378220264
Ni 0.41453652296894317 9.006459884375115 4.295091891022898 -0.2718651058402608 -0.5970255806695525 1.7420954270139482
Ni 8.52211438489347 2.5438954643264293 1.2556484335456937 0.30141402314197124 -0.7021402483227197 1.8572386825477112
Ni 6.763107012034732 0.445560827979097 4.828545733912126 -0.5949059632233883 1.335495773771558 -0.7301290202261619
Ni 0.6650350476547013 7.259239381014252 2.2476232416113375 -0.2648809612129438 0.7336653155141946 1.1529531057472142
Ni 7.727218744457468 3.908688503005664 3.9193174593467366 -0.2557404323642563 -0.24194286435953172 -0.5660057352492703
Ni 7.813854493287826 3.899277071575177 12.649876986257686 -0.5983610116515243 0.4940156180642137 -1.0077181730343936
Ni 7.917560880701314 8.843737860717095 6.855775289706186 -0.12357056036550976 0.07026310719162092 0.38357670998465554
Ni 6.994355456290743 0.6878952520218444 0.33107103558973794 -1.0997618664362157 -0.41421628924738335 0.28511708575416056
Ni 1.8397632350660185 6.548540826753874 9.279929708060065 0.3132213001895444 -0.5573735134955692 -1.0544258615035775
Ni 0.16911583585537293 4.9371267370099075 1.4626836672653796 -0.8233371662497303 -0.5012252484387756 -0.7586672368751708
Ni 6.4159227387559445 2.143819307691661 6.999576000788651 -0.6372173223970896 -0.40985595539615866 -0.09457314469189519
Ni 3.5916984862260315 4.107132418513566 0.2580421211643983 -0.9371097666882118 1.0206366808682745 0.43038287170491685
Ni 5.955042593263173 5.580725939929508 4.891034206418677 -0.46395325146119454 0.5406605716162624 -0.5056740282387484
Ni 5.130223658845209 2.795140942351249 9.34122865511614 1.5508889126670196 -0.14100392535060877 -0.17218549315973572
P 0.08910421736198176 5.742779589378453 12.459849166533782 0.6701816931382522 -0.13417096158917538 -0.5947401270694854
P 3.8898114476412515 6.220721341370448 12.610047302647164 -0.536290981793657 -0.32088421605144096 -0.029604453129994174
P 2.396835074162138 8.561656848235767 1.67843666837154 0.8862456328484931 -0.2930576807574759 -0.6340872614085402
P 6.1769157344243215 7.7126951535359485 5.8547918811522806 -0.06021575025794791 -0.7627954001109315 0.09036064927244437
P 4.851466453241442 1.0420586165351202 12.726285706480807 0.78388281690885 0.28305583234975773 -0.7591086952879637
P 3.802317650839784 6.184023984458673 8.134405860751759 -0.2705520434557921 -0.6193229586151722 0.8851732257199207
P 4.716518087595657 1.1902751134394336 3.9092177831225805 0.4966466279291576 -1.185401970304539 -0.6049790311886741
P 0.1569351674991781 5.623212862625295 3.6702252301252076 0.5688156938942397 -0.872858927128942 -0.8049874600979491
Ni 1.2120604998217128 1.1205474256818895 2.506723019801177 0.40555424269701124 1.4643098419241942 -0.7329297228997506
Ni 1.7285692500941108 6.638274580364134 4.7385482434518 0.9143786436392832 -0.757787919594011 -0.4204000494605921
Ni 5.859058637589673 5.438308040893115 9.246128037248686 -0.028080817396616154 0.3624869791938919 -0.44095164835969863
Ni 8.631348407657685 2.230626666116241 10.16882676175211 0.7074552327777299 0.28622368855477803 0.3380879815242371
Ni 2.3565971403590473 5.143690495949678 6.856740819475782 -0.19817497524496192 0.1410329788163313 0.6764688116985447
Ni 0.736899726464504 9.218867401602338 9.36233934483061 -0.48942954135542804 -0.07385519541825344 -0.7603237986419873
Ni 1.758980276607019 1.1387651389211337 11.50977329250162 -0.7331490379994083 -0.22259248485737795 -0.21255644077761457
Ni 3.820436011156058 6.781396981945228 1.6733073479210854 0.8463356840274326 0.8412413002236607 0.5316190302392845
Ni 5.418058108774925 7.6877936982059545 7.952414789287788 -0.20659225277437968 1.0989252294675331 0.6750050826688245
Ni 5.459181186800845 2.9942171037325993 4.698005025212672 0.5833015462152406 0.19864780111632238 0.786448006532865
Ni 0.5748496898491214 7.235412743669122 6.960314435255844 0.6485183492322056 -0.19579876170330152 -0.03823821754559221
Ni 4.954278664348194 4.706239576110153 6.945799876418232 0.14941863177686526 -0.6398046235082917 0.42846097209185563
Ni 8.360747173821414 7.249069254535626 9.356377266243985 -0.7730687570124815 0.1834088726793809 0.0676809482867415
Ni 4.782569717203288 0.30847547128105296 10.43468163549556 -0.5019392437866645 -0.07825666692005877 -0.31593381402470105
Ni 8.121171148203686 6.9921064673980435 4.905667988763854 -0.4112955160561626 0.9787924911389789 0.019905480674675395
Ni 7.206392658077802 6.175624146425704 7.125239384178641 0.6067479501636389 -0.707157499031653 0.03654334634167255
Ni 2.1931977104080462 5.137060946362367 2.579032980347566 1.2225191868718106 0.5091319048803619 0.8511978972157407
Ni 2.271388460785903 5.198334603583504 11.37761945361648 -0.2268270917640158 -0.22926192645775356 0.5885892769767411
Ni 1.1899499584188025 3.2823225161795087 3.8543578086833903 -1.1198987463954067 0.1309794512350712 -0.693916831971663
Ni 3.6449877812738953 2.698714414566334 2.734135538022132 -0.07492554566429677 0.31205607623684967 -0.6167521125642024
Ni 1.146686276507062 3.4672363699955966 8.21583732283524 -0.15955854842434455 -0.2844889652518584 0.13339448843446702
Ni 3.7205592273188914 2.612132858239415 6.885876515741105 0.047474905652511785 0.3150426696689994 0.006829107106691465
Ni 3.9370763427235347 6.8572393905074165 6.050874809927045 0.36814726280346277 0.44915346744420065 -1.2624980412575935
Ni 1.0403786489285265 7.571126270386759 11.263205530731934 -0.0456188262803795 -0.13057321693558804 1.2738787722907092
P 0.14293724386101206 5.584510383086296 8.265832616882433 0.1734803007117593 -0.7815171448901508 -1.1665874087011974
P 8.478633932967975 1.5955176220686729 7.983771474985698 0.49359549980765965 0.38113133376795655 0.17747373814186854
P 1.8211210138831724 3.152820497129293 10.412856507944092 -0.001528777939700593 -0.029719638551619784 0.2205638844631234
P 3.8978319381501505 6.098327572354583 3.8176604517716157 -0.1463705889791608 -0.36150044691090644 0.33981550573830505
P 6.9933980553966615 3.91515547508266 10.444146356221093 -1.1475805285813911 -0.3553102589397945 -0.141324284804505
P 6.267769466438977 7.545673857938474 10.019408094479852 0.4245701216778817 0.728337732653694 0.9133664003246851
P 2.1098315759518114 8.486013145519518 5.616843437054491 0.3074113783759867 1.232903358319612 0.7640277298561359
P 7.034367587996172 4.186127024359095 1.5741495179628702 -0.6499229428892161 -0.2945118967054992 -0.017150286527041432
Ni 5.682662038897337 3.0705201485740155 0.24221971657713587 -0.4072195462145761 -0.5814277262312953 0.0566912820444572
Ni 1.4318743258521984 1.19837689270349 6.935236854289676 -0.6068590218202063 0.043822653611905175 -0.02082876381989316
Ni 6.854918144943467 0.8046873225989494 9.173923752084004 -0.5078139573998867 -1.2276351679421371 -0.24864341630815887
Ni 2.8562791183137892 1.6162733508856206 9.035940606245662 -0.02849476500558318 -0.3066711577758525 0.6903676811678239
Ni 6.317545280847244 2.1165604784620924 2.482822319368015 -0.1394059847358696 -0.01595858021178542 0.4454220254262265
Ni 3.987511499256971 6.821671044083944 10.399386058006058 0.9763908236760216 -0.058936369324892046 -0.0919768447196287
Ni 8.089423373272627 7.356334283008242 0.35444064948920284 -0.4890361625717513 -0.6413015197687922 -0.5604745210183961
Ni 7.707375256115069 3.862001661293392 8.186820850077483 -0.05656555509987032 -0.028600694455828163 0.3723335329706684
Ni 3.310005853352679 8.435162513126388 12.716873371841928 -1.1786777642068282 -0.10032007447800141 -0.0068404199606011224
Ni 0.02928201602460593 4.679558800250596 10.305726960730071 0.42225150084703406 0.44554595259860047 0.5096486966157803
Ni 8.54268947203229 2.2729058508821818 5.813402356651123 0.08030429347770686 0.559178685025108 -0.5835848817836143
Ni 3.7779490884602693 2.4745561561768614 11.37521330646381 0.34550612836517913 0.6546476020583951 0.3699362363830855
Ni 1.0660207351388462 3.297108037534314 12.733820270875539 1.0384004326095988 0.3979790014529146 -1.2008679271506222
Ni 2.6482250655294597 8.450065451571977 7.742385419753124 1.2290906694417414 -0.9171798605335044 0.7877245592524433
Ni 5.743971824454099 7.5262729417074885 3.4945927457313544 -1.2689417400004082 0.9228100622360882 0.7530537473431353
Ni 3.3556540054157136 8.442008832727453 3.7090505460053342 0.0523242633250131 -0.9623487437606588 -0.07869786822253544
Ni 3.4295364517702094 4.283781915555282 9.377767047351163 -0.5511640422507476 0.9231509905152746 -0.6925410346700589
Ni 7.088686540609368 5.986131026069062 11.44226207813471 0.834385453644092 0.4440030335915128 -0.10178200373550858
Ni 0.7276653238785825 -0.057356442430923825 0.3832015142724085 0.029453272264110566 0.17907347852882063 -0.8435372953466891
Ni 4.6751872716398895 0.26840824386379375 1.5866941793004936 -0.005314470234377944 -0.10299556442763552 0.6986818574604742
Ni 5.7044383931957094 5.712467915788515 0.513259006482869 0.9921221183683494 0.02265553261598679 -0.30025162740275385
Ni 7.991687193321282 8.759622063296627 11.398558533736727 -0.30696040688149717 0.23198729580871663 -0.3667719797224909
Ni 9.32445246246836 4.7988906928221855 5.702861391345649 -1.0804891342495329 -0.15352005553974848 0.907665750395482
Ni 7.716533789196176 8.898400032518735 2.5418460844880637 0.6083826575535846 -0.3804278799430287 -0.037681059490541555
P 8.220063434895053 1.7443934610981546 3.571304943973731 0.8794350376845628 -0.00527513235601027 0.1728084714557153
P 1.8343891451416998 3.28675726937756 1.5342394488055826 -0.10101941453787118 -0.462394648724823 0.5742828876563981
P 4.775615012595346 1.0423115148845 8.040389996161467 0.406207560010294 -0.2003007633387131 1.1259390390522157
P 8.680943580387824 1.5641762909134038 12.561545915278092 0.1331540902888868 -0.15945750407010603 -1.7376469043242913
P 6.244791844981051 7.725078140571647 1.402878626887426 -0.2902209826396292 -0.14247125392475463 -0.7686881114462826
P 1.78300561979809 3.108662638910817 5.968306208479747 -0.3049968553972231 0.3811133360458275 0.2192536502921321
P 6.948589887136924 4.113635518926187 6.084214038042414 0.4937307398339432 -0.453976856974773 0.18672739552965262
P 2.69257259750997 8.531878067596308 10.07954280592039 -0.8085324971367301 1.078100579412698 0.6686721984722612
