# total energy = -381166.5706089732 ev
CRYSTAL
PRIMVEC
9.25436101014147 0.00000000000000 0.00000000000000
0.00000000000000 9.25436101014147 0.00000000000000
0.00000000000000 0.00000000000000 13.54469278348684
PRIMCOORD
 96 1
Ni 3.951751000225499 3.8865540263566922 0.7905778573278781 0.34738663321734364 -0.46873267512770883 -0.11781334616675838
Ni 7.354644353011508 1.7285573272019001 11.964514614868417 0.2453899423678677 -1.2615991835924079 -0.7695154924435844
Ni 3.5848433461479132 1.5201491154878426 13.29551106775914 0.27354120799110315 0.5705226492830174 -0.6572593286496293
Ni 0.8811845304375061 6.926185943334002 12.07925203451643 -0.3533425936904624 0.8316996792818127 -0.23944323786612953
Ni 5.150375848413986 8.614893991688623 10.514826353836547 0.41179122474565855 0.5960362201730897 0.08455869787868663
Ni 6.488713785956253 3.0864682384464417 1.5501628593702153 -0.982527789811695 1.7599969898847174 0.6353391315377703
Ni 3.847352552785611 5.600794856954612 7.141560838075517 -0.19475849336424522 0.7773365311499 -0.1912707919259609
Ni 6.954032315849437 8.491801734849872 0.8385182240748733 0.1778527187478421 -0.1817872779155579 4.4750099373141055
Ni 7.609213317835233 4.274367282133303 3.1008273051114297 -1.780652718461856 -0.7667024484748215 -1.194905024698968
Ni 0.5661577500584182 3.9017867047084387 7.81478691874787 0.030692029767218108 1.5005225443993255 0.7217431101553118
Ni 1.4027020189131048 1.8561749666129503 8.991319756145778 -1.6216765249035427 0.00011672808352237962 0.7106341447263439
Ni 1.6813693400114038 3.4811852475951084 1.9647388019787932 -0.2803559169200914 0.1471393488243853 -0.9049591500975964
Ni 3.300817749979346 3.9753496210012913 3.534297876754492 0.8290231608909142 -0.4619120526614496 -0.6555734563067742
Ni 3.3726501007486407 0.5093100607636974 6.83531552093335 0.7966799686735182 -1.065481605097107 0.7600826291654588
Ni 1.7785031139967833 0.43670497084350923 5.225826654368902 -0.48035406141672105 -2.498535060110181 -0.02093649304235104
Ni 4.590616563612189 3.852914423799827 12.095315754493926 -0.7873085547609473 0.2609186341310861 -1.2525458151408881
Ni 5.309467569887181 5.171725659445261 2.4651202551642615 -0.2625803381042252 -0.24757589427559296 0.543656935240425
Ni 6.635747074931072 5.795691701479392 4.844679314884369 -0.4372034941711761 0.19491738753961269 -2.290702250060481
Ni 6.836844341385179 8.266198920233295 12.377749600555266 0.9412885806562498 0.8779589673596685 -4.732000697145696
Ni 4.509585377920879 8.998117084365315 1.6105318330591278 -0.14247973856518686 -1.9268322744761333 -0.234915268088789
Ni 7.313018236835228 3.874199454303483 8.19287291558431 -0.3169172609838929 -0.6901069713072696 0.4358528936805526
Ni 3.4651196767453927 2.6563255350508204 5.734998825152379 1.1897957284968608 0.8208935898052443 -0.33918301436062875
Ni 2.4882570833217352 7.8647262274899905 8.367355564983866 0.5743137408943335 -2.332998182615214 -2.442842651643883
Ni 6.914442159112637 2.080870853842849 4.435710589659342 -0.7530774014922192 1.5891816375996308 0.2523897707244685
P 7.3903291693689415 1.4618003688245595 7.503475764345833 1.5875996378244914 -0.8700132301500307 0.6505600622525829
Ni 0.7951023144640683 5.645095483485481 10.003406298744661 -0.3787396936073284 0.11023219138539078 0.23305481784128249
P 4.039149186345728 8.240592103101289 5.293306679118253 -0.4524794464936401 -0.8901102580102219 0.10468683608712939
Ni 3.149610744153591 6.361947547765348 12.882655510876921 0.8829438221687697 -0.5084505625426212 0.24853902951981072
P 7.657123145190636 9.290545640402284 3.8042438879629454 0.8887028361397339 -1.2753059916555392 0.7548499200116097
P 2.4088269020987445 0.5299204483439983 2.8285112520282 -0.7751477510286973 0.04362673555101519 -0.9955128892174533
P 3.5143251146531918 5.533256529730402 10.93645874677514 1.3261184463217162 -0.24045779517357296 1.1967315363847455
Ni 0.9361619133562317 8.67118827019025 9.735003914965777 -2.0640836747628453 0.059431563793755714 1.501383349737724
Ni 0.5060303151939167 1.4461697529460054 11.425138060364143 -1.6396973869609954 0.8824113467040674 -0.370617064500194
Ni 0.4170468570192197 7.894867681555384 3.907901061079641 3.929749662142304 0.1568943713286201 -0.6555361753109356
Ni 7.81800095835392 6.759977618183715 3.0114727470570823 0.7109105383161821 -0.40005928102071103 -1.2306847534017384
Ni 3.0473037823197147 5.719269187610178 1.6962966244472284 -0.08578999918262645 0.8472476543187408 0.2031228061685405
Ni 4.992672281104072 3.606840962455387 9.126522269905001 0.44373306775957777 1.1702350327561135 0.33976228390286645
Ni 7.7914594507519706 5.979233444948526 12.565167995884389 1.7604477042688909 0.18073389695037906 -2.2152799672654235
Ni 5.917821504764934 1.5056845491064452 9.18854314704822 0.4980723046320905 -1.2900605242568943 1.6958574790923309
Ni 5.5277872023270715 2.19161779298948 7.0869758400669465 -1.0807231046372097 -0.7574691028020116 -1.258782025858587
Ni 8.073661937786095 5.029449112069954 6.211636364092966 1.3019634463420673 0.1348852140473806 2.8380538605436736
Ni 8.467222151798692 1.0037650211080607 5.675470147450308 0.9222996982585729 -1.8287511166309796 0.5183400537421912
Ni 1.0667039308712625 5.135541107589046 0.050276167485744226 0.05181801311255592 1.2379925999170613 1.4608360244429808
Ni 1.3492025574602198 2.1908496810191305 6.617950938557798 0.7296546516929047 -0.9217492250717416 0.7607539442008705
Ni 5.872475135431058 7.947756355176425 3.5115969290042885 -0.6845281916679115 0.17962112350217455 0.496409572217687
Ni 1.4486314129955589 1.3941880067116423 0.2365720088148297 -1.5220496198378237 0.20021231738996487 1.5532247598890476
Ni 0.4809250844329089 0.04725276771811623 7.505561697335191 0.31184884532205004 0.08987368233369683 -0.6352432293898543
Ni 8.792503689699998 2.1386365757575536 2.6938362368510247 0.4449137183312402 -0.6571839953270037 1.262733297196851
Ni 4.327552095309178 0.7414233184060656 4.039040910320992 -0.31287265860087404 0.37023217035694944 0.0749862236989031
Ni 9.00979608805906 9.064174713815358 13.189443133578878 0.2551825029782573 -0.4078957463459943 -0.4128260937680761
Ni 5.81008223297208 1.5116628663696459 0.226239514659468 0.04085791455662641 -1.5700624002716768 -1.4680389699493235
Ni 1.805886768457791 7.535909523652859 5.792808042564201 0.8767958002895029 -1.8075181753941323 0.9510952823340265
Ni 4.388381010744191 5.699538889769398 4.555446289731278 -1.4024930657277137 1.3446956951032711 0.9485930847374631
Ni 6.856981831113854 5.653840854714157 0.9095195332184164 -0.20442532703004795 -0.31866175447882544 1.7675470343178332
Ni 5.084966024240143 8.3533750016874 8.304724825444913 -0.5514448067159601 0.6657172296089954 -0.8131373428985932
Ni 6.719573077671122 3.7050667510492152 12.885838085655273 0.34692897685463475 1.163361702675048 0.13638853806578446
P 5.216350188614231 3.3624980666345055 4.4957954544628365 -0.6426359223094997 0.7375420248607815 -0.4592242214166414
Ni 3.114286847878611 0.40201129655865886 9.430966688379337 1.9071499655558575 0.5562365716776484 0.1785705707504731
P 8.225350170388454 1.6112953178489329 0.6985228767078926 -0.48428476392969505 -1.123036263583124 -0.9484357332239924
Ni 2.1146677805382192 8.123691013830776 0.5293744410397742 -0.4576064833075603 0.5543637801349678 0.48352294606300605
P 5.0898245638116295 1.434028031197833 11.47418339782511 0.7620893751828424 -0.3321926990857247 0.2597621519291397
P 8.114399635297875 9.054679739338509 10.43866481295003 -0.1202947178277154 0.014940937580548461 1.0537139230382175
P 1.8279399109317964 5.834310150301894 7.383578112954847 -1.222163860414921 -0.348145108649923 -0.15719673306038734
Ni 6.412716972697112 1.0277060532441293 2.450234615353335 -0.42048129632048875 -0.9370966540620894 -0.3342156430530244
Ni 4.902460769212926 6.077237128876228 9.292403916108864 0.7143707289506407 0.7577789207329466 -0.22060167967959426
Ni 7.542702224691852 8.157052985554984 7.566417450417362 -1.3116634472386506 1.2412085357511977 0.42830284924743656
Ni 9.15403455998514 3.1762262866442503 5.311862598536897 -0.654545272152576 0.04114125012500011 -0.9626619041257032
Ni 5.463460138400587 4.275514822908283 6.452325638156089 0.972538539809467 0.8232788022079692 -0.3752180536073151
Ni 6.592964163618723 4.592661777412757 10.577849478285653 0.6910659927864291 -0.6127041677470739 0.26495655164588566
Ni 2.133537422797765 0.1959305566583708 11.703102050019712 1.2975563184133072 -2.7746147182524217 2.298808938328015
Ni 1.9233708824768834 4.751161219776286 5.39848156745347 -0.1784273603043895 -0.6844888537895437 1.7009536626683157
Ni 5.634591783649982 6.515468143863239 11.646918823851147 -1.4520256252402024 -1.2445543122949791 0.4095157984479206
Ni 5.633453497236091 7.120055553777953 6.393190270800281 -0.5425739865888914 -0.17644066889166388 -0.7202271877314177
Ni 8.405005082200397 2.694231398069505 10.057828419998073 -0.891811814082361 0.1286268918424946 -2.393140142212433
Ni 2.0356170281198587 3.4097785974358867 12.634205529604944 0.40266946495004846 -0.2567670738565578 0.16389214280269193
Ni 5.924956617164203 0.1417064787322528 5.72758978366489 0.8804927895251159 0.1945522908907101 0.8549082561877921
Ni 2.8900351699809628 7.58147799765286 10.712091389363884 0.6692023599441185 -0.875768387466253 -0.16987972784469452
Ni 0.14578117391953965 8.925238990793014 2.165118855448537 -0.38476841629991154 1.4363570654650102 -2.8721891116644858
Ni 2.7944006024919275 4.783440431253134 9.160181306620153 -0.38670574253194046 -1.5130666996129232 -0.6866511515481852
Ni 3.0929092737640698 2.0768452067693315 11.063440611579408 0.4620578342106946 1.81763495211316 -1.9943581852422492
Ni 0.11171124357205729 6.930757597711744 8.002692093470252 0.41527044154351067 -0.8346762454116334 -0.045793147074714685
Ni 1.8529174315097823 2.195550896452112 4.158179704102716 -0.9006196421819781 2.702732587400139 -2.755316532144442
Ni 9.01145261869391 3.896502464526879 11.906502726948757 -0.4142548557948027 0.6673557936536829 0.5995349773549675
Ni 4.363644103554508 8.664367806067991 12.760008388806531 -0.34590362091391397 -0.42917573877069315 -0.6061967056458591
Ni 3.9809114920155078 1.8765623240910174 1.953239332890166 -0.7132988360427006 1.6939715749235276 1.121450921373875
Ni 2.989861963043109 7.752526353652458 3.27562182647967 0.519675484724163 0.23639982305411542 0.47012235638638383
Ni 8.448222948483908 7.531698789357571 5.410996239953511 -3.1340729379223187 -0.43519314860936664 3.413271087088883
Ni 8.664978593899834 3.676692879951733 0.9229503874662233 0.5781667960918366 1.048897989706813 -0.631551382360564
P 1.307363590978903 3.4852016403075377 10.44887700041124 -0.27035998204964407 0.2580428552451879 -0.4158569101745999
Ni 3.371807953889583 2.463066712438713 8.139547436119889 -0.038711300527268816 0.34665155482353205 -0.28593058279439143
P 6.773590783344966 5.966740057478988 7.79428018001176 0.4875459511794701 0.3391151372371708 1.399708818114357
Ni 7.845708515453028 6.652145802779976 10.130116085332924 -0.4587904763133324 1.0728660704866362 -0.44129334796983355
P 5.313095279433892 7.09251457517844 0.3472680489754735 -0.9435226121930912 -0.6547255064841822 0.3680706439292564
P 8.927237932788142 5.009348639785633 4.316097972589884 3.012596541081676 2.6222943394477287 0.43553921909487575
P 8.979534327299515 6.683508832509059 0.8380110850872209 -0.1599922935276535 1.2427427130075372 -0.06648487109611131
Ni 1.5601742271958043 5.881164980493203 3.500978475091291 -0.8235217714567107 -0.4207196375835399 -0.5794346070606666
