# total energy = -381165.4640558714 ev
CRYSTAL
PRIMVEC
9.25991916344248 0.00000000000000 0.00000000000000
0.00000000000000 9.25991916344248 0.00000000000000
0.00000000000000 0.00000000000000 13.55282770266860
PRIMCOORD
 96 1
Ni 0.8853751208055763 4.649507207469314 3.559921240162143 -2.0545286840845587 1.4087524163738643 2.552097566717669
Ni 1.3434012740968149 7.424806801897311 11.777461376869807 0.3817568831670974 -0.3932034344411422 -0.5667071321916691
Ni 8.03406317492129 7.604838147810104 6.755217426389286 0.3776919690691044 -0.1823035554303441 0.06613622950744094
Ni 0.9946727231722295 6.771843611019799 9.0836879616253 0.5274047350476208 0.6395678249071373 1.0364304533674216
Ni 5.068250006230883 8.756670216874316 8.710767872217167 1.9310290861663004 1.2454451995403648 0.8168240477215611
Ni 7.399999478797817 3.6149797927628464 3.344485519804181 0.23535698361189786 -0.328814269531795 0.10574690192052756
Ni 4.4923849012534784 7.641896343795239 1.604004101540407 -0.6711967646663279 1.152578496016615 -1.978713793836773
Ni 7.069892625056166 1.498782715533738 6.713989488861896 0.30516603398523573 -1.9423385976418484 1.412561248596993
Ni -0.09058978793667595 2.396707804609843 7.097412178441529 0.5150670394178741 0.0016629895247197166 1.0587609985438218
Ni 0.8690174738271303 2.2806254595649516 2.272361907816542 -0.7865171692079035 2.5570148015136285 -0.8944682778686014
Ni 3.3899267204933 3.3715643010433944 7.577860299688392 2.244675389708405 1.600771142209443 -1.7354239285310433
Ni 5.783986188258628 1.8489835935851688 -0.06964570305931995 -0.6889054948000006 1.6310435679407391 0.39446327499017225
Ni 0.3430216628222266 4.78011836548289 8.006875126637443 -0.3576779878410227 -0.6497792182225003 0.39851121980730075
Ni 7.082625013731719 4.0727161105882335 12.903457345829539 -0.25697739009515097 1.138967847211716 0.4282275159248109
Ni 2.923643497396978 6.257584747393994 7.141784784473805 0.5566515477278801 -0.6813654776692136 1.2577695254336725
Ni 1.7124646072261365 2.675829544135062 8.561754477101825 -1.8472520036486446 -0.7853606870059571 1.7605436064168065
Ni 2.186035386604393 9.063136497315103 13.51847153651058 -0.2126022064138855 1.1325223486966882 -0.9606322752901841
Ni 1.0836883248726552 1.3329468255043064 4.246968341030182 1.5657123508330972 0.9383168996224357 0.40050022521287154
Ni 4.7327446196907985 8.206242109490907 6.14483875117805 0.36568954529158954 -0.6516939187467099 1.1839948055443674
Ni 3.0819973728447034 1.3801631526727733 11.985253034062918 -1.6486252855782446 0.8550306406982694 0.4698192233236683
Ni 2.7350282065371037 3.7832695613370206 12.574679290469666 -0.8172220544909281 -1.0303752483122772 -0.9614380590209314
Ni 7.796222154461971 6.943652148827943 9.191934563181281 -0.7861572147653235 -0.369375478783609 0.6267835286582754
Ni 3.3360617714564356 1.1254320398903936 9.526147265023832 1.5671979342396882 0.6617299628264732 -0.042130353511146794
Ni 3.066922224652849 8.570851421563544 7.881728246847462 -2.381126919801641 -1.8509911589761026 0.9084923600618354
P 3.3452939107360904 7.3893413119865 13.130291100529856 0.48410272982587593 -1.6047614943157587 -0.8568952047108338
Ni 6.320894813848359 2.9558772755639584 10.473679592363697 0.3971261665343161 0.06394899204813503 1.5180654383790952
P 2.90537367713744 8.123726970954289 3.0757460015029827 -0.7832220433963994 0.4371286750691826 0.010359488857453126
Ni 5.929228018350293 1.7720336663896485 2.4579945787546746 -1.3724988333584685 -0.3202769214847452 -1.3771144777536088
P 7.151685489907915 9.220092124988277 1.7654183802297834 0.020127366877494366 0.20076973255533165 0.43304499191811224
P 5.995742016791379 3.9224646642976784 1.265962423176153 0.6600913987817858 0.4413118599125948 1.197558660271731
P 1.8486594964188823 2.460332708311458 0.40133137299673843 1.1023383689141402 -1.3916021298468229 0.6869874518416814
Ni 6.883499714765116 9.119862761334328 13.220904964256027 1.4735614424294492 -1.913843318415633 -1.0387747852298819
Ni 7.56671506113574 5.903253945452167 3.659941329645861 0.7013180095317406 0.6051214703038095 0.34171837918797277
Ni 4.922804457920408 8.433119385810695 3.906724653918985 -0.4294732154064539 -0.6785220946831475 -1.2992686731187235
Ni 4.874365821439089 4.301547229824781 12.19271966809784 2.465416166069025 -2.209040414113615 -1.5463750839570658
Ni 8.811340778867379 7.961298731130388 3.0824011053147062 0.042022110068056666 0.35384550146880994 1.1416906454595175
Ni 8.882095820227303 -0.12413754861497334 11.310918876040455 -0.5693751659421356 -0.9670967999686054 1.5843153106462649
Ni 7.028982302751737 8.09653058874331 4.7705547211017185 0.488269716719372 0.5576622483805815 -0.47132409000396885
Ni 6.8307552159317 0.5204204137528672 10.394462836987977 -0.7203400591601982 -0.04960403618037263 -0.7843643845309588
Ni 9.116001375095998 8.950934058346617 8.97348936913637 0.20857303064983435 0.7629638073679956 -0.9057777893441498
Ni 1.27261845297978 1.1615086844576317 10.467458778754798 -0.041428956568748 0.154754699277798 -0.22570737633727583
Ni 4.06150234863471 3.2355453503123472 1.0127499371158029 -0.7965658116931572 -1.5695625778171227 0.618660642440825
Ni 5.471371321577428 7.975994222641734 11.099291760382314 0.46446027300460013 -0.09366040306963869 -0.21306346232102016
Ni 7.899961027430853 1.238153034324939 3.3872987554706664 1.5570839857341376 -1.147677716280888 0.1779699610519967
Ni 3.635083076991664 1.0929112042332738 3.421153945460984 -0.5004359197682607 0.5342523540970734 3.146023168305659
Ni 4.677703660936265 9.21733266911532 12.952626589922861 -1.562445507156367 -1.5334820300444816 0.024101263923577844
Ni 5.944877281522428 3.3824447059115936 6.185144400769379 -0.6284652872360724 0.8051643519954456 -1.0422601726753211
Ni 0.3041235209244862 3.4353281035305607 12.894648384849866 -0.22794912118360097 0.29226346699095473 0.519499621267931
Ni 8.440342122659372 4.474874394354956 5.262806461144746 0.34018831569669156 -0.5521089226625201 0.5005981563777379
Ni 8.562637873377934 6.048153158539471 13.06983216314691 0.749847838811328 -1.6155161617291016 0.09490481699970106
Ni 1.451223771360911 4.3981837448924646 10.471619260378016 0.35122786134030476 -0.8810854288037923 -0.02886114720606642
Ni 4.028018481397767 3.657492081060637 10.02604306823171 -0.8179566186641074 0.26675452408657285 -0.384579440217557
Ni 9.645965061408155 7.978068444505969 0.28067092398007043 -1.6493431375808754 -2.5404669244572764 1.0322138441829125
Ni 5.948840526870162 6.545577489356435 12.874007099325011 0.48630642234541405 -0.012260562534907916 0.5531728451506602
Ni 4.211179679944987 1.082799372645126 7.097859432531005 0.9437984915622971 0.9720369175827003 0.11960694773207144
Ni 4.769950974380522 6.634463452190346 9.32949529043195 -0.3874174238869844 -2.06097392548927 -0.2840274522344076
P 2.7229995717083453 5.486715007421348 9.141924518439422 1.0156801081939475 -0.474033518515332 0.29026906226874527
Ni 3.2217110312714197 8.072612217871345 10.239554577413832 -1.0585144297506544 0.194904017803174 0.8166695244215677
P 8.614826777069144 2.281468112197297 5.102327434278083 -0.8433318642041024 0.5596075450324104 -0.331303611612552
Ni 7.982596544914949 2.8963822957527405 1.1893754848068738 -0.5550170974482506 -1.4610892781043676 -0.38893488897277534
P -0.04336697882488342 6.669715963963312 4.999882171998636 0.3202213856564614 0.08873596918482782 -0.26771148868320344
P 7.057438033951716 8.81858203555413 8.013028342837375 -0.5136063957119477 1.7509811595393523 1.3849393731146666
P 5.643679895013558 6.466099604263879 5.151348519666815 -0.38817872753304117 -1.2776575226068514 -0.2133120879967165
Ni 7.4917745363711985 5.506438634969658 7.027439600240211 -1.021741741006995 -0.4012113923472832 -0.2122149982777958
Ni 5.603491846393996 2.513818000667815 8.405924855583523 0.3560900745286125 0.17306095378615358 -0.5477527025763534
Ni 8.469946083819911 2.1657561639138767 9.923366307976343 0.861268394077865 0.7767040397722236 -0.9799368891560671
Ni 3.5876908113614987 6.000668293718938 3.354270476250331 -2.166108133526463 -0.9601553356537658 -0.6293667160044193
Ni 2.1646264537913913 4.331077111633025 1.9586682605675587 1.7889769220568352 -0.5360837508788573 -2.0373133486475363
Ni 3.525695653410354 0.8594121598102936 1.3586569907098858 0.5976423883179449 0.8159943527314141 -1.6523754966492958
Ni 8.922135710142276 0.7273620103784041 0.48617260319539035 0.11472005195341535 2.2577628190199825 0.005793466753325506
Ni 2.4597585933311783 9.33316499634622 5.824314061655644 -0.01231121326718525 0.08683695238990205 -1.5302522102532743
Ni 4.188891054823492 5.383642848623112 0.29758601808452984 -1.1867016629525693 2.388412911940093 2.712886388004689
Ni 3.280817094483093 5.704860180089467 11.398998299926264 -0.052986836609676485 2.1301011193042343 -0.36265975732633027
Ni 7.7281247098655985 1.950694544285 12.270729856023069 1.1013346102399744 -0.4013414901672443 -0.8384850776347625
Ni 8.855742090648668 4.9466487494400795 1.6087748118281489 0.3187198614102704 0.6081175768176559 0.13703877005527368
Ni 3.806678636661964 4.924008247395188 5.449158627792035 0.7210034037758098 -0.24149214997535828 0.03680508464349145
Ni 9.190932639941503 9.325479263545704 5.558543273397634 -1.0084026006959277 -0.610259048640691 0.9398047970218719
Ni 1.4002849567396645 3.9381787469030693 5.976648063737569 0.5064283899062698 0.5442444323127789 0.9458474036715258
Ni 1.0362775394044164 7.4554941735851505 6.800849381410561 -0.6680091109669657 0.9955933647464015 0.6356823738098021
Ni 8.535571130033468 4.38394198941392 11.137361139526265 -0.06921358288118402 0.33051711115551463 -1.319084165182754
Ni 1.1454149451717335 0.1454585121971257 2.275248224580302 1.6981038519243463 -2.3917622880283003 -0.2849864737135673
Ni 7.490848544467521 7.127933797578611 1.4134377457394862 -0.8377340584013507 -0.5189193232844289 -0.6479964152904647
Ni 2.5386068039292358 3.2679365471029524 4.171574080232838 1.1496407535445299 -0.7023238250884356 -1.3070521737188843
Ni 5.578304866613995 6.0780719569472605 2.698787661402915 2.361252035254585 -1.6344374241136368 -0.6205815136126216
Ni 5.127180130980857 5.3028037554321505 7.4334953839295075 0.4329609168447382 -0.08634227214167066 -0.22087678771785185
Ni 1.3717458862683536 6.641417651386957 2.143786080007247 0.44180319772671656 0.8705547044757974 0.4013255493276443
Ni 5.892493919531445 1.1054213548519438 4.853131901095882 -1.1759991889334005 0.60463861713012 -0.4154722731416716
Ni 2.3122851227516525 6.889407543110571 5.011699680673356 -0.8966794265873074 0.2866659182985192 -1.3798964113741201
P 3.9554762756637474 2.3161094693138367 5.467630314286575 0.6310322766323003 1.0892149441583048 -0.9893414702994188
Ni 6.504120831828836 5.245253358618654 10.533501447316914 -0.9422031220507192 1.4706789786753316 -0.12152576202133909
P 7.67272261426863 7.207763559594567 11.68772813144403 -0.5657352551967032 1.3603868805862829 -2.247660440478658
Ni 5.083639991669987 3.6543714883452463 3.7437648947423723 -0.8103816345303269 -0.00176994741622921 -0.08730874981999803
P 4.975271159182721 1.4716511527560157 11.269202940779827 1.2723312252979313 -0.17158616901283996 -0.8665275855942753
P 7.373053114400828 4.224893620038436 8.644304803330781 -0.13168033395683773 -0.8487931444289899 1.5751364723604744
P 1.379663117044788 0.6729016485474758 7.618193729036831 -0.761478738182037 0.4115297435541558 0.23972117411786453
Ni 1.6846478104396934 5.538746492488932 13.571530872591246 -0.5367481239357337 1.5197729079885052 -0.6022372067774789
