# total energy = -340873.84431705304 ev
CRYSTAL
PRIMVEC
9.27359606405602 0.00000000000000 0.00000000000000

0.00000000000000 9.27359606405602 0.00000000000000

0.00000000000000 0.00000000000000 13.57284522920112

PRIMCOORD
 96 1
Ni 3.2551528057132337 3.874230263958365 2.9856593194894514 0.6000108885501214 -0.5156563362624409 0.33851838419343633
Ni 6.880767230462321 2.5310147766746405 12.113411478436108 -1.0365803486817244 2.231424952456402 0.17056544105780946
Ni 6.8211658280005345 5.549913446847737 2.716673098975124 -0.13212410636247565 0.9917166553998146 0.1418945554856782
Ni 3.5330453879708785 0.4246945366858886 6.84896621454168 -0.22387058023885315 2.0259164196645045 2.1347656146594396
Ni 7.2580634898613825 -0.0499624266225485 5.192699159913432 -0.4665927459665706 1.4835895160894128 0.444601329297144
Ni 5.30348617633007 0.7647823462487243 2.491960881204387 -0.8704996828681459 -0.10952462379540492 0.20231933643063865
Ni 0.16262178210205108 5.997457197089809 7.388446542304472 -1.3464769553734102 -0.5878886513652908 -1.7355835940373594
Ni 8.656809270896652 5.659239871870609 4.820640627620395 -0.8124745125036137 0.7649841802321341 0.32072943564113154
Ni -0.115946845314994 9.278696628775503 11.896694027907055 -0.08974049918994222 -0.06731790852036793 1.209517375295504
Ni -0.06874887770502655 4.350299595960583 12.835391541650386 0.236289008507864 0.6185649974032249 0.2483012024773917
Ni 7.67635831784354 0.7523538726872983 7.74347133318755 1.1224155992799896 0.14308163381524389 -0.23572028048858762
Ni 5.798807493941541 6.0639952494724625 7.390007288536665 0.6304535213106948 0.02128024953501496 0.15104999673270111
Ni 7.397668206316919 4.36741865445513 7.025101480954812 0.6399622321320785 -0.5508593665261351 -0.22675998597150626
Ni 4.540788534496066 6.038483586461357 12.366328411540168 1.01463726875173 0.14668349223388932 1.0391054290964234
Ni 7.018137010245492 4.099068602636754 10.09758577176661 2.275240921200088 0.4103269814953062 -0.8529413622694084
Ni 9.002983341613318 8.080260524599513 4.130162970530696 0.3196827395441721 -1.1884777810163853 -1.3432772174891898
Ni 8.145917585347831 7.36038834979033 10.622705935889742 0.8964657679146044 -0.3259973689082902 1.2701486158243156
Ni 3.0079280059265896 8.17032569041698 12.823448077167654 -0.18301909344012998 -0.6602592918182177 -1.4512877186329136
Ni 5.828844671874282 7.854123882459999 9.142220823661278 -0.1981189251960459 0.9436401116075619 0.34573007145052714
Ni 1.2454717838533171 7.051039729388858 0.6365461313145676 -0.08565321649444604 -0.8056456625072383 -0.22656509635188077
Ni 8.041394883131122 6.762584521115347 13.619129118431536 0.8635430490446547 0.3264840787367216 0.36127213295018423
Ni 3.2319966361244545 5.2058352088611715 5.399413182274517 -0.2623106293826063 0.060144273590064155 -0.005001824089965579
Ni 9.022559903087851 3.4834409221597546 8.747318641969747 0.6766824703712475 -0.1389979506641735 -1.6834344228376297
Ni 1.2265907420900999 1.528446296801651 8.735592179636944 0.6860595407107732 -0.4302098364621623 0.13199066610840496
P 8.258610325773477 2.862545839069048 1.6584120374179494 -0.47150123901178154 0.3356166371656091 -0.20749599553557171
P 2.4138057949235106 5.55264915771225 1.7795493144985979 1.5638598710053904 0.4665698631484351 -0.2617714690496847
P 2.3689030423608886 1.8918136147820723 3.699048323229545 0.07308823534524186 -0.005931534993086559 0.9925329806535228
P 7.459940404470162 2.148933341661718 9.369512028521578 -0.2854847535062245 -0.446320883091412 -0.32036408188191273
P 4.20937802885162 7.660333543694798 10.873003078081178 -0.40979167781712644 0.07537985959289599 -0.1923362570759978
P 6.196060532257323 6.559344387872386 5.345909169281943 0.298800239668208 2.0328619977444027 -1.082759161230632
P 3.935714206438782 8.474777852050783 3.118659380766322 -0.1332214531917125 -0.14327369522139194 1.3496286136285145
P 8.704132432054656 6.6234342108712045 2.396272206681018 0.24868455395873945 1.6936823258178832 0.12611903781897635
Ni -0.26655839304202417 2.1131929020961784 13.41903829844142 0.5004842565076928 -1.664631945419146 0.13132834993405768
Ni 2.4550825713911326 5.390797084090723 12.154170788238511 -2.380809131450906 -0.20287520893410865 -0.04831694193783292
Ni 8.99957065822979 8.858890204620751 1.2390266345284469 -0.635104646929461 0.4132528968928496 0.3514291787178335
Ni 0.47547767656779105 4.720928139727152 2.0920778510202114 -1.1803289266570058 -0.5587359410607344 -1.0296566249786976
Ni 2.1441388924517066 3.420630855429759 0.6550469556355982 -1.6239192981911321 0.7868506412879223 -0.25453432787129715
Ni 2.16775874184803 3.7419980564427884 7.301905343024343 0.3418489912285661 0.8964706530106109 0.6876932196594544
Ni 6.192657122469945 7.737341486131809 11.757273856014923 -0.44962140821955476 0.7036574562981945 1.348442563740213
Ni 6.950884890959219 5.305869490540849 11.9829904042488 0.0036813055063291437 0.49916502347563707 0.7504201663750302
Ni 2.2198299842352918 9.00373450290154 4.937081755610231 1.0801230091593657 0.7727152303278046 -1.1876228892152578
Ni 4.67558952814544 4.98824882237278 1.4478828576003877 -0.5252434657302438 -0.9202358737510088 -1.0196167242441925
Ni 8.851897913122977 2.523558805369323 11.028995166294955 1.847074854640832 -0.5264138318892612 -0.5012954395550786
Ni 4.262617744353894 7.618982578457969 1.181361558942967 -0.8974970373925962 -1.121394614214643 0.13930853992605685
Ni 1.7854918349120898 8.412922965724329 2.5190119611765405 0.485292636368919 0.7674429261852718 0.08526832235120155
Ni 7.535798420984462 1.2141919440363564 2.8782441826332787 1.4071938136374926 -1.078398313158775 0.48945139573229896
Ni 0.20747074780699745 5.043148511586065 10.41280179645275 0.14460218422482837 0.12016976221407692 0.26497274959580175
Ni 1.49497788829308 6.186313982702735 3.751507201935914 0.563273681030088 0.6464812641975188 -0.16190210895585666
Ni 2.291245948193315 1.1983248210221795 11.987686553339612 -1.1456576005270656 0.42957477398132465 0.2326624674988703
Ni 8.057642223587486 3.690362673074619 3.6225105521173835 0.6809921534901949 -0.6747831964660056 0.36286930223397507
Ni 2.0365744506975045 7.809508611378055 7.6519492854147755 0.07008750084570509 -0.5746513267394103 -0.02299080446821847
Ni 0.9268328748278805 1.9107132037375913 2.092728857470004 0.4297424099074406 -0.19618956938381696 -2.1705936801016423
Ni 6.963144585070699 0.526607648945737 10.797049543526523 0.3007951586110497 -0.35685369216751445 0.35226350169367077
Ni 5.458225401703863 1.1035764891485107 8.954725401963303 0.800414496015286 0.34114065230763185 -0.0056232597240483805
Ni 5.965333460023118 2.198120495646052 6.60027154976512 -0.8598432315955643 0.6216377227912777 0.9405625011235027
Ni 3.9363540845731935 3.6438370411855914 12.891719364670909 1.0247895266943834 -0.6497164833053649 -1.5365385574826183
P 4.040811871616847 2.6926257367962445 1.2423808942562247 1.831231202740356 -0.6886152172530915 1.1955938232358765
P 1.7566138564982106 0.31364044070010544 0.4487641554955301 -0.7891479219625313 0.026540212382373644 0.015997146759204706
P 5.773796605122583 9.104473577888687 7.372049896950078 -0.6410410670185541 -1.3989102334724617 -2.846963247218161
P 1.0219966638091094 -0.10524604271647912 10.172888299871472 0.49919047739693384 1.1731036125531604 -0.10290017650035183
P 3.4751410536047054 1.8137484823838594 8.757823771689479 -1.0467230935426812 1.6367249345962327 -0.011522655927618867
P 7.588889758948322 6.512670378444945 8.808234113006113 -0.22015842149458859 -1.247789017182193 -1.2074640923109012
P 0.4588343535557843 6.37339951145084 12.206073251175827 -0.41517891027096887 1.0532940618919795 -0.24711335281687766
P 5.179971149196332 3.7571047445725925 11.157625509065525 -0.352731956689657 0.28518727687046364 -0.2824359393775716
Ni 0.2485852363419794 9.056705284115438 6.211979587409945 -0.14381774065032005 0.32330928055316577 1.0634794870654136
Ni 6.104047911248167 4.607465690820983 4.775524582346303 -1.1338405532874796 -1.5373607962735976 0.7209722934275584
Ni 0.40242028609105984 1.034794226497341 4.030795460414268 -0.5983175600080985 -0.33363714484173507 1.8326800193717407
Ni 3.3122688844065804 8.985474792080433 9.292092338415467 -0.3352140024105517 -0.33413722440660515 1.4628939354132742
Ni 3.8913400488567618 7.621811025283991 6.107468013508617 1.0750049712065097 -2.116935014235922 -0.5841482104862521
Ni 1.2631101637323146 3.7976489069442945 4.151892861031468 -0.2794560308136413 -0.8864436077919121 0.5949684410302076
Ni 4.270351923543738 0.5816204760320615 0.3905018603179328 -0.24103372228170097 1.3158404614344759 -1.2190777652904294
Ni 4.185313046840054 6.27457079727078 3.3281026224746144 0.14912012669983996 0.5104346828521854 1.1149018074014474
Ni 4.482197954014727 1.484980951642418 11.031221756730785 0.022054151586562015 0.6773417012218012 0.720845538041707
Ni 3.778090892662062 2.5414568459405458 5.244126814727822 -0.09635286230013727 0.5111597339436681 0.1465603363924637
Ni 1.55752829433085 7.1179301784252464 10.368595490961063 1.1405845568795323 -0.1739274155515069 0.09568231859567392
Ni 2.9741072007642853 3.9679399530631336 9.884641747511356 -0.13422521186587852 -0.30143382063631313 0.10022777187451125
Ni 6.065117354606722 2.988240161298245 2.509849648179459 -1.4694078252723919 1.3178572347541884 0.1643659971153169
Ni 4.762167821810172 0.3299925727929742 4.9018059232118505 -1.1948204354049616 -2.2584613877489037 -0.2803767428556978
Ni 7.095070763913296 4.412840728402202 0.6828918554382681 0.3377110578007926 -0.8256778985677651 -0.8306619820459178
Ni 9.252925305072173 8.115815492242035 8.627850612196259 -0.6169133207324149 0.7624490725151062 -0.09497295123347516
Ni 5.3256500711307035 5.7965632836730245 10.138833800086164 -0.551262772612141 -0.42325088864582583 -0.536122831646909
Ni 6.570175948176629 8.02703008269339 3.311407367324162 -0.40390436579841404 -1.001794865571423 0.07761157713689215
Ni 3.6892869359211153 6.012777177931083 8.139024521328874 -1.1371572763655382 -0.7843499863532556 0.3646405352017849
Ni 5.238162965043183 3.5645199733070076 8.770718707137293 -1.1651085101628258 0.26100348053540856 -0.9573883144315898
Ni 7.769326119256238 7.694933330933778 6.790426638839171 -1.5591066725911213 -1.7558284603293244 0.24504438610299087
Ni 8.171521984320446 2.233592000923216 5.556071114691929 -1.0224346533089617 -0.32209674830230334 0.15166757571204204
Ni 6.439075119391461 8.503794934406924 0.9321438633434967 0.7388748847395921 0.2772027160030904 -0.6261515515012314
Ni 1.0833415023472632 1.9478168619373124 6.336577770574107 0.8455350425030083 -0.18008726450531565 -0.6770478241304663
P 1.627423388520127 5.505548562861867 8.6814631262638 1.7197417419090963 -0.47115619696753697 1.6194844023482302
P 4.596114809132291 4.142060994392292 6.66301855604129 0.441648160206091 -0.006797225427491519 0.5447172581841393
P 1.4333826626588522 7.1556644411632275 5.726017183033956 -0.22121514489387709 -0.8104829359948815 -0.6384959319991972
P 5.957794026352442 6.348629736131807 0.46929218793514577 0.5679890842278863 0.44031221500348683 -0.7667965508505244
P 6.045197670074604 1.8061534071362784 4.549102313445341 1.8843221690280643 2.177551599476714 -2.4844919517535535
P 0.12235397289564563 3.939442192091441 5.8955283197165045 -0.28774475318499476 0.1757079044906974 2.154701177241102
P 6.399940543634695 0.9276192757814763 13.21477992434109 -0.10529978708077994 -1.9824215817056634 -0.1910872151602451
P 1.627154454231751 3.3700433884266405 11.56969682667082 -0.21218131682638294 -0.35269159037002484 0.8467105508683482
