# total energy = -381173.5851348798 ev
CRYSTAL
PRIMVEC
9.17499254699335 0.00000000000000 0.00000000000000

0.00000000000000 9.17499254699335 0.00000000000000

0.00000000000000 0.00000000000000 13.42852901498050

PRIMCOORD
 96 1
Ni 8.114198168450798 2.619084168343314 4.075612383980822 -0.6349966605966871 -0.041977372873050284 -0.2225284643886619
Ni 9.115410044013649 8.113243969236523 1.2378321782204076 -1.564306728734822 0.6466069911421057 0.5617708712323164
Ni 1.4710815886536894 6.426375733270028 0.6126564505146359 0.18491219669778478 0.3694140453310283 1.0115012942259096
Ni 5.578597256364095 5.6036449857388115 9.302559704907274 -0.42688205764051 0.05922664687180123 0.3866612624472502
Ni 1.1715456103033688 0.8744630249328282 0.919029633234934 -0.34795870367072984 0.07282469727121006 -0.9118422503706748
Ni 4.600671511626531 8.252713029392226 1.3948484114270792 0.7298641966005495 -0.9966773418391995 -0.11495119412761493
Ni 3.4972685702118143 6.742830397688838 9.010382070497805 0.9534113320617128 -0.345155944114612 -0.587037359108589
Ni 6.1488138618253645 7.001143134983993 13.107224469496998 -1.783925989896489 -1.226305136276804 1.1848576677652949
Ni 0.5361480235146772 3.228257791725846 9.128606435647223 1.4508884263119657 -0.11528415198700145 -1.9488594294795014
Ni 7.416320718110478 2.9508427201603027 12.674691470661644 -1.3234735524997012 -1.731188293183141 -1.211920842530674
Ni 2.8113094350574857 3.910757954728428 0.03660730235611064 -0.11972856091160025 0.8759609630930334 -0.4432491861446237
Ni 8.960114121890406 0.664591495249282 5.473709660232658 -0.22313550184504152 -0.6881678453030278 0.46090340889127723
Ni 1.0992099698673738 7.650512400267857 8.780498964792574 0.00823190099148905 1.3297915242979292 -0.45682306817431645
Ni 8.606353938190423 7.714379522677162 3.6669683129743866 -1.0810871728448477 1.2596047788701985 -1.7164345319127343
Ni 0.17710946666111477 6.411035145902069 5.337236235110232 -0.017346718808563675 -1.0527919254445806 2.557274997153551
Ni 2.5943575637041705 0.19759080229597922 6.357347677610438 0.6448234168791218 1.3346714780980498 0.5533461375037309
Ni 1.4851376770793547 5.369746903339672 12.011161522038242 -0.269686095911071 0.1950045479367803 -0.8242573640711546
Ni 6.742784522726613 5.608425156802631 6.79470121747637 0.16878572344956735 -0.15775826199081217 -0.3629068403401298
Ni 6.672430680658728 7.487931534143321 4.791419604557065 -0.5948920792663174 -0.5407659868458752 1.7213659077760808
Ni 5.178292335990876 8.54977175978241 9.88641860663494 -0.5447105733159199 -0.19934174185955347 0.2086815312032406
Ni 0.5949248601155231 1.1736466835732628 8.00825086069197 0.2715210922372808 -1.1106486885520483 -0.17650597491196052
Ni 5.8633523218856 2.12850649730422 1.2798031811598367 -0.5971176261627265 -1.4104141203470033 -0.5974349002928292
Ni 6.605829410500827 4.336725328970176 2.3485686910963737 0.00865459035120445 -0.3327634839875301 -1.0644907019387473
Ni 0.4643509551352008 0.9382714273904855 3.158846221382057 -1.1482590427056547 0.07942009110054064 0.5879022782120455
P 8.657192571327897 0.9087719916814787 12.89736303230514 -0.9759167122530804 0.23806744056452547 -0.04312794153772573
Ni 2.1145788587727843 8.591545500384273 2.278203839037554 0.30114662841319745 -1.9396011441060272 -0.29109361505256964
P 7.2564556497496495 8.980207355344849 2.436163261467567 1.4189761509844014 1.086720459871225 -0.20160148442800765
Ni 0.7927413672256483 3.826265449302873 1.351380049720634 0.6545928375610598 1.1834237635322458 1.004192162159006
P 2.38295656278005 0.6614233703580402 9.391980098775011 -0.04473796633732295 0.006938121880729987 0.27208416382960243
P 6.587892300270948 0.7129675604145315 8.968000945396085 -0.18902596175584221 -0.08738871112831402 -0.32520366936240125
P 4.374847422578948 6.915742305306387 11.011272680385954 1.4829886492806201 -0.9452614492610686 0.5129448508685489
Ni 3.2350289361502202 0.6968351711985737 4.052824455245296 -0.4552945473449321 1.1516058476907005 -1.1746627295101641
Ni 7.5731763889493635 8.483610889261868 7.013331194947866 0.5114345848716094 1.3245441598560608 -1.123890126942987
Ni 2.7736369160785164 2.275471526287448 7.790936577137079 -0.3473277549549502 -1.0711863687913683 -0.5477704431881664
Ni 7.870556244075121 2.2908121136554063 9.855720916912624 -1.4678278823797817 -1.417965193221384 -0.06686333748145258
Ni 3.1749969605829045 3.1620326962581884 4.153283282523556 -0.43891970553133447 -1.763206755071267 -0.3911563221041263
Ni 8.962233545145189 3.947210199712219 11.194612884416436 -0.032311824758828225 0.5142517426054305 0.3572221312505267
Ni 6.241664785368271 1.0595923524900748 11.266320955369194 0.15816835294503728 2.873667753092541 -0.3106157442458973
Ni 5.496875598656914 4.433860973984873 13.401617864581924 0.34821735664875514 0.3693788212177187 -0.5081456297076926
Ni 4.771491520966632 4.818091307594538 3.8893719648384915 1.3475053966379242 1.219626438705048 0.1977769684755949
Ni 2.2679021575203633 7.400126856445139 10.751913993952074 -0.0008140112608631142 0.5314285114950332 1.4326384789628426
Ni 1.4247020018444614 8.322534721898304 4.493104817701168 1.228110564916659 2.338893465053727 2.2756582112431647
Ni 1.2529277932900857 2.36989137353844 5.695536205071975 1.1750653642652213 0.018233749399207307 -0.6741388780137874
Ni 8.021255494983443 2.506672160907772 1.3976009091605646 1.7010040562902768 -0.906822171448264 1.2896710021279594
Ni 7.5764426862597665 6.9670488630585545 8.549501097505283 1.2419037620460096 -2.012270803856612 2.207185106072431
Ni 6.822579432020354 0.07767548603895653 0.32389099579544345 0.911990860133397 0.13869096094671599 0.33017746842790874
Ni 0.5827129451712932 1.357531882154974 10.79285739773767 0.2113199972673522 0.5680014255230604 -0.40436562170554874
Ni 6.58467187792277 6.912283333154641 2.311989831216842 0.7879397605870431 -0.19674544188728696 0.6172586198869756
Ni 4.553943275104395 6.577680533679717 5.876015646458121 -0.08436277981779663 -0.897726379794583 -0.9530074117550749
Ni 2.1663349911547534 3.26688450991909 10.892538185656598 0.2647722035492214 -0.5949900382967623 0.2569352240033059
Ni 0.5911823806972276 8.487904785726103 11.98368608966259 -0.252716557936268 -0.7845793287552423 0.9259293245913601
Ni 5.337753704684127 2.9630546351045326 7.744192743127786 0.5588940639051536 0.407693143416885 1.54919866944879
Ni 2.837733413298945 5.046741294315167 2.252166127978027 -1.203436716319063 2.212553569473196 0.7953663920684173
Ni 4.268756984937977 3.500076117899969 1.8401117122798036 0.2751954557650744 -0.8986458062850587 0.4580191453649467
Ni 7.112591768212814 8.292881146316223 11.521892204921798 1.256592731516752 -1.7026683313665776 -0.4232460035498195
Ni 4.255636745741698 2.4610632734639197 12.508231417731382 1.121936859871358 -0.6586140429053109 -0.3652663417112419
P 0.07896824247445015 6.779475317513973 10.536842996049975 -1.0640662128068192 -0.2960116211794773 0.9028189638261418
Ni 4.193448646949818 1.933684707728127 9.988018802973352 -0.09957522589217689 -0.05538773274168526 -0.029977263088380626
P 8.846702040278364 5.348938020474523 7.461897493080773 0.38958897761700645 -0.07905139490721225 0.5816897216434305
Ni 2.44418128736521 6.84490218863892 7.05666468426537 0.37775238999339456 -1.416894071644392 -1.4857906375057897
P 2.8273381468588155 8.499162501456059 0.1072143742154768 -0.8244339988583349 -0.11194506031143947 -0.5759034539789565
P 1.8920944669751634 2.3605695812143694 2.5043398778282655 1.0042656957094187 0.4479861866089769 0.3951749563452162
P 4.001039880386748 4.179511833425938 6.579522872162664 -0.29531279534023985 0.649316933874101 -0.6245248145310857
Ni 7.6471268280556695 4.505380040093268 9.267565366222986 0.2818993501478113 0.4836029073713219 -1.335633584901003
Ni 7.4329274544358395 5.207945911572958 4.283069973152101 -0.17262823712410916 0.01369652365048609 0.9077603669918173
Ni 8.55264353241768 3.5907617432258663 6.234919330922743 0.8016874491904387 0.9506736214155757 0.28914677573884395
Ni 6.347700173054571 3.5052508136389218 5.685800620588639 -0.6366552792460326 0.33001934558348966 -0.3289477097858657
Ni 4.8649663439957935 9.040055831063265 12.56626966744041 -1.6877374210883578 -0.5544080031093419 -0.5530748861202152
Ni 6.9716822342432545 5.5256208499869475 11.403184317670531 0.43963395798953964 0.4838559039223925 -0.12922544465844193
Ni 6.050861642483067 3.4384293436623423 10.757258427051259 -1.2199401132907248 0.19078073966341982 -0.16250888930192012
Ni 0.9116850517827506 2.5160306532016223 12.924784332225368 -0.09735559253303878 1.4751352146744725 -2.2614132712883763
Ni 8.475087321280506 8.866474148997234 9.643416179232675 -0.7027861094368348 0.6812793457133106 0.08074652322144803
Ni 8.826691381755925 5.71586431833301 2.384423644071998 -0.20720006156170767 0.7960389926554097 -1.9879700223277184
Ni 0.55756796087666 4.3900228600828965 3.9294556718319944 1.1058530669356181 -1.3938135356758445 0.7573199788186571
Ni 2.679097793925739 0.7579497958743935 11.722568557177015 0.16027228666191753 -0.24917229222843537 0.19475515093013554
Ni 1.352256261499127 5.336515080704059 9.219236093519205 -0.33710273479283237 0.5624923227793732 0.5147304820140619
Ni 1.7431384646313812 4.298236235663605 6.990784568513644 -0.4828045798397427 0.6624354735339301 0.22966327566123027
Ni 3.970349530658386 4.7085602477867115 11.095107338853206 0.5528915664648155 0.455122540543442 0.5805316967795873
Ni 5.468056947387324 8.99974091426015 3.4951509819555193 -0.8213057376419984 1.0676017367639032 -0.9731931426743304
Ni 2.6675923533997703 5.1903941510257665 4.927679252355524 -0.40825698634015495 1.613509415711718 0.5373513047373714
Ni 5.469809370944309 7.504088695838881 7.7029263796081295 -0.3177248444868528 0.48238137625939503 0.0363397149712987
Ni 6.616839401434769 0.8695608264694908 5.237139820033548 1.138022452579311 -0.2976836095652615 0.5759085961852791
Ni 5.558935247554564 2.451200156585597 3.868181402287632 -0.2335042466738753 -0.06665790633886585 -2.5495501177054667
Ni 8.408348426235932 6.630785389951094 13.062869803520371 0.4434384193372944 -0.6792137214335334 -0.6997689198770658
Ni 4.632068335773154 1.7431659896087162 5.860424581796416 -1.8384855703099239 0.9065090110832195 -0.38768507572607425
Ni 3.4594125513839455 1.1242301742647558 1.3787206097073441 0.9972015897737859 1.7197386565853028 -0.1800445841928383
Ni 4.560641019589209 0.6244105333358627 7.7928302955777164 0.47235304548911555 -1.094985785203811 1.4710024234530217
Ni 7.4904363070807936 1.8508987508973327 7.366662906500669 -0.16040058470966567 -0.3784674137825482 -0.3196619136085656
P 8.238987240694579 4.5729263344729985 0.213790168956785 -0.08544032915269155 0.9351801537656668 0.8493107074953566
Ni 3.680832644057952 7.360206464317157 3.502280868584491 0.3661801117747629 -1.354532478688035 0.9461973308117769
P 4.440411918590569 8.751594068594 5.401329979832927 1.1253302018236233 -1.3252776955879757 1.0866417841144898
Ni 3.5583740198951888 6.3551043919576475 12.953602065995714 0.8038451189633897 0.36829484412492053 0.6208936455364017
P 1.4908169974027794 6.62127092278568 3.502657043274734 0.4724024106698122 -3.164373902898705 -2.3130669909089256
P 4.927044342878334 5.98534302143367 1.4919097390029732 -1.4120912509391101 -1.3320440677775318 -0.2245218406696069
P 0.9369502284784127 8.210407139228556 6.666808245288461 -3.1902127183386795 0.2404156290817279 -0.18007260921729631
Ni 3.4901029011123073 4.087266459384399 8.827619890991354 0.1537522261552126 1.75451976882023 0.47142564857883973
