# total energy = -381167.4148188919 ev
CRYSTAL
PRIMVEC
9.25862596235054 0.00000000000000 0.00000000000000

0.00000000000000 9.25862596235054 0.00000000000000

0.00000000000000 0.00000000000000 13.55093497215093

PRIMCOORD
 96 1
Ni 6.63749026691387 6.782591449317886 8.515394176692489 0.4646803594352062 1.073761328607396 -1.2249177690109743
Ni 6.656090846000755 8.323763770694077 12.703079851942539 -0.16524197196236703 -0.8125678435483682 -1.5858278906360495
Ni 2.876145789171485 4.203906787524924 7.269954397271466 0.030740880727282545 -0.7358281274934683 -1.7596645462459628
Ni 7.2397175773700475 4.828910317271165 11.753701295690016 0.15254406477972438 -2.275914036007713 1.234608256825861
Ni 1.8475124708275488 7.774782816797719 8.275284680521434 0.15939939713866097 -1.7799142976339346 1.1383479542395298
Ni 5.306535042684384 3.4948997465515497 4.0674485322376865 -3.4611252304576845 -0.6524297684714699 0.7316678254681915
Ni 0.8241149053326094 7.3633017135829615 5.162607854022636 1.2281974682035106 1.2937803963106427 2.7461168679230448
Ni 1.1153866414121867 4.346758123877117 5.280379425003722 2.399291249415494 2.76207879056894 -1.481716724546732
Ni 4.388671922546271 6.405033950769305 10.972381610195834 -0.13251954202868146 -1.0991355457061265 -0.9913662140389312
Ni 3.331170209183466 9.243200857205894 11.147581658977925 0.569696039616664 -1.5561460473009006 -0.290458552571732
Ni 8.83737677431074 0.8068429390376444 2.700037469205508 0.5088089743233044 0.7707524501744791 0.7367647803751247
Ni 2.341700877667566 2.790299811424545 13.077790323079862 1.116659927743135 -0.8239658009726648 -1.0799929113394047
Ni 5.463552076399909 1.2146854023414282 12.065169797931928 -1.138374436602091 0.18333302513612296 0.9862201510616175
Ni 3.67067475599133 7.472775704186911 6.806580548578273 -1.769329837249869 0.9663694348842776 -1.4948897715935803
Ni 6.765509284850337 6.693032762654151 10.730768513206606 1.4068418296147127 0.9678331639139977 1.344043663341569
Ni 3.1800416614307374 0.3624890851768011 6.054123702927526 -0.032967198954639995 -1.4498124196389675 0.6661010953109754
Ni 1.269070569865751 9.165891332379864 10.280687273470628 -0.4958958658060621 -0.1568491199129815 -0.9487098128209854
Ni 3.628168405275606 8.766918632523186 8.888667709116877 1.2846984886140327 1.0028371907930085 0.29517575554174325
Ni 3.8754292639587122 3.9862272380417174 9.424973604392058 0.914116134006516 0.1165380789987606 0.6070361708280192
Ni 1.7469637954250723 4.39840273818605 0.8595624797935597 0.31211161206513344 0.21306191965912338 1.3235123761574368
Ni 8.76090978442593 4.811087462745404 0.4276364792469655 -0.09395916525698013 -1.708048364731568 -0.5330560197961272
Ni 7.638125501057337 0.9758591516962271 11.509350423073116 0.9483532008125151 -0.06638279830060825 1.1885014351654692
Ni 5.698313790350664 3.0700584464117675 8.088119709711476 0.6394104733936665 -2.272135285691571 2.127224311977072
Ni 1.5934002291059677 2.723804361448432 3.231423330769005 -0.09470787049754657 -0.4201894761116828 -0.7734711346572227
P 1.5463016000293195 3.188179993445358 8.629695614750844 -0.6351267584166481 -1.054944710121525 1.153510520912581
Ni 2.143205200692088 5.615430572836578 2.9275033860828596 -1.7213090863962164 0.5372890840408683 0.8901969041867572
P 9.533977256809042 7.205831007206781 10.247271041494326 -0.7540011988580692 0.002991735638472267 -1.265578737065446
Ni 6.325696786908916 3.158941253397382 -0.013651843635446744 0.7323689653002742 -0.3901746749171474 -0.3307629086177336
P 5.569415202970068 6.907656965647227 6.544315161040908 1.9419192507162426 0.13446123913608454 -1.260901386194435
P 8.57063576709662 2.8050765780859033 12.67765844328208 -1.1020843439218053 0.7675000046754524 -0.5892569924677271
P 8.956822304823389 0.3641556378077814 5.913099093431401 -0.39920233233705443 0.6118662452268108 -0.7962500802249513
Ni 0.8840450638052327 7.558816113074132 2.9229370318739742 1.2695246090870718 1.4365750950130871 -0.3480463782885296
Ni 0.8347438076679724 3.0581148192230754 11.02757412988361 -0.045980580495172424 1.720655254862301 -1.0915124819432298
Ni 3.0967047712559963 4.750915654141289 11.941151432172386 -0.6594907890833094 -0.26556924552922 -0.11361730580753981
Ni 7.277270563321469 2.611552783126183 10.138294239091953 -0.4303314496416911 2.2123910757534024 -0.9550974615148841
Ni 3.807359847608896 5.590191559102955 5.263142641486522 -0.540637945908443 -0.10530004419109606 -1.366585553197827
Ni 5.168174139810111 8.26891567188337 4.570093767817356 1.4246824573405594 -0.9821704064722762 0.3300748814117735
Ni 7.625617097699257 1.4251154478798707 7.71725712342657 -0.39372485416225095 -0.25646908300016474 -1.0114562999205872
Ni 4.250098071280261 6.2645805984805785 8.570695022301278 -0.4433553727051848 0.2038080051610232 1.7718541463336195
Ni 2.9617695599009597 7.98704607023024 4.1928899487715725 -0.3632968766896969 -1.5962226036068123 -0.6121410961547522
Ni 8.434598779279993 5.0550152161665505 9.265668764259226 0.14929624726638802 0.2668784512589468 0.2857014975027209
Ni 5.3292742274715375 0.8898752204259455 5.76688502421492 0.2048642143396794 1.9507882710710984 1.903625754452683
Ni 5.77766021283678 7.780856475275069 1.236830183356865 -0.45071412706310116 -0.8928775363427138 1.197034412337145
Ni 5.983396135131295 5.880171716893523 4.100743476216954 1.0473234461308414 0.4010265300299868 0.29345465908557844
Ni 1.0816852437634745 6.65706300170216 0.4300094650209669 -1.1501488035291998 -0.28930104192852113 0.5854221921026692
Ni 2.069191746625108 2.1625094353342758 5.431255212274084 -0.322406052012606 1.8238464802405105 2.371318161241335
Ni 1.9676523982697711 7.194924346099588 11.582350057622916 1.6172675972025696 -1.2430458460702527 -0.6464982334783833
Ni 5.236762039200677 3.6366863409450603 11.435403631111374 -0.5643044362874475 -0.18671274024163328 -0.7365706620864476
Ni 1.3869421340046946 0.32477592500029023 4.307164536815317 -1.386683609499283 0.5034981036333522 -0.017747553791408143
Ni 8.612605117520141 6.002441128253109 4.517217756286644 -1.6666859997346974 -1.5313220462786852 -1.6933054020944387
Ni 0.013171320960180765 5.917002530038186 11.944661377185744 -0.09666370867233674 -0.25236817345791374 -0.6937221994623536
Ni 7.482006554037397 0.1475473113212658 0.9037020520876451 1.0810408929879447 0.8187354058116609 0.4871296895776578
Ni 6.8792885364176515 4.8487700694570135 1.7827881959531389 -1.2332913377866503 0.028725907179782784 1.0624782994944089
Ni 9.051945425549452 8.451301340092707 12.106092923648223 -0.9479117423997224 -1.682048855344013 0.32385229754082934
Ni 6.721919674924476 2.353431556464522 2.1658184681693444 0.53345762610992 -0.10910604820074757 0.6830235820979269
Ni -0.17549169549251392 3.9631547427283684 6.959692293961868 0.32065050277408 -0.14230644621211622 2.529663406083869
P 3.445690150808993 0.9401764081417939 12.975670458891399 0.6165708497913317 0.9826679149339851 1.5412907274556231
Ni 9.085119081531687 2.630884793645554 4.924545439999968 -1.9122782879213582 -1.705414783763463 -0.7556518470876147
P 3.2606472570158167 3.968413642141684 3.5885451906114767 0.04515808459387707 0.34482581446870286 -0.18526032406582288
Ni 4.339508619932352 7.816057770291664 12.692022275235985 -0.3771255550426731 0.4525367820941368 1.5666816567249018
P 7.4589155414725905 6.412098282199515 -0.06969615689016782 -0.9038276075963143 0.3778158962414784 -0.21126034767401036
P 7.219515256032275 3.6282239570299715 3.9785138769479973 4.91246257138161 0.7825389012864459 -0.6360564693197691
P 4.169335079057811 2.785901964203903 6.009785070180295 0.5466005912497813 0.06212556568615108 0.9117656314964685
Ni 0.764681009198989 1.2115652454712038 12.309045703049 0.23487233066599553 0.04671540177866793 0.15240445387806656
Ni 3.030357459291526 7.785059891355431 1.376585435265725 1.3541079895561066 -0.4022557744513976 2.560690707703319
Ni 5.862858086782783 9.025363911085316 7.821531469821861 -0.46964258853648794 -0.6019435867964601 -0.19723523703951196
Ni 7.517494866451548 5.708664933914196 6.638738329661959 0.5733048400138449 -0.7101044974751191 -0.08219996783852296
Ni 7.277085390806915 8.237834465315588 3.390321717232392 -0.2676634090540874 0.09100008262865619 0.13628852215281043
Ni 5.145638644788966 0.9260940384100107 1.0861043858232906 -0.893843499800409 0.05414331881162288 -0.15157424466728736
Ni 8.93807358772486 8.125388455853058 7.77792519436969 -1.6410613571880575 0.1992062447229537 0.40988629441346186
Ni 5.211069352806397 4.843529687295153 7.053898810740892 0.003978782142089922 0.5190761605772674 -1.7287208054792549
Ni -0.06071714165947522 1.4769544933290848 9.335157527933095 0.9987103131088284 1.3153848619542958 0.07210993059237258
Ni 1.8938333753430727 8.663657179782504 13.299795502503034 1.105241144383232 2.1792999496263885 -1.9935991955890375
Ni 2.458952113882756 1.2544141653388523 1.5371235243454822 0.8476222640493402 -1.0792436918782056 -0.075891766232308
Ni 4.2833735721455 5.648057969900881 2.317142372924926 1.483208735711226 0.7818236203869761 -0.2802929248926399
Ni 3.5271938330896564 1.6945229393035595 8.181837371052078 -0.48012677589726344 1.2143567056656763 -0.5064011362127601
Ni 5.19894981172888 5.466672233270133 13.511691188494167 0.579633353335034 -0.2625805952145413 -0.5653400766408134
Ni 0.43423047249021085 2.3751985855502697 0.9465805995576221 -1.1696655334058887 0.19956028562826275 0.5480635489485529
Ni 4.174306961073569 3.4550506214196655 1.4888814549914668 0.12350448301426473 -0.8537718285905037 -0.062083913814938246
Ni 0.012807456969083407 4.277753586328806 2.7153095723432967 -1.4048985898454127 0.3477378459091753 0.5793060519026023
Ni 5.399176851715432 1.224592131870033 9.752540079186666 -0.19277745837847446 1.54261253159084 -1.0889647758207117
Ni 7.001150568245221 3.2682856232411432 6.224255579986292 -0.3080320426791211 -0.25076663329874876 -1.3840981081602939
Ni 7.1001067600225385 1.1511897471010797 4.539643999524201 1.502486867214548 0.0818775515020977 -0.5100783279540313
Ni 3.7036354635818287 1.5774846514801062 3.9767519604720216 0.7641765967291743 -0.32204584045970985 -1.4881293129412954
Ni 1.2481090412183102 0.5596867028252603 7.414705603622975 0.30548973587324163 1.7070183808051569 -0.15032725963406368
Ni 2.041656593711023 5.362244193687763 9.09886999246242 -1.716656161005237 0.998723682845267 0.9633884978790828
Ni 7.516004227709392 7.9250595709835014 5.970677560969197 -1.0459646181101017 1.2012024276719055 -1.3224728791493288
Ni 5.4396463047710695 8.440394678985513 10.448096188702884 -0.12653067143509822 -0.36784721506454066 0.2507236958759553
P 3.0861129034235435 5.953750015551301 13.777777610869341 1.2908123148212542 -0.15645574112930474 -0.2862324303055264
Ni 3.1237029238778766 2.120938205817046 10.664327689122285 -0.23786740873857748 1.4357883374457336 0.29573728447216807
P 4.2393025136818 9.02896551649338 2.788606408778955 0.5792065502102606 0.10494343218262572 -1.070458232376092
Ni 7.622293251063024 8.905223983643094 9.554926749243036 0.020220697922249047 -0.44077552779315055 0.7436882469678353
P 6.116951811252909 4.997583960777825 9.548178136950138 -0.7183371697975565 -2.1477964797014693 0.5199140830975304
P 0.42730409458334223 8.839200723579092 1.1287440607494936 -1.5021287125441807 0.20083298169309927 1.1394933806978826
P 0.7289603052790723 6.377480280603764 7.18821554589732 -0.547605892585844 -2.7351883939359993 -1.170687804022816
Ni 8.358428065418467 6.7914889886421745 2.0559880204748806 -1.737808626713136 -1.1697478087070499 -1.7889550676799642
