# total energy = -340873.6150616882 ev
CRYSTAL
PRIMVEC
9.19835362031457 0.00000000000000 0.00000000000000
0.00000000000000 9.19835362031457 0.00000000000000
0.00000000000000 0.00000000000000 13.46272030716255
PRIMCOORD
 96 1
Ni 7.582267180165808 6.893963585965314 12.403190478704577 -0.054761926232228274 0.3876010006527002 -0.10119244978062572
Ni 6.434882961034438 2.622560963659697 6.479284333223899 0.5752776474694996 0.17609305574425801 0.7152377049366262
Ni 8.643499620397531 8.022049659449506 0.8383287398179703 -0.3274600694967457 0.06109943841448187 -0.33226366153297615
Ni 7.23487296345611 5.004676966777346 6.923405675854487 -0.20676991600282454 1.1483541735226224 0.26892839180944006
Ni 6.137031076286463 0.41217086174142126 5.615058548956423 1.6704652642714715 -0.17867084377376327 2.1324570211309206
Ni 2.869904689328239 2.613215436501674 0.2852142668715894 2.035085230647966 -1.1593353551244745 -1.451674412548371
Ni 5.297828492885803 4.8722666681161835 5.465770191454457 -0.6328639305244004 -1.4434967618335848 0.6258075378982513
Ni 1.703323506438213 2.767812163809639 4.6493500900075295 -2.354731203416932 0.2586342089722836 -1.7480914966963828
Ni 4.265607659599362 6.104358524647391 3.706636594978263 0.3581541561464929 1.0090158087998944 -0.6768948434923697
Ni 8.896923457730889 3.481172072949558 11.18310431316417 -0.6889425186855231 -1.0282821132286741 -1.4658273070099852
Ni 6.354654921790071 7.771054187440675 8.6352845708849 -0.4503096925358309 0.14351460758760445 0.6595463249115932
Ni 2.1146922717542607 3.7956913742431406 11.523536296108212 1.589767849120404 0.21466551670081738 -1.534992553151737
Ni 2.1470888727882733 6.99991941995475 9.21637583600759 -2.280750538164407 0.38699884829232706 0.30062572291272094
Ni 3.6385191079546186 3.5251218059820717 2.380424425908633 3.9141862604864075 -0.030475542881037838 1.5112239899772295
Ni 8.82731031842782 8.355885503097271 9.043582005966634 -0.6166338418187831 -1.5272581606219569 0.7651641574534241
Ni 5.505628496849285 6.503751033703846 11.020232747045814 1.243556467158084 0.10384634246370503 0.005988870593583234
Ni 6.165343608365592 1.572486126225891 11.815838814188437 0.6071755246193608 0.5138282819147667 -0.760371106940155
Ni 9.19240216727535 0.6568185499985294 6.889264147161146 -0.38477561538876315 -0.4014191374827151 -0.5719161871964344
Ni 0.6944812084124321 7.480514993726783 11.288854104035162 -1.61125455823927 -1.2789641572334167 0.41212135439156766
Ni 3.7452843970522296 8.172470334267569 1.5618776651320445 -0.6981031021388687 -0.7043174584796966 2.113451683673012
Ni 1.2156819938836547 4.636071346892055 9.394326263021759 1.3353872732181518 0.04478296064264546 -0.08143223643456299
Ni 2.1643817773720166 9.027641259347684 10.751099041766405 0.4932139480985248 1.3137277859668473 -0.9935601363664566
Ni 2.454369069875789 6.529966341184521 12.74066059182098 0.7408399788857628 -0.6344798688612685 -0.6354936548377635
Ni 4.105648292199737 1.9880401423853444 6.112681194895993 -0.855765719092081 -0.5208821034377545 0.8828944569880731
P 3.1702125344612457 7.602770310121747 5.416146913981916 0.6525135864345278 0.25578465533863043 0.24474253859185593
P 8.591878460544356 2.74850481980896 6.885454189140622 -0.24617901392806632 -0.10128809481822557 -0.2930787638033984
P 5.858136998106092 4.02934794990072 3.0166055499900946 -0.4113104284544981 0.0909769427002046 0.15624259667723414
P 4.698638547412599 0.7586222472171664 -0.2773432357799356 -1.4784887045277377 -0.21730912497125154 -0.7622518689026356
P 6.716959669526498 0.6006202894427642 3.263565704317603 -1.8111619427943066 0.6794078397222105 0.7327849697917702
P 3.2718267455977417 1.7255559268525256 3.80386503116501 -0.22495172911817388 -1.3986186703739718 -1.4718814836238652
P 7.075023976298508 2.675101958863071 10.19552032991684 1.700829992606258 0.9605826529991714 -0.3637033680994962
P 2.8632082879787895 3.8011092044558135 5.964725678816465 1.8366945398477723 0.8549874461651599 2.6476420741838984
Ni 2.2836844222928416 5.762161377666317 2.554254910389261 -0.8749926856424931 1.135090880754813 -0.46023132252491705
Ni 1.835926970522917 1.0756922519368517 1.98400114536262 2.960821979612546 0.9580755703066015 -0.8286580642420117
Ni 6.597482255889136 5.965031064152731 3.578269892516577 0.04647886028782963 -1.5873119313807436 0.22029211885897543
Ni 8.336808117934142 3.9204854362046544 8.737951993497376 -0.7737498422399061 -0.48759428791890214 -0.05014911005056524
Ni 2.465480680906195 5.575103660849825 4.994507267145544 -1.486137222211931 0.6385728079837196 -1.3151899723346703
Ni 5.304018984792644 2.2630709120948795 4.251069661889465 1.914045664234426 1.3604573288129023 -1.7715720963168264
Ni 4.052288643534686 5.583639732899671 9.414964608774177 -1.5555690917515081 -0.7671904438548336 -0.4220447841528667
Ni 4.855654441691588 7.483246904716874 13.189520926175794 -0.09435871468824394 -0.9874689358670542 -0.7020461459470166
Ni 7.851999698258197 4.542570083544315 13.239441310466448 0.20192158677158772 1.5129533139635105 -1.5179741642168696
Ni 2.5256287144557144 -0.33199709278271633 13.163806928960975 -0.6447033463614896 1.5076563272306294 -0.08170708736250444
Ni 8.917656546524377 6.56830507858082 2.7782072231022394 0.9198679488886286 0.6245207007660276 0.5486608162129196
Ni 8.620043818967453 0.5425253283948887 11.251562139267389 0.09486676467291404 0.4689275647473343 -0.23392873580580356
Ni 4.863850174661861 5.557378433651488 1.377546340293543 -1.3040614665216768 -1.1014575089710836 -0.3811051085157114
Ni 8.200681684458175 1.4875577283420067 4.438914757765727 -0.21125777657084907 1.0613863519818107 2.533056490925818
Ni 3.692053525336207 1.652272644502162 11.436243921374315 -1.2525224181021204 0.6365691472901295 0.4336785117370531
Ni 7.08496739643416 6.243446827950999 1.2738183475222893 1.4169192684553729 -0.16249346268295242 -1.568577588196034
Ni 8.63102665304883 6.443106289065217 5.2482935196068805 0.8179357927285011 -2.3336941802409745 -1.973421949310214
Ni 1.7401997056276952 2.251425796561359 7.05318616524943 -0.6691146853263186 2.59671083455167 1.318320290433536
Ni 4.686018406407867 1.128076875130691 1.7191759488635443 -0.36736564744243183 1.027268070141863 2.048257763474182
Ni 8.114667880861056 4.23400211696652 2.434194321139872 -1.610997962143774 -0.8366094578786044 -2.4987268644060125
Ni 4.585379220742582 3.874493668694699 11.391938212061277 0.8509161043092636 0.6396961229548854 -0.5309621133815758
Ni 2.5479071266375373 5.592028631293488 7.337667323346911 0.5445611922222492 -0.47966397732823196 0.31631073774814555
Ni 3.239255375847191 1.2532020778182766 8.546040305537883 0.2727511079896399 -1.0822400555023686 -0.01371426426229896
Ni 7.106804287647886 1.259116619120057 1.3761325533602868 -1.411029385333499 -1.3970528685487489 0.4948504552606832
P 0.4748447631625881 4.692172104900699 3.6214451241842225 2.015314218668626 0.16275931474982935 2.5413606399161397
P -0.1950234909492161 6.085446709847297 8.364872294468716 -0.14000633732402984 0.44800187033826067 -0.6923728845233109
P 3.495530702766166 7.222915103903521 10.814711175244776 -0.39574805523986684 -0.10471023312589708 1.4406263822643253
P 5.357443021932209 0.7161028581542124 7.685786370312567 -1.8850744738130567 -1.0687723600332368 -1.5047085574562151
P 0.5306272581400632 5.39833890160206 11.890126556741215 -0.3463566492909325 -0.010942872164748896 0.1414376704539177
P 1.2367002316357045 1.4487682716241101 11.988457875512854 1.5537762615171433 0.5123835790484401 0.27824324145246276
P 5.240357180205363 6.196434043202322 7.655737189092263 -0.20325753197419186 -1.121391014670217 -0.9894358297854379
P 2.805093090553209 4.7731084173647185 0.5864539052143478 0.20269008950649609 0.03158086013007465 -0.05482466114936364
Ni 0.30942433328883007 1.871129069375037 9.036730152443003 0.37363502539091137 -0.3783766538409548 0.9120050012007841
Ni 7.243188275021909 7.96228795674707 4.101538467855047 0.7404838810979247 1.872016612187834 0.10886539294485122
Ni 6.6086398586870505 8.989090959820839 13.203845522084444 1.4295778377596478 -0.9374838621981789 -0.5253972176992887
Ni 0.7710584211518585 3.2189270146077904 13.184418599488238 -1.5601999056553 0.4224939558751433 1.7289478338883966
Ni 5.438839252071328 7.207047944112586 5.484321430797273 -0.15340975521412933 0.4586524080735714 1.8846615546453542
Ni 7.5700517667151646 3.9042227472131343 4.696146713448909 0.27128275097422955 0.054399914907119214 0.3912051730641907
Ni 1.5755123845280459 3.4993020277019826 1.9749674423883148 -4.342464427143495 0.14260572262008991 1.0614038354833075
Ni 5.488206815316515 3.097269591190456 0.23782802897073185 0.6142306316939293 0.30693443873956816 0.161512843937238
Ni 3.4784217652524627 8.146218233372885 7.6674503724416985 1.3279866098787065 -0.010187224945646972 -1.2596292043502306
Ni 1.1080612579103584 7.642277238412799 6.7555118087240436 1.0863137113511097 -0.8606459300025178 0.7472245422558679
Ni 7.940092329746766 5.623146661190725 10.431884900845406 0.8154019705630539 0.7543241294151266 -0.6666837072873227
Ni 7.891295064418703 7.749162106105936 6.771936388737199 -1.6758149586191589 0.8959703163354248 1.5712769894050682
Ni 6.078566341427807 4.6440371210247795 9.308017192277227 0.9854961284113996 -0.7412544407153621 0.10069391287765239
Ni 4.577082305883786 9.191841067711728 4.176795716866938 -2.0619743417293264 -1.4062576749764686 -1.7272997567620123
Ni -0.08742943020107556 1.0306939066051108 0.27158046731093816 1.3809716467161701 -0.9564395773650755 -0.3860578245352964
Ni 9.266697268510931 0.3747767952497767 2.906480102358206 -2.4183693490928673 -1.8713926054505898 -0.49563875548993347
Ni 4.539323064758112 3.702438466439955 7.743958597529859 -1.1117231525631497 0.5740890264780371 0.0046264430284178384
Ni 2.0005774982085582 8.50855977452332 3.6545895513579474 0.9019689571210209 -1.396329617229479 0.6856916158483933
Ni 0.6422078852959666 5.724503318429164 0.6580980409706564 -0.222202705618127 0.19686859772871254 -0.03138237096602337
Ni 4.780743050771371 8.988456273429202 10.515474938294751 0.6895248735515543 -1.0551755951854085 -0.09242678777285372
Ni 2.180984805443111 0.5504975413750645 5.767254506000369 0.5675149728049451 -2.1298072422128995 -1.3730585625166807
Ni 7.285233948879511 0.8628837444915357 8.347801990039722 1.0927198719877698 0.7200238134713599 0.2618457739310458
Ni 5.340472059721035 1.8608453101598113 9.433839630160263 -1.0324203037667639 1.6207193031965959 0.6022505765139177
Ni 0.5078880084477909 4.484270919048695 6.176090044761969 0.02643325449086415 -0.09231674455755069 0.14669094843305705
P 1.4009000399997482 7.970005375335241 1.5978634637025344 0.7355550763377396 -0.3368487098004973 -0.4257114343711765
P 0.02807981373552835 8.547505603250752 5.030681631962825 0.4176911351698613 0.9444446097867284 -0.6545365304018276
P 5.752079982228134 7.482225887478153 2.139280390500433 -1.6497982228404233 1.223823250395215 1.1197781616571423
P 6.980943216680142 8.501403455498771 10.777809220665487 -0.6609257217576231 -1.2849100904042066 0.016399267293629824
P 5.894875221993045 5.227249526465026 12.815109305560046 -1.0693416022731455 0.4028054763072804 -0.21726927287225165
P 1.5115194392146936 -0.08215417446768365 8.611550059343713 0.9558896183988763 0.4820988120219697 -1.1379987984302273
P 2.9930338493058923 3.1180670684584575 9.40680658905326 0.2742310349692761 2.095150828481295 1.297543977118133
P 8.053324061356276 2.828282139731729 0.7096713693856203 1.2672386412663723 0.5168827524703744 0.5364881854061276
