# total energy = -340862.89387916814 ev
CRYSTAL
PRIMVEC
9.22308661333446 0.00000000000000 0.00000000000000

0.00000000000000 9.22308661333446 0.00000000000000

0.00000000000000 0.00000000000000 13.49891954249902

PRIMCOORD
 96 1
Ni 8.003278158882923 6.9598334664078845 5.096436074131242 -2.783094987809291 -0.4492928212355424 -0.4501600543318441
Ni 4.132164202639676 7.313575734295413 10.868453104779844 1.4917170302925535 -0.1751923983068596 -1.789042742297764
Ni 7.920593186478175 0.6482907652347706 11.298501658299658 -1.2072571185064176 0.44022736859916445 -1.2879499056717947
Ni 1.4280289623393083 2.4456859043577195 5.178536302838225 0.9277501798501829 0.09390542920090925 0.6355479051144667
Ni 1.5082421475042935 0.7075490973820661 8.746557494200962 0.534183448532351 -0.8886074482124503 -1.004823882205734
Ni 5.664948983894002 3.783254832191086 7.60927342824741 -1.2629955497193024 -0.5748953244294164 2.4879457146301087
Ni 3.633324334543392 3.5285869618018064 8.792265267345797 -0.6057056249420536 -1.2475769011713869 1.4744155628996285
Ni 6.342061895114811 4.353573622332746 0.12077632053989644 -0.8649777246086522 -0.3407549868334389 0.042546615112958985
Ni 0.7292713112144878 2.8832568074027214 0.5018484389828906 2.3428707045339197 0.9495101972350938 1.1560685114477445
Ni 2.020363260470944 6.888502113749957 11.500836812356336 -1.0100468211675702 0.7713944546338521 -0.08349374694928201
Ni 0.9923303458975591 0.44084786575503104 11.113512363428882 0.7829744461619678 -0.3896475987690838 0.2150594097051264
Ni 4.761566086281036 4.419177438140328 4.85372593566865 -0.3847275357596471 -0.716605017597798 -0.1990632913871862
Ni 7.5188078598894394 6.020591207644929 9.831007107904588 2.370817567455833 0.9470103136313756 -0.9823588683339985
Ni 6.2060305891474234 8.635981907568445 3.83424651171525 -0.653095941300559 -0.5408971131071006 -0.7827463893115616
Ni 3.7271600187872185 5.191832304647337 2.272245758672133 1.3576769378542877 -0.8821023001040809 0.5054824810532327
Ni 2.3993860090457466 4.109032701157121 11.815253683106178 0.3362966939517692 2.4566157941685756 -0.532344081330767
Ni 8.143284615224706 1.8548826386208621 6.554103425630914 0.5616705982090261 1.1017950948161606 0.4086791614792381
Ni 5.447367145187877 6.518149066687755 3.759097723465764 -0.7947765810032184 0.19203775199897252 -0.5304023842233639
Ni 5.205630042373774 8.094134786117634 6.1786038961814445 -0.05543067016447873 0.7589737123719962 0.014838093454097027
Ni 1.8851435861345238 6.197194872073943 3.3883370159707353 -0.7210250010423647 -0.40358683455799527 -0.7062023342072354
Ni 4.371023702398533 1.4255848443596923 5.494559835293913 1.371084469509445 -0.5602816882812997 0.9453699498144751
Ni 3.2803014674196747 6.550642001186575 5.398326148504048 1.1636836047908412 0.6141486135030843 -0.7413156329706008
Ni 0.631460476596267 2.7264182178050937 11.784476242736446 -0.9002077514555399 -0.5520235620375654 -1.6497704549262813
Ni 4.709215846083675 0.8105525298211316 2.386136122670213 -0.12944681664062865 -0.3239782815957324 0.5401790039941535
P 4.495323242063764 5.311787770469551 11.955857795467125 -2.7714651168798463 -0.5062934069903022 0.5325937354477279
P 3.938931312862557 8.869464347772148 4.216806314045459 -0.567774654224235 -0.5216853160653402 0.6434239654284338
P 4.5436798857133 6.119361243281566 8.57205669354309 -0.3486744987908318 0.5997663766394832 0.17380580237197807
P 2.990825667765976 2.150316552292795 1.6047377699568792 -0.36151227398544833 -0.7656408399795266 -1.0125976126138818
P 3.729004636130325 2.998296368005557 6.79954083083529 -0.46441245048580015 0.9180895168319672 -0.8143617022239975
P 7.6371492855364345 0.6086859085696029 8.846867785319091 -0.3758852548776688 -2.701343677472412 -2.407135942270893
P 0.058263161090689554 1.6900107404940057 2.2754858290352997 0.2664501054722766 -1.4760307299055482 -1.1427406839905867
P 5.518818397973106 3.7503007433564894 2.117764590038995 -0.4832295831923033 1.1265995554543502 -1.4745819132741635
Ni 6.1203112212132655 2.627583620561449 3.726592798954213 -0.14865012904195687 -0.05094743758214451 0.31442560491029076
Ni 9.03384742230308 4.073348578654726 5.8033340215911915 1.5458528929050086 -0.10678279938420965 1.8808254687287154
Ni 8.520997685485902 8.281105200014904 1.1352780445929238 3.196111343211302 0.19144819804408963 2.635683616270441
Ni 3.0926300989320223 1.965236871172207 12.043290812913028 -2.6127817719716036 -1.8876167806189361 1.662284271122576
Ni 4.750821190257441 3.1572747137211885 11.619357165885614 1.7221395527173116 1.7331397604825571 -1.7178522381958672
Ni 6.457857748828319 5.771816889666876 11.794680665878511 0.6074344347077023 1.5554816742440243 0.7644383350309931
Ni 6.152296885942732 1.7420105033961768 9.665901865683827 -1.0222742164716976 1.6654919794265959 1.0667368176604468
Ni 5.429003979537252 1.912914300234992 0.4153091386397219 0.5213353889250892 1.2844249232376719 0.05104282550942822
Ni 6.025258089522988 1.1993240810542523 7.230439752950275 -0.6496964287007069 -0.8008888645485432 0.6593848596330644
Ni 8.376960740249434 1.3918744624144215 -0.06762459410695491 -0.6154395644003658 -0.641456814399734 -0.23256013759305108
Ni 6.904992992797329 8.777307265310547 13.38656790911464 -2.365512353192836 -0.7662501914287513 -1.069706698922048
Ni 2.6861133288582173 5.380942474662612 9.741224970272238 0.9149926230741985 1.6113376048713797 1.1135373229537533
Ni 5.67626571129396 4.690972580560351 9.839443465323285 -1.1492399185616853 -0.7694357882455846 -0.3593759443687359
Ni 8.83532970383796 2.070011136260655 9.488660885962771 0.5105128443882886 2.316905905039042 0.6072171764905736
Ni 7.00445475993763 0.7689564087340806 1.8642145577596378 0.22476866657309033 -0.20526350666062712 1.1431201788171927
Ni 1.297171808019335 0.37049877183230784 0.7514002631710647 0.8988072715635875 0.7788815070395166 -0.06852684122680457
Ni 0.7478604424896433 8.027866908066533 4.3738524230941875 1.4208998503696755 0.8710211025892547 0.3167539959331513
Ni 4.520769738311917 7.419733462391191 12.983693335984798 1.4294451688365253 -2.2587323820221035 2.1515407772352493
Ni 8.631167456302936 5.957505294510688 7.525472462350082 1.8918465024295674 -0.5300704548052418 -0.08361484590817858
Ni 5.442202216627178 8.347575985973748 9.063566052317869 0.9510829410388524 1.7079568334590263 -0.12734442558564518
Ni 7.885444003005282 3.9264063611028646 11.098298881891612 -2.4989160975986833 -2.7223537040651764 -0.9668772277586315
Ni 0.559121040560332 4.700868952606118 9.339646240825928 -0.7273242037875152 -0.12848882360273356 0.038163912664231046
Ni 8.620680806707377 7.684758859162013 11.704602467162593 -0.09733708059027753 0.6050924168380869 -0.9963927207192451
Ni 3.385241748069002 2.1728762223989873 3.7238526198910282 0.8362209641909341 2.321536204722202 0.2702185713757733
P 0.4893843595955201 7.120139936610552 9.540132165996141 0.2642800944041513 -0.9773824981653296 0.46339326519266644
P 5.8140217344771505 6.054181689462898 5.8364467475172965 0.9711218619675985 0.1491365817600722 0.5487736876417
P 8.49697154459194 4.445878274181794 13.105426090617096 -0.044830268940813114 -1.9047668100356618 2.446643513447212
P 9.031606212231205 5.353402337730033 4.164983634408227 1.0760069301084632 -0.13820656511112972 -2.61198704398445
P 2.9503363170847887 9.107502992813322 11.80099848027865 1.0212761142244864 -2.361190071668398 0.27079141316010785
P 6.513389953942539 2.231535053909773 12.12112536401408 2.3257723542907365 -0.36168479500757067 -0.5714711292392158
P 3.8323124304310032 0.8822426605522932 7.87409499480182 0.4074663721180596 -1.4268511828571038 -0.5460349485542983
P 6.01774127384983 7.1635714519539935 1.5302244523820931 0.11201062344205226 0.7091585886220819 -0.2592818698586115
Ni 0.9243561968040855 6.256065834579187 5.711339265455786 1.4779240902735191 -0.7141560418366732 1.318144169866988
Ni 0.12337999791969122 4.857661426770168 1.7682234381503916 -0.5108095496931009 1.1167676569655927 0.5498949457303368
Ni 0.05367283083236909 5.497679083221106 11.533031841154244 2.6513920281446337 0.9490962496261267 -0.07824972494152331
Ni 8.226227834057488 8.536418686474272 6.680115692499218 -0.9360239898232009 1.0694760709684807 1.501443256441382
Ni 7.075767666422126 5.020596476686763 3.580332167510629 0.006345739712369716 -1.595498323846278 -0.7686518588917084
Ni 8.6082849781617 2.7383159996681306 3.91627941188921 -0.6461737602594292 0.7929845220998021 0.5481129141292496
Ni 2.7121408795694495 5.480459580323207 7.42564730559319 -0.3054740521439578 -0.13123193356550947 -0.34096170352760635
Ni 7.827984172767516 6.4249682216007304 0.15967837799734041 -0.6789946634441919 -0.9873380667161447 0.5159738675028598
Ni 3.7272338034809427 3.7374345373883213 0.2735438396612884 0.4184925480252341 -0.2502225878698207 0.9234350974145968
Ni 1.12591753388533 7.8760364545554395 7.574905440219322 -0.09662411368365295 -0.8549522220518501 0.03866064979499148
Ni 1.8899580374000318 0.6462533853793093 3.222786298661615 -1.0835400052607147 -1.0687013975859854 -0.29024232279586787
Ni 7.731676701283927 3.0366644087421717 1.5629857787043357 -0.7086513099683602 1.1136599645745466 0.5674730638234162
Ni 3.8492183483805738 1.0503804536851198 10.026862121234931 -0.3654874565831125 -0.12788744257330878 -0.511837476736983
Ni 1.795043252010488 3.668316725542122 2.9517686624517108 -0.40080824337159365 0.13205288680490804 -0.4727986176669663
Ni 1.1136231592935253 2.9489620771641745 7.853901046438161 0.6653287359213252 0.41323824160483025 -1.3313555263509393
Ni 6.858388735623744 4.0342519140675845 5.967089003916797 1.0669283648459624 0.5784061657961522 -2.482157647193422
Ni 4.00967238797069 0.15713372837252504 0.21368785149482644 -2.129098646181649 1.0318628886013972 1.0854325942977372
Ni 3.861503499885663 7.660031763677671 2.4043461850813603 -0.49280977068157067 0.15917056895730652 -1.2129752519371173
Ni 8.35006621938694 0.1962617514544996 3.7997032850395667 0.3923804243192145 1.2053832985224724 -0.11359622276161725
Ni 2.3031707684293132 5.541368844992583 0.4503928381969355 -0.7232772874116511 1.017464196677564 -0.18361250404975474
Ni 6.780232298796323 6.985335301176331 7.916401293565967 -2.3989063552722487 0.12430898119343108 -1.834452795001447
Ni 5.506293446213413 0.31619508186859635 11.799094835180567 -1.695277438219145 -0.1277707144897864 -1.3480095899678526
Ni 2.6494607822506917 9.111939297523492 6.1476244702126435 -0.6467005792971765 -0.33934396541852524 -0.02824022579261588
Ni 3.2260881637057754 8.098294398226338 8.904630132801127 -1.8929983566458235 -0.5138789326470441 -1.7184477056880212
P 1.6549168955414049 7.5818015421565255 1.6336659814401466 0.9279293857405244 0.2616017762410398 2.098531829138386
P 0.8280468807031535 7.04438150232917 13.256168219895757 -1.5326381939869476 -0.37182959675105637 -0.4679659721650134
P 1.9946216254478932 2.3604830292796315 9.931370892925667 -0.5234652907838985 1.8348374320343752 1.0810882012861123
P 0.455416653530886 0.6261802594516248 5.791414104320038 1.7224709679148014 -1.4252483571463583 -0.6002808543820565
P 6.582267965534135 1.0792579381914518 5.024621431729422 1.0181527381041562 -0.083475749227153 2.0633007738502336
P 6.493864679365758 7.775265009101533 10.843182769487957 0.5659656260399544 0.5159656399727437 0.6706776589380644
P 7.829625882202881 4.048787498731263 8.274554041520863 0.22571406120549511 -0.5162170938619174 0.27276653460860767
P 2.614366937298091 4.451679595725864 4.965874980894838 -1.0500822398229013 0.3751936281272829 -0.4299144167089306
