# total energy = -340891.1632643599 ev
CRYSTAL
PRIMVEC
9.10642398630150 0.00000000000000 0.00000000000000

0.00000000000000 9.10642398630150 0.00000000000000

0.00000000000000 0.00000000000000 13.32817199539534

PRIMCOORD
 96 1
Ni 6.348561550378484 2.000808794179545 11.288547845117655 0.9064866424857162 -0.37619018771259727 -0.04320636018414494
Ni 4.413273475288855 0.5415344347930185 6.045565333264522 0.38327640513541733 -1.4810184129281267 0.3886754646638016
Ni 2.644150314894667 1.4916322150004528 4.727022557601062 0.0674354079348387 -0.2433284318531487 0.5599479590909647
Ni 3.4781530302707444 4.214507563464588 4.748667616281371 -1.2576036892797695 1.273336012413362 0.16238779034302356
Ni 4.883638476321843 4.687877684344647 2.2701604179996084 0.8217453962825784 -0.6924662155680654 0.8569659100477692
Ni 7.32413272982292 6.256650415177021 2.657877338099134 -0.24713083631837438 -0.8567779624066794 -1.83451038771226
Ni 5.395656259719984 4.41076920874963 11.498573849944655 -0.5518636394209334 0.4593244944399315 -0.5729392291443101
Ni 5.442299362316029 8.212937903501029 12.43758364855878 0.901415655720712 -0.6786843312926246 0.17003527958595233
Ni 2.0269624432728377 6.319821676931955 0.6235104616515904 -1.0918256423082744 0.7351580980096372 -0.9982935372863839
Ni 2.855282750210818 1.8374486580080365 0.5726319613559309 -0.7333976636751046 -0.08461654769981557 -1.2621067193564457
Ni 0.4788913456172669 0.02742308456808525 5.027546380659026 0.5193656667932282 0.6761582224366613 -0.9494389776775262
Ni 8.676345596766858 2.4627958853358516 1.4691375269815632 -0.6193270723802301 -0.3800368151521971 -0.10354860871762812
Ni 6.535807836122314 0.7456075703956873 4.861970651582086 1.0977278667253225 -0.80427346475006 -1.4421947551927097
Ni 0.7931767962900577 7.389015999248305 2.8531882727416473 -0.4348604478602962 0.8524351120569513 -0.92834873266613
Ni 8.024535101937264 3.7972239066394007 3.4618060889450586 -1.266992072473205 0.2528523121831839 0.8841697241560708
Ni 7.606932720279812 3.871213599843788 12.755340467976126 0.9486118537905404 -1.0034228880931495 -0.06312752458810418
Ni 8.062126419296984 8.784793997550988 7.059772336876127 -0.4520181905865054 0.47593407797215453 0.2511656685093803
Ni 6.825055174614739 0.9407482149135334 0.5712878532061503 0.37204145565154634 -1.1502359639263675 -0.589724676132765
Ni 1.6481352140663734 6.6236757191659 9.472518406480207 0.5549782737905151 0.6833465126549845 -0.8612624805405941
Ni 9.19848972340725 4.841703394819541 1.1609014736251633 -0.3604910318097856 0.2966770226776181 1.9817286694036969
Ni 6.49863541425643 1.7382888094784887 6.932688550470649 0.36148733428478386 1.0236160752115726 1.3143062841781366
Ni 3.527518953576712 4.206111440740349 0.4001945419615134 -1.183774204893129 0.4783174906026665 0.3448047314227804
Ni 6.257797824573176 5.8159177171209056 4.75835685118223 -0.7672269535197238 -0.8006960318114468 -0.571241529726913
Ni 5.331628994129824 3.1095067828492042 9.058532185705397 0.6469669455846858 -0.22190934274742427 0.3797568220179331
P 0.24376985814009233 5.646356106355896 12.542889422496774 0.8437715228446823 0.021628376903053075 -0.9227468130983205
P 4.108126320878292 6.04681109203749 12.797124382843695 -1.0921778834413707 0.5184143586235523 -1.4400609966791584
P 2.2838182323833554 8.505955301437961 1.7436843655675471 0.6618664884043375 -0.8262684809639125 -2.027878685597198
P 6.3824101275650325 7.88695525148411 5.932968956449057 -0.29926946599514265 -0.02025669336650705 -0.8582380918919734
P 4.686447975811343 1.2613671833246198 12.458735139070265 -0.9969064271308703 -0.9903801959765782 0.7630339984842988
P 3.8226854675254893 6.337233159197406 7.984347543158154 0.6970067837508964 -0.5701161578732181 1.1710454444725509
P 4.632720075515235 1.0189450759038199 3.6212377138983065 0.48141284169853865 -0.7146324672524597 0.6016862193700154
P -0.04032688706293044 5.624874052661231 3.6678862803486196 2.103613357426351 -0.3385001293609912 1.0449577741121423
Ni 1.2237940788124595 1.002471555287606 2.6688733448122783 0.6240517315494092 0.8443075978538104 0.8173053582333538
Ni 1.8437685161106636 6.299778438194373 4.850201509490105 0.21999978442953724 0.6322257827197693 0.5126746279262977
Ni 6.413244478480732 5.710601926116752 9.155267904224974 -1.2823785822316043 -1.1732442518960826 0.47110554623525963
Ni 8.904670960177764 2.3438933100534283 10.256240913602905 -0.7016034019826434 -0.24320656156330378 0.8987496788527748
Ni 2.496052544976765 5.0388665760587035 6.954666904261269 -0.2762840608435629 0.6666191725979745 -0.010829486515336188
Ni 0.45169956421316826 0.16982387576984398 9.498548208210106 0.9883341120808269 -0.9427435679352215 0.2116771234964548
Ni 1.6843878871305784 1.32748892638395 11.665575644985388 -0.4104372818209254 -1.0668034092323242 -0.6160926246033325
Ni 4.0920443764845755 6.839816687560502 1.5642340892209206 0.5948460565197304 1.2094919213742072 0.2349443215545115
Ni 5.6938734256347265 7.8956974183119515 7.980256026954248 -0.18744370487038683 -0.5312251372349754 0.16707593984731225
Ni 5.171929640317473 2.888393707071268 4.857572248896829 1.692504503459698 -0.9386066629487125 0.17561457344594272
Ni 0.8154492875687397 7.424631222647981 6.802871926289091 0.5318499153031679 -0.7201443982096243 0.9486136535627534
Ni 5.295367214641839 4.816278259628569 7.098704119816114 -0.2213107899314769 -0.6192111156276562 -0.10575924321570172
Ni 8.242451822968771 7.159761780611942 9.27314236426275 0.8659745413042828 0.4180842568432219 -0.2252111534271476
Ni 4.539707063036513 0.2802192299579239 10.417618581317726 0.12062073370856646 -0.7662033973512159 0.26305290686526955
Ni 8.172742148940515 7.383342697233987 4.729848280899687 -0.36463025078913974 -0.46380438458815604 0.3206438179058607
Ni 7.380701834338078 6.099027325986284 6.864487810862572 0.4963429806458097 0.29504822882494347 0.9851773116194001
Ni 2.2328131527971675 5.27767343323924 2.76371674847058 -0.1777943547060809 -1.2849795101895611 -0.8318009807463673
Ni 2.294946282241295 5.468717097698913 11.541330330871824 -0.08348680497074654 -0.4165811899351342 0.09410468969590889
Ni 1.1391862954817562 3.273030834648735 4.066931591629223 0.5842495119508068 0.2555648260183405 -0.3127014231303324
Ni 3.5956714291387595 2.667936293805419 2.7433238230598835 -0.07775967267898222 0.6207980004988018 -0.11296553115615383
Ni 1.026794813201319 3.4997170417794203 8.218390830059894 -0.14421549030937098 -0.7006086421695419 -0.40856654716077373
Ni 3.970947153071413 2.7236676073329087 6.977804505798956 -0.15512648079491995 0.2053360117697754 0.40326673221441517
Ni 4.3189764570572935 6.711643772871055 5.79695541088589 -0.6825674683971148 1.4414887302646207 0.466097551497707
Ni 0.9194391832706699 7.773880787420248 11.882477910407914 -0.6042118140053465 -0.8343222045063244 0.30400158136348937
P 9.364681957374026 5.615376052659733 8.03820657595668 -0.5184151299545007 0.37593693405121065 -0.22334967473837666
P 8.554246666738006 1.6605290568295945 8.176153415288129 -0.6657100305201438 -0.5721753543950919 -0.8994068528207995
P 1.7499268190680526 3.3126710973587286 10.303276503063827 0.11473676412396369 -0.5975449435081321 1.6762852133873583
P 4.065708598915703 6.0929442349019105 3.69006406482 0.06477508749385619 0.29044903949003525 0.5305952169604604
P 7.2615624920374 3.835124842407605 10.455071481036002 -2.135353883062742 0.5520729272182622 -0.8711144336340094
P 6.2698638360803525 7.501352842986068 10.39461484420959 0.049426887172560045 0.849067481136299 0.03186419569844835
P 2.512899428967918 8.489882463468023 5.834233467267611 -0.6239648282625576 -0.008322146712450183 0.7158979642284445
P 6.887834860147176 4.185030069691961 1.5693792186560565 0.7109712163507885 -0.8671415650291906 0.23311138211083077
Ni 5.478888973060058 2.8993942669963015 0.23102086484949017 -0.2315805472886012 0.5175448115344055 0.7800331041454567
Ni 1.2398942360537342 0.979805666501671 7.098477369864018 1.2933597638334562 0.12303499957701391 0.6994087083241697
Ni 7.056868298333003 0.2677898721419647 9.372783942610205 -0.6288085295081042 1.0320680626336676 -0.2344506697475446
Ni 3.101420278533451 1.7787668631761506 9.224027778253083 -1.1554154512447778 0.2409141659847012 0.013874701099563201
Ni 6.2941962004178444 2.2490681192426853 2.7032728606374565 0.0025767595882407236 -0.3955577936059317 -0.502715974051689
Ni 4.062876501120434 6.8042743155510585 10.169514976101208 0.605424603366525 -0.03300088040605284 0.45297926894819407
Ni 8.328234334966968 7.245371270558335 0.26735640637008423 -0.9808324043871429 0.06389319910953511 0.9699599804490134
Ni 7.661252538121556 3.776880155917111 8.168103336667492 -0.049886086197165704 0.06614959924387963 -0.5338957420886031
Ni 3.156541461667747 8.468755560300739 12.952663922273798 -1.2908673364289058 -0.2924946091651543 -1.1458275504460265
Ni 0.051023292433745655 4.8113243650927915 10.166755729696169 0.8248852274631406 0.4076455780084012 0.3015047830835646
Ni 8.788737079047296 2.369008826835915 5.8812426480995725 -0.8541258694958129 0.35385192922671316 -0.05530725721273701
Ni 3.466669829885424 3.0254635977927986 11.603426123978458 0.3271808476934301 -0.3899165361597543 -0.18600028755564096
Ni 1.1547127480249537 3.416274880692429 12.779570840367292 -0.4550492641033453 0.2678040483970098 -0.26218361688643876
Ni 3.3409010110736332 8.438613297592244 8.195878839835824 -1.3586588421515826 0.6082548737264686 -0.11689211990406966
Ni 5.7525279011952755 7.912580727998221 3.288046416817931 -1.775316393850607 0.2673314796359654 1.4714258841436854
Ni 3.127100393590235 8.20837558518775 3.747642161089871 0.8700883063623402 0.13633351645813294 -0.03770599919120603
Ni 3.2447280695435983 4.3444289115196035 9.313872665899089 1.2907729769428866 1.3979980060708377 -0.5719208151821247
Ni 7.429685287845326 5.92759889834658 11.454790164415218 0.193202461731035 0.837382588599203 0.07722436900080247
Ni 0.48278616306754585 0.18954565774802762 0.5836789640422376 0.23140751204584661 -0.8057755032168833 -0.24600623579562794
Ni 4.307821087928017 0.3434615218183338 1.3973124307094444 2.1242284625735417 -0.525485920758353 1.5425878490004916
Ni 6.100493460214704 5.666727176349522 0.18967952217757894 0.13131009510161257 1.3302715492581412 0.6432511872959954
Ni 7.817445918778992 8.703774145189211 11.607398346030859 -0.01848083241300688 0.6300295463993988 0.2287873008141802
Ni 0.12522061210029442 4.875388056378068 5.934435090677476 -0.0960381592731959 -0.5306435536998926 -0.47038949400484154
Ni 7.78817787275328 8.844850862373503 2.7158278871015664 0.8378479582713958 0.6372129515217154 -0.8230013801768665
P 8.502549498944616 1.5637095592112502 3.7043657033649215 -0.9713555752449594 0.30427540385016627 0.4521364613319246
P 1.6587988363115842 3.1539005987718363 1.7886810267443496 0.15874273739126854 1.0343895116779926 -0.4154560751917554
P 4.911677155137388 0.9879194900887615 8.279940237739789 0.4416522739711491 0.5149832214548163 -0.02069352379360952
P 8.636586950547738 1.6037596109912988 12.665228762113394 -0.32132953111897566 0.5580885372847226 -1.0601943885562386
P 6.204944140959851 7.838955291744993 1.2142805978905364 1.1888745022341718 0.2625561697345091 -0.5384231976453114
P 1.9908372601415385 3.074037262229993 6.252432319682588 -0.8620155566565347 -0.7812014134219448 -1.2728274482080595
P 6.972087492950499 3.9357235058942353 5.6982062620687755 0.3750776713747089 -0.3557280632035035 0.8765985966770323
P 2.430732167209987 8.39689677026064 10.639266204171491 0.7927937462452347 1.0947803540612242 -1.2657414878955555
