# total energy = -340877.2540702572 ev
CRYSTAL
PRIMVEC
9.22096552622216 0.00000000000000 0.00000000000000
0.00000000000000 9.22096552622216 0.00000000000000
0.00000000000000 0.00000000000000 13.49581511710181
PRIMCOORD
 96 1
Ni 7.180660706471661 1.29913257227658 9.37177689696098 0.030576844345592498 0.7341407124887163 0.24658370556565273
Ni 6.307379972063541 7.898890910300173 6.310980758991363 1.871514475740435 -1.3063528336590147 0.2532510902834993
Ni 5.586853747889247 8.099861847795422 1.8448099313956474 -0.23392950713675195 -0.38907449987443316 -0.6423379314531067
Ni 3.765519471908564 4.59985084912559 5.11651997368323 1.5047136996625377 -0.8413346312684157 1.8993109291274128
Ni 2.8041416355582727 3.194778607159498 9.405300638202444 1.1600256963232798 -0.2832656343677186 -0.11598143516434219
Ni 3.585664544822314 2.3302762316637637 12.354865194528958 -1.6787066783446571 -1.5611087906228147 -0.5069750064383591
Ni 4.37773623832561 3.0419318872732286 1.034447531234146 0.39949312410459586 -0.6439772668287426 -0.6032602487253546
Ni 9.249181397751043 1.2776477232578176 8.023828534682112 -1.229474535143721 -0.6515890177377294 -1.5026601595676186
Ni 6.879264236502875 5.404214089299278 7.805074965713609 0.14750495969392016 0.34857551131912223 -0.5057323922805097
Ni 7.473518562624407 5.986757789560797 2.205526714972804 -0.11408473236226158 0.17780386778777765 -1.517107188230884
Ni 1.3212352259666977 7.994788948838855 10.204860677580479 -0.6418836175245074 0.2271299677164153 0.6997542645890465
Ni 0.331255799622244 1.8693478420067327 1.6953574488157328 -0.8488785050539446 -0.2185072590444108 0.707389155426485
Ni 7.0955880811295575 1.6456472251847676 2.3043966706096612 0.30383548809927025 -0.6388880252312933 0.4624913222036873
Ni 1.9001182030263082 1.2603676343903667 6.138531189092653 0.3929062149156975 -0.3360601524609309 0.18667648768705913
Ni 6.676181697966728 4.343415805687055 13.323190106094158 -0.047314983035879804 0.27245440268482757 0.3990719774067772
Ni 5.767446352195026 3.207798610084173 6.007769603062537 -0.5466453284447876 0.9693120624523694 1.4585004343312689
Ni 8.199955425520171 2.7142648873239903 5.601006085345898 0.36729777031897387 0.023616610977675454 -1.2629256157133153
Ni 4.7096448822871375 5.442444211201333 1.0952017049379743 0.6798135598010614 0.7420648524317993 0.6311351207587518
Ni 4.391401708817374 8.761862605565387 10.281166009168489 -0.2605877331542286 0.5405649265786625 1.137454495890983
Ni 0.4185598985534214 2.251372432069965 12.481307680438736 0.8772125761119473 -1.4563800455541562 1.6845153146066345
Ni 3.9846464899694536 4.639205928787426 12.337536234545714 0.1123528372728194 0.30080749990622385 0.3210418246752278
Ni 7.674590930737341 5.329349072482397 4.3919697202764105 -0.021418574885092145 -0.051445460264485585 1.8347744400069237
Ni 2.413559989748512 0.7610145604646298 9.070065069980846 1.486761486059491 -0.15713682635672935 -0.5134179338502254
Ni 9.09080209871831 4.40795334143054 0.3499596055233847 -0.2522285625562559 -0.6138778763402009 -0.04199202816106962
P 6.183440978217537 1.337722311823156 4.8542960082644475 1.4422243228790645 1.8804516303290648 -1.8826231840590866
P 4.861698599162414 0.7062134419223948 0.558805247337098 0.7546288051397391 0.3029515428324202 -0.28829779747498735
P 5.609159262814734 2.917144564624768 12.008022275258082 0.32140537866223357 1.1544705708330052 0.004628757021262996
P 3.9920970298866902 8.084011008540806 3.5204105400793626 0.7530689168517869 -0.5788144569781645 0.40949960049800443
P 5.349450776714543 6.643124537566614 9.289898413979433 0.2861658387336491 0.4853543428447899 0.07563774123997295
P 0.9601053431466056 8.874063310655645 1.3833614792988491 -1.0524558822614005 0.07278304539999723 0.0076464608016642505
P 0.6654457103851618 1.84925535873983 4.2406546027171865 0.11383944912067491 -0.4100457028094615 -0.3703753808030331
P 2.1352804796466947 0.7274115189220657 11.364299314794978 0.7743350253194148 -0.5128535767063231 -0.059834455659129204
Ni 4.016237516895755 6.8776966724113775 5.770405359941858 0.32003086691221017 0.9018542859200275 -0.2942265042545965
Ni 6.289233112463144 3.5032936622967323 3.7551025474723003 -0.3822747033437804 -0.47817376593595073 -0.767785140016039
Ni 4.479148414080267 4.843745379832143 10.031709392226691 -0.9165046888433507 0.6929354418950001 1.0173639236542737
Ni 5.882302695275587 6.330146535251233 12.173534913003651 -1.6588644468077496 0.35130910820020145 -0.6776923996930007
Ni 2.734901407540295 7.676342914133721 1.5843812879098913 0.5713353749922999 0.675675883483604 0.8205225796190706
Ni 2.5422570016604724 0.536923896812839 3.6205354690859424 -0.7485689720989044 0.3794423761013078 -1.1974123645018537
Ni 5.683766092604782 3.446474074462563 8.751927937611388 0.7628198255909636 -1.7713340121640915 -0.8761285990191491
Ni 8.956139122293415 7.082872370057938 6.4685707433992 -0.694482474667146 0.42654370046448475 -0.5362362172963216
Ni 2.6890455473813657 1.1092728979004773 1.1462388254675662 -0.04953204529185663 -0.2570725209121185 -0.417510643727939
Ni 4.282686528589386 1.6043188589606932 7.385935068446334 -1.1007900505904138 1.3129163458091455 -0.10184396732169558
Ni 8.969242113905286 -0.06712862697707773 3.1744851068502737 0.6771300994316274 0.4460239206762835 0.23423418286136435
Ni 1.8500206988550907 8.08006443541633 5.035814397480734 -0.7437874915498609 -1.041976065775999 0.963321134976257
Ni 9.251302219757187 6.727653125959317 0.497701599050518 -1.4705193131690157 1.2980502273305903 1.2785473814109722
Ni 7.1115403510018576 1.9377120783265205 13.312204248102333 -0.38890506417610443 -0.0030626980857237575 0.5981746066723311
Ni 1.3410510802762776 8.279237284688978 12.801468814679273 -0.722257330787569 1.7737464782603258 -0.19897407410748957
Ni 6.923294345543472 5.0455830880603365 10.127542884008665 -0.30722497339679344 0.4774412586453004 1.322981186244315
Ni 2.0374275964762623 5.309533218172817 1.257849388782202 0.17937018383363304 -0.8977276653461636 -0.6122336558685585
Ni 7.952999534352576 -0.022967580230014453 0.852232037045405 0.6915321337895703 -1.4889332968998295 -0.17774061865001
Ni 4.837530449257616 1.125640111208762 2.7296768086329855 -0.17623086687370296 -0.549971307494227 0.3073314170676707
Ni 1.1838059599685704 3.2056777880780287 7.704072200815791 -0.7463076868685534 0.07972039594977884 -0.2671144785291529
Ni 1.1387707657163662 8.357846013394965 7.878114231412157 -0.07316845376387399 -0.4482949760986473 -0.49616943118242285
Ni 4.650999543334636 0.12587724074031367 5.454940463300143 -1.9728035989999249 -1.022659110614942 -0.7622809223683581
Ni 4.187286422173885 5.253552738175861 7.62633669751842 1.718075409950267 -1.632074580308415 -0.5518937213279205
Ni 0.2951114600584048 4.373568362035275 3.1194092035437646 -0.6711324870872958 -0.6945544655556619 -0.488035746331695
P 8.73347125357879 5.031677872472228 11.614673417778564 -1.6144057022737424 -0.7318138641277525 0.3076227230558444
P 3.1116884893448757 3.2933138417579944 6.955175832874962 0.7808735977688809 1.1374472968021314 -1.0793645337267863
P 8.359782416096227 0.5338487049039303 11.488015161282075 -0.8954082731843674 0.32612232452192863 -0.16388057283846616
P 1.6727384210719456 3.1300658730763753 0.6388026534088475 1.212160469345306 0.6600816285897728 -1.3557696935292458
P 7.545091694849144 3.669962609083914 1.89338228791549 0.5669655280593784 0.7612275414031794 -0.3330249651790329
P 5.947688559821528 5.556157154591625 5.853134938015436 -1.1148228745343962 0.2953279648488914 -0.8284351495979281
P 6.927268581563681 7.25704718255382 0.22269829789993098 1.192780007936165 -0.1787541475161889 0.844686578459784
P 1.3373350312829035 5.755523644134399 4.906268134669791 -0.212577266713221 0.4117873680909166 0.37198591982326257
Ni 9.136888483008343 4.2091677726981445 9.461308781095132 -0.8001401593079768 0.014675085513671499 -1.30293223801324
Ni 1.3778796154612292 3.882782486917836 11.17290158341616 1.4233899637813807 0.37085257754976775 0.3402173691624141
Ni 8.739999696971616 0.4142841369697304 5.7547232643512105 0.39627461716729817 -1.5105578171481404 -0.756450174619194
Ni 5.4359342097389955 5.9980903558458 3.5460789410293754 0.17275396406869603 0.22701966739079613 0.5799750529451689
Ni 8.476160218442065 6.729903041478878 9.318387508197619 1.2069367590525213 -0.3482096433392713 -0.9973648548245273
Ni 8.986328562502612 4.78206634331433 6.487424851033819 -0.4124810517238315 -0.2847579026425289 0.4159787804644448
Ni 3.70010594446689 2.3664961831426043 4.44046001020558 0.9812800334475229 0.028536931097428272 1.5233344000875184
Ni 1.2489705213486542 6.139014367671444 12.121548955150441 0.9848618372615102 -0.7812268673432418 -0.4881149363090625
Ni 3.5695462975756205 8.678302218523315 12.7204128417975 1.5386296356836922 0.6326060488773235 -0.32006763368741653
Ni 6.736597462246096 8.319339262535587 10.02591954814992 -0.025126105643666408 -0.9574191676695254 -1.0111806776616974
Ni 3.2709345591105534 7.148793050588037 8.591138278263847 -0.4834136741786513 0.6532131836047137 -0.03128055528083645
Ni 6.686970227302329 8.56898767555446 3.929400920902453 -0.2553650513027086 0.22462237080321315 0.12525668981868104
Ni 0.6250864676082426 1.6622172997284228 10.133413872579586 -1.2825549599084687 0.8440096069974174 1.2791431060134424
Ni 6.7171688884767695 1.156115401340526 6.929520341276291 0.583346283410247 -0.2674878027081716 0.8593297822942555
Ni 6.335162740344026 9.067122659971451 12.23244489365866 -0.44885393392591083 -0.2997770017591805 1.1202741274569545
Ni 3.088525424651687 5.998615950864715 3.565134987802841 -0.8463709081407423 1.2299167648874625 -1.8240578249203683
Ni 1.9867122876336896 5.68758357221584 7.041981077586434 -0.7411058309526398 0.19537555812295385 -0.06134549298701692
Ni 3.2469139446496627 6.84319182046794 10.919396040635677 0.8060138444799345 -1.3245253908029835 1.7596835724093565
Ni 2.363591579090712 3.127613096321444 2.6641139015543565 -1.0537820572719916 -0.37237904149662315 0.4044954624151937
Ni 7.805676172647525 2.9741393507985756 11.255590589242662 -1.0364026854532797 0.28815715813206505 -0.778724155526046
Ni 8.034392994562282 7.120696769489253 11.601244926093576 1.2527587024826425 0.3216997699742008 1.1490378298532082
Ni 1.555143451313886 3.6624383014447246 5.189384041042141 -0.3512589716885563 -1.141702986754692 0.18770518606188966
Ni 0.9069575436726384 6.66138204874994 2.936931833942091 -1.3431448056763835 1.2582724332120199 -0.2787944859702424
Ni 5.110858301023351 8.91928292421273 8.062318687804051 0.3638113544322702 -1.944552574574032 0.7348081708693861
P 8.489475292254552 7.328878501805391 4.284881118317483 -0.5097078319884898 0.6715716315072434 0.2995229767668454
P 1.6717517777908262 5.658113367295684 9.712330195838854 0.3378912921323987 0.6618659741837053 -0.3390457174518161
P 3.1072255421667294 8.57543313026009 6.911517328733702 -0.15298989406789135 0.7938052182288845 0.2539892540011045
P 8.045227628724104 8.432166993262445 8.08060570607616 -0.34795896078104593 1.2531363975370353 -0.8626668170872887
P 7.711696094879616 3.2068027458378094 7.635905293152227 0.2308225860766541 -0.11715462953683695 1.0071885257831685
P 4.903386583031009 1.517309830917327 9.570300590280445 -0.1701448085806231 0.18747352966705777 -0.39755219832814115
P 3.3079198507046548 6.555829659600681 13.390682039101852 0.11512011560531141 -0.6425947846589192 -2.2600958380285334
P 4.249408065023414 4.006850574277257 2.922937174991114 1.0023373683384544 1.3425153996225008 1.1808737434168823
