# total energy = -381159.4832396887 ev
CRYSTAL
PRIMVEC
9.24731288314149 0.00000000000000 0.00000000000000

0.00000000000000 9.24731288314149 0.00000000000000

0.00000000000000 0.00000000000000 13.53437713719954

PRIMCOORD
 96 1
Ni 5.15113246819263 2.6033312913106825 1.9520088232608632 -0.6977449474685015 1.3245498162830156 -1.0451194965009871
Ni 2.9554319802346622 5.222863874957609 12.064529994127335 -3.3582919026395257 -2.3496180505600823 -2.386091205785452
Ni 3.788457675169499 5.241802371935135 7.5272249140554335 0.13158057515417984 0.7121495529296058 -0.30669661169714924
Ni 2.872058206431253 1.0923758346964176 12.171397491280894 -0.9041641650001268 -0.4555192617612284 0.5750678454515387
Ni 2.2684675937764047 6.155233453207665 2.769647914132758 1.052707079040258 -0.6078159864168371 0.3946388813360881
Ni 5.486911649711661 8.787638296519004 4.430437582918344 -0.5900116112455646 -1.0452043429053095 0.1772703638818108
Ni 1.261416715921608 5.556728862690337 7.94266322375489 -1.3793469666285534 -1.5471227607563678 -1.8146383313786811
Ni 5.925502456912403 4.6796027321667175 3.6865615334725423 1.3112294450250257 0.13016415442262744 -0.44071510686886034
Ni 8.365470717165962 7.531936420017372 8.561170676973434 0.12779899662456057 -0.2086974720428406 1.1105792687666938
Ni 8.421232014419129 9.584377535330885 3.948979006948696 2.6490849772780116 -2.077121996004042 2.5740555590459993
Ni 5.477886272245809 4.8581498511325805 11.642541812646053 0.8872481059710784 -0.19327393839891874 0.1965772917405389
Ni 8.564722569888017 3.9459209205471 0.588408374208704 2.27258959962017 0.45472016289870076 0.31914460765251484
Ni 7.691720740952278 2.727282274458519 7.434189547653333 -1.1852626165131974 1.3039416531143608 0.22779048411854963
Ni 3.2328051329890157 3.1552849083002426 5.8711587727386565 -3.243519143071304 -2.746940392265605 -5.265143363118359
Ni 6.801481920626835 7.803178604267771 2.5714095669130153 0.20966317839021956 -0.1966479970774742 0.8834251326805623
Ni 7.875067215353363 1.9762432563804944 -0.09090848441731957 0.10634879717058458 -2.2869669513877646 1.1727302883741415
Ni 7.08256324588509 6.21130915910206 0.7059611415075412 -0.14969271137385834 -0.6344153341719202 1.4372194134653054
Ni 8.213740805834291 7.8431917275205825 13.458070468406124 2.6203742396068805 1.4639601718942594 -0.9208503674065561
Ni 5.142264295047391 0.19056862583636344 11.62724860644418 0.13618850623983642 -1.1868659564445752 -0.3557167503495939
Ni 6.34875197188379 8.569790097399583 9.78360904396439 1.4221833450677897 0.03713135763465863 1.0072054950640332
Ni 3.607497007516559 2.9897949952583387 7.799929098487545 0.6143545588663032 -1.3583909332021766 4.986695461854257
Ni 8.02732422352474 5.149921070192603 2.6047045172878125 0.5734948445374639 0.03661353745797565 1.0621170595002483
Ni 7.791360538282771 1.5305875020650894 9.743236200236762 0.19549639997153428 -0.006593594057117677 -1.1227675833027695
Ni 0.6954589681592124 3.878221342240228 4.2621374114626365 2.3190921140570833 3.276706942677183 2.70884975604147
P 1.256164242150497 6.885336554705065 9.976663347529055 -2.189877725142235 0.5805795192983871 -1.1881481655911086
Ni 4.63301476938704 1.6877548334274166 4.099021283662007 -2.0861925908467422 2.3027980048827503 0.8409890750035387
P 3.4623141937728232 7.4361250102594845 4.535559187381786 -0.4312184802323347 -2.6443654603151554 -1.468114303271949
Ni 7.708402893563341 3.2375397572333973 4.648137825030129 -0.12005766211624483 0.3824770491625735 0.2739890941617991
P 6.859425583742647 0.3482149680109149 7.93351393229514 0.2882836564076003 1.3486634215017677 -0.25576151541017883
P 1.3970100661078755 0.8188773060795561 3.211329173330516 -0.5603811899736413 -1.7122143231837994 0.6404893082801422
P 3.6172714173335736 3.256404275707106 -0.15972698759444576 1.4594699973333898 -0.4271286264336773 -0.13864828063423865
Ni 3.868613384056805 7.432648020580016 6.6459615357057675 -1.310694398457162 0.41602557454198025 -1.390806887639037
Ni 5.100152031748731 3.967744579173547 5.7026967733058465 2.4057997399579727 0.024041614330236015 0.6330984151327097
Ni 5.888392989934466 6.695174810639703 7.574405629596956 0.43792520282854897 -2.462239053892624 2.215474599774733
Ni 2.393408039412813 7.53376738798688 8.21592224696564 -0.8368981927636168 0.3675854767627218 0.4536883792000767
Ni 4.24116912928659 5.5159667070863625 0.04229998375210002 3.551137495251774 -0.5544185446323032 2.7837958705310575
Ni 4.840690924231422 6.134796891527814 2.1860592394478267 -0.08039711030182928 -0.38046001873254476 0.9209069316761043
Ni 9.222474694650959 7.1969894966662995 2.048982620259999 0.6933095374049673 0.2727667917189238 -0.2536858638280728
Ni 6.515601239933359 2.678678397449788 11.921647911852354 -0.019087355648754224 0.01597477816170152 -0.9566712337599073
Ni 5.174685374345834 1.66987977744228 9.101137926881806 0.8726522104347746 -0.4509835786744039 -1.694147952600392
Ni 8.593472465934468 7.41779683593846 11.161841516340543 -0.31111556670045126 0.6813515937121427 -0.1879990631532246
Ni 2.796618627162374 8.886038953910539 1.5846593152373025 -1.8869678341810276 1.3176024384309049 0.3518464687609102
Ni 6.335139927181193 4.148279870429532 0.4974924919410026 -1.7913549353707086 -1.0851353747722925 -0.5751200388457127
Ni 4.843085978292546 1.2602330598605127 13.571055063094173 -0.5039740148285062 1.7013084749045735 -0.27269891459546586
Ni 1.6308561166780402 7.949591310637489 5.958401622291771 -0.45036085748874055 -0.18963737008759599 -0.12117377799855907
Ni 6.1913164684451205 7.048866037395779 12.349807750014692 -0.057433816637436574 1.0171332957007062 -1.1897671892517705
Ni 7.1774314297192925 1.2766100511433252 5.756847188638366 0.9590687874578063 -0.583058319856183 0.322460045178993
Ni 3.8335105839949435 3.8632222005910344 3.4839381104389604 -1.3366723105781624 0.6367781779771421 0.1430093858164118
Ni 9.260074269216693 2.4061508366955433 3.025014311463714 -1.6514946367062397 -1.412352989240929 -2.1608101183523174
Ni 9.084144139823408 2.881370250599402 11.522898227883047 -1.4193638733411233 0.43518749218241176 0.5007506227952021
Ni 8.835150990596413 8.995037031974068 7.0479320587850705 1.3456500885967406 1.218668959887785 -1.2645955472165706
Ni 9.191302002604454 5.214004949125347 10.489304787589484 -0.14360665308077847 -0.7333017615271887 0.3331118684658844
Ni 0.680232342610777 5.883094279598468 13.290988168069529 -1.6089680761979388 -0.4794266645064452 -0.8869866247795756
Ni 0.32305210466836204 1.717790105977713 8.03220588004546 1.5863385117238809 0.39845928352344284 0.45159370145457706
Ni 5.017120408525482 0.3282574171432887 2.2071865754070825 -0.7691591375454302 0.24350918040538708 1.3686578623458234
Ni 7.537595775559485 0.369137938353372 11.60808355029871 -1.189446829797874 -0.6550263255540526 1.3985366521831268
P 4.71573198396906 7.006892483791779 9.805304164940452 -0.02076860000591907 -0.23380095197868764 0.0306182391064892
Ni 0.6002477090135514 6.328250679013098 4.302307739036062 -0.6212695408185817 0.14040537253466143 -0.9920421570600334
P 7.1066802381299095 3.115669419505455 2.403339653550442 1.356645668376296 1.2602051314583587 -0.5287535357660312
Ni 3.096962105352361 0.13367638220607136 4.740903169893292 -1.3705561078098007 2.4454926876722207 0.20789168831209356
P 7.897935820346246 5.209251830255011 12.378717624575652 -0.5703192750229596 0.18581413968676386 -0.6016281124385703
P 5.904150411247799 4.064369752473438 7.953436343373453 -0.23942986812969086 0.2506457914501683 -0.23014484328333912
P 2.7476910941994377 1.674438702740093 10.000538060173868 -0.9082429630551907 0.5856759599846881 -1.2564279238041136
Ni 0.7391959843479862 1.7921569969412239 5.676101501183108 -0.1276843254235672 -0.6672148972004445 -0.8302868580946862
Ni 8.028128739753765 5.333859372624237 8.263643930316334 0.3786633318434382 -1.6527593623512762 -1.5268501265502605
Ni 7.141903253260475 3.8408252085599948 9.826539694461543 -0.5365486063304178 -0.5397876820930059 0.3062991191484144
Ni 6.846544076765257 6.246264002156285 9.92485342711109 -1.2878627452746272 4.39658640579888e-05 1.2901865083117974
Ni 1.1803732649884808 3.2221429811261797 9.794598550706624 0.7888992962868349 -0.3816404121938911 -1.0524905921540777
Ni 4.834116084704557 8.646478063920398 8.074866509003675 -0.043025868742222674 1.608946478931384 1.2798792128485184
Ni 2.470909769475632 6.806040845924649 0.6068669356427085 1.2978301408999842 0.14371283964133957 -0.2934081221183592
Ni 2.4693007370175803 5.287807753997242 9.796723583228808 -0.31274590321502266 -0.3317368424952287 0.290614618533622
Ni 6.536037801613209 9.008112732523982 0.6450352199565473 -1.7854390841069059 0.3161646990885845 -2.466704031642513
Ni 8.301812214630173 0.4294812791867954 1.7877016415487568 0.7855658610382278 -0.09096023052965625 -1.1192942800421886
Ni 6.812107083237763 8.175355209665486 6.242244195205049 0.7044604118154641 0.02380147329497191 -0.7370427166268597
Ni 2.9235287504629497 2.0240611117861538 2.390563565940993 -0.6913231031025577 0.003814745760399882 -0.8410263559993774
Ni 5.299431626409718 6.466932631733787 5.346241524700852 0.6664885605573811 -1.2357829938602523 -2.6631977625303103
Ni 4.305031072707879 4.320806988647167 9.704703571791615 3.0293200244839444 -0.8540093985226066 -0.1929795470869515
Ni 0.8103337136198212 1.7470208622989836 0.9080214031808053 0.9521592048221666 -0.6426510918181513 -0.5620611487792256
Ni 0.890162992359028 -0.18893647509586856 9.592408826651678 -1.6746785310218706 1.2214709481129544 -1.154970136177243
Ni 8.974221330462148 6.482088977703594 6.270801747141572 -0.7792625445280192 0.7458592864772251 1.4482463607034284
Ni 4.463409802070234 2.3150000726782185 11.041507157298133 -0.3088781927295003 2.2182853297506506 2.1409390904600034
Ni 7.0730477608314395 5.127893970680655 6.037713051504249 0.7186369604261623 -0.10900860339093485 0.10868850104735475
Ni 3.1407851215518234 8.844416798199676 9.934828503619713 2.7978729174494137 0.49498286707348954 0.13611137314499783
Ni 1.697113114160452 8.126843805786528 11.51293702234389 0.8360913805916051 -0.7435887452754936 2.095071124283295
Ni 2.8665190659578452 5.271310547645725 5.016733870843031 -0.4311883983253477 1.7102571994574285 0.5511784404284508
Ni 5.013708150036855 1.11826831103288 6.267418155323175 -0.4720031183488645 0.15720418925955507 1.091888634335726
Ni 3.0178883320834005 0.7306542413508467 7.347447902463589 -1.6059876534133761 -0.4954184119490113 0.31100578059546435
Ni 0.4676162731739159 0.6842049882658287 12.018594891643856 0.03665904598393042 0.5499772210314979 1.0756757720212895
P 7.467972756153333 6.585483184102875 4.219355642704418 0.3401407502882078 -0.4262230839002724 1.0627482653263438
Ni 1.5511535261266225 3.520646244033682 13.057452827215402 -0.4260839872192469 0.09980353985289908 0.3196452014380172
P 1.3877350111916356 3.6019671143561287 6.674897302743062 -1.1423257079403553 0.7524546803065557 0.8706009843327007
Ni 6.603959315431537 1.3609455454963741 3.500044155451538 1.7077480598823298 0.49373433937836897 -1.3574869333306687
P 1.0936519638872861 8.269677802034028 -0.02858991753194317 -0.6082098794211461 1.239814997837781 1.5465712591282719
P 4.60639175532537 7.898425927934043 1.088001855658151 0.4656051852423207 -1.3026008228157502 -1.7722824921202898
P 1.5917954666618914 3.9597549007611526 2.1819441851729247 0.22880092766093496 0.15770426882442515 -0.10883248282438676
Ni 3.860549727140593 7.200429497093857 11.862908979820494 0.9059338553060396 1.4710057658871312 -0.6788416828060954
