# total energy = -381164.28228329355 ev
CRYSTAL
PRIMVEC
9.29162165787238 0.00000000000000 0.00000000000000
0.00000000000000 9.29162165787238 0.00000000000000
0.00000000000000 0.00000000000000 13.59922750781737
PRIMCOORD
 96 1
Ni 6.731640412672196 1.867792465151041 9.586775446510245 1.1434042857165145 -0.23285787133912803 0.2804417917656783
Ni 3.176628854875922 9.119726516129056 13.376431109889566 -0.5564628287558416 -0.26980076711206435 1.1056021272670766
Ni 7.985749151678788 8.147776447642372 11.322717014889175 2.6660156915950792 -0.9706220395130444 2.824160647501349
Ni 6.699352027910557 2.22537122750123 12.200233546441194 1.4498849247481158 -1.4230225531396332 -0.5423284462369885
Ni 0.9546490692273536 4.925442106538392 8.76365485478846 -1.1724006729488647 -0.9091122530340214 0.49584727195631373
Ni 8.54628480276235 0.4947416791419335 13.355080821974374 -1.8642408248971571 0.09197041696172548 -1.2540877057067112
Ni 2.4791625775384682 1.5580283871126197 9.538756346525167 -0.5181215099734819 0.5783624570424103 0.01796146957442713
Ni 0.8827012563569083 4.78841856406936 3.5590404048848034 -0.9167821108744533 0.23243055399372228 -0.03315437526478161
Ni 5.910279654065189 8.156222531598727 8.139925956625076 -2.5743826033681145 -0.7511380183776613 -0.005825091322209323
Ni 8.69247917566584 4.78853006352753 6.262798199338778 0.30780115761523763 -0.6371972677924316 1.4649153367186771
Ni 8.026948201472488 5.955334726787257 4.445669229655739 -0.5907009240031053 1.8154006634660025 1.5062671601925866
Ni 8.398854644197481 0.8853149894888361 10.802559963419611 1.0534740391132698 1.7506158057801333 0.026135520744787245
Ni 6.8766640412649025 5.830092960398155 7.467349145837549 0.34545496341226956 1.0978114275780642 0.9521661468007021
Ni 3.171137506561065 3.841128459081206 9.579445286297739 -0.49173993465615956 1.6433367834857957 -1.2709579990994886
Ni 2.7309748121931943 4.78922693514109 2.069298931766058 -0.5628054831444178 -0.5295675470268945 0.9908072562116679
Ni 1.3181001363744798 0.6350507389783658 4.742934218433339 0.3880612281185704 0.035459883469506674 -1.3253363167400527
Ni 6.830884222064731 7.067653321488064 9.946338899215855 -1.3569750266912566 -2.7588026909208296 -1.2199313715399764
Ni 6.155671378253643 4.201169501132642 5.993410862590054 1.9215247462202907 -2.6902555379790507 -1.0018303467950487
Ni 0.9421611299123486 6.289777351567236 1.6609284495709706 0.15474287220325608 1.0686659163623597 -1.1999212469666365
Ni 0.8696632530482661 5.7659157305999855 12.865630721284743 -0.028253852639370695 1.5017916409197363 -1.501801411111749
Ni 3.3670327629436927 7.20495561260252 1.1777492642412335 0.14263966118181887 -1.8703939889827466 -0.8494282069098273
Ni 8.902525571614504 6.987550252414657 8.791057704957964 -0.7684716245601023 1.4843755023258178 -1.7365554710323257
Ni 2.271086005350802 0.0714618610652558 7.714950417622067 2.1890284897680625 -0.006905211760265527 -1.4210762280465397
Ni 7.966004455961238 7.22019387188571 0.26844423716503774 0.11989362573455481 0.5454533650192154 -1.8363932065572695
P 2.915571456814626 2.2577711117210386 7.5093705041352505 -0.2196218322648282 1.2786471402136301 1.584583219595671
Ni 1.0720951651660915 3.6329682622999124 11.067717754055101 -0.11714974444083051 -0.6903486550044304 -0.24544907774057728
P 2.936877144946551 6.947317531258427 12.607993569102803 -0.587899192888252 0.556797329277125 0.8011845414120912
Ni 1.2647011875327134 8.96808725301828 10.548104262444115 -1.2213027979662063 -0.6659344878261241 -0.5651909526574589
P 4.949953404092695 3.4202644625982046 4.430696710747853 0.44800109900731233 -0.7458672568970252 -0.8806061751745284
P 7.174042387824973 5.987567361819811 11.930343532968555 -0.1008584634799747 0.6366416523992778 0.3453544332786633
P 4.88524655186822 0.5781590696094341 9.415084864171954 0.8603471678151764 0.9689220261028024 -0.4591648289336157
Ni 5.525875980403676 7.448080181141525 2.045976961765565 1.1883615671534953 -3.778763685878318 1.8070345508894945
Ni 5.505991910363415 5.9772164954530576 4.878682021268479 -0.6739478450489038 1.2558437691658693 -0.9646375397948354
Ni 4.767846914037053 2.5426708105876195 10.58842618316688 0.27901688639369365 -1.1378687006102661 0.8762548401843684
Ni 6.42689381025141 2.825888725960141 0.8743118512917907 0.5917707600285164 -0.08453710061213182 0.4137941141083002
Ni 0.07950468864789595 5.949230131452467 10.652546734073812 -0.6370352882932707 0.03844210602628218 1.4884298749008495
Ni 6.57322755747761 1.9129869121958212 3.4434470582759857 -1.0675459438253032 -1.0953848204144425 -0.3046073332682883
Ni 7.527727960760738 0.13049339086889422 7.743073368458917 2.953861489134313 1.43209803307834 -0.760171332224523
Ni 4.480689351142535 8.09763885795207 6.07986103831977 1.6169644641398537 0.6186022783990636 0.43900763725945036
Ni 4.831513104651944 -0.002719657617188971 1.5377057525368911 -1.9298569202350702 4.357913157598397 1.02044770478592
Ni 9.036408546011756 1.759257034244364 3.216625568845692 -0.48979978021065324 -1.3190944495953993 0.4080003902446587
Ni 2.503014169965267 7.842351556851055 5.08184053818871 -0.23269666317091536 1.6514876947277042 -1.2516114762520767
Ni 1.1282908920836143 6.19257769890781 5.610252266211435 -0.5653714440993811 -0.8227000468863638 0.18393877704092193
Ni 2.203498750456943 6.96718301805566 10.497883048160183 -0.9755127919464427 -3.851182920180993 1.8919285206204128
Ni 6.128214636679358 4.68229895475636 2.532067212115682 -0.028580382740854 0.38486226156529846 0.26447806934757034
Ni 4.560234922925094 2.9234786267231603 2.2918639293807233 -1.5017718434253942 -0.6705087374603679 0.07769436665868555
Ni 0.5738124490651191 1.5283509479964543 6.800021172043361 -0.09305002317914943 -0.6367802348596711 1.1477754182010167
Ni 0.7817189845790762 8.044397866676043 13.371290984867942 1.918179998117774 0.4176749372199452 -0.7825944371147296
Ni 0.4904024918948298 8.447273283907668 6.318500541153899 -1.4166631865805086 -0.8759892452278074 0.5088215727287947
Ni 0.6443841727893201 3.049315056889167 5.251912520059239 0.12817463479642444 0.688240607522492 -0.9288174447724327
Ni 6.002768454616945 9.119689349643 13.312976768245196 1.3605488600854438 -0.11075078289302215 -0.6730867826001892
Ni 2.1277627434951825 4.507681511641114 6.875443122197944 -0.04774641414634358 -1.6995076742504085 0.549439346250157
Ni 5.641640292848354 4.256333858062095 12.48764012479229 0.48118067108307455 -0.4029350599066093 -1.3251445124442212
Ni 1.3139839480437152 1.204770228766506 12.173225590186041 0.4268337209010778 0.8493235630111632 0.9478004136328385
Ni 3.5673601227885654 8.224646032428858 9.609254666439407 2.3488258936760906 0.27535306438886126 -2.6703248604933947
Ni 5.809344769557079 1.313156993728957 6.285480905779097 0.01579994314673408 -1.8379934611648538 -2.693523410097045
P 6.979336458996157 9.016059894895788 2.4575168160591256 0.8381006977121502 0.9399402941584715 -1.0767445796054358
Ni 4.144499901517898 0.17640422193241465 4.031151410666896 -0.39914036875086745 0.32605007652309653 0.021408290472447
P 7.808632262376238 4.260700920173741 8.85561310375176 0.523632412489382 -0.3332782188404196 -0.41720236845890085
Ni 8.135344258056453 0.6317131885304866 5.00172817749379 -0.1503462857974572 -0.039105964862526196 1.3959966593700925
P 3.309006586587884 6.3806865764615885 6.508793878925651 -1.3503675486770679 0.6573935402346485 -0.9373774185273017
P 3.0371244494626146 2.6470435950559614 11.849904107196338 -1.4455171346977234 0.24496853855973294 -1.3903587443580248
P 2.84751962084506 1.244584826954599 1.6339065558835466 1.0523741211808717 -0.6921468845554338 0.4976357313153042
Ni 3.4007706406615372 6.37748096703921 3.5296798100622704 0.4449306876121047 1.9098493667648913 -0.7282814254944618
Ni 5.818088185401885 6.24784426367392 0.05545239719639145 0.18026698461628954 0.860478551186718 0.7820537341199112
Ni 9.09385864183369 8.811988011580718 1.765125622392695 -0.5676427566320611 -0.020463410060674432 1.4031942055597961
Ni 9.197813303333895 2.3816841762336183 8.887557698517375 -0.03195392719877723 0.35485183124613723 0.8175362432972373
Ni 5.605700300831659 4.591937935531341 9.973686928818424 1.411289580973421 0.2960532730506901 -0.7398310780052743
Ni 4.55600723513616 4.9020643868088145 7.148284154663473 -1.0811331955914347 0.034245294336115215 2.5579373133278978
Ni 3.061319831885437 2.166583138181262 5.489191729503697 0.6377112313143727 -0.057849564018616496 -1.3715781213164122
Ni 7.6097729787306 2.72474942577872 7.051729340537129 1.4315956395206249 -0.22492267565245136 0.1461016515884903
Ni 7.689169884568932 3.7684308123545693 4.297478087288861 1.021293597725983 -1.2435677800119938 -0.7234359244767025
Ni 5.874497619614234 8.798254994982818 11.079235648084028 -1.3369168224888008 1.0330826199411112 -0.5913773812448396
Ni 5.498400655586362 2.6251060766610754 7.89939653797497 -2.734670316649 1.6325751740939174 1.4746616174721634
Ni 0.7680305677644442 4.203037117056985 0.6765573414441836 0.5749961116733389 -1.9483927742557283 1.5772625175645416
Ni 4.14329199072106 4.738476098430854 0.44717786861104747 0.5675196007906355 0.4175273558984874 0.20082089750824125
Ni 2.230788242843974 8.620162485421284 2.5044199923003565 -0.32154576089483977 0.6466841242369443 0.7392374102853334
Ni 4.535491334832937 1.8769725872070118 13.073467569637344 1.3419764963998952 -0.705785558384791 1.2444789789723534
Ni 7.914129333047791 4.69576251433035 0.25800417123174935 -1.298605071392796 0.31259883611419714 -0.3562451120492381
Ni 4.796186359655182 6.4989503350935705 11.497480336462193 -0.17323733146301779 0.35962636981664514 -0.899357744750419
Ni 3.1631188371943617 4.5684301331005654 4.771466000616811 -0.18862924053805577 -0.8145697044697454 -0.1377501943000015
Ni 1.8581849285054195 2.580283294476861 3.0776414942371764 1.4770216330639077 0.057401677847920496 0.21851471524357852
Ni 2.667494454008585 2.964045846253898 0.3903047824851439 0.44799621391130584 0.39079508210996566 -0.24236272550576968
Ni 0.49369451339728987 7.254563579866517 3.5824311328845013 0.07486255363684527 1.1460198689624908 1.2940295362069714
Ni 3.4526922216825553 0.42110279115591454 11.298931392975128 1.3054105243504035 0.651400298765691 -0.04839716035646504
Ni 2.890316829539192 4.855615570859626 11.928984168741035 0.8588739257037595 -0.19800811064979448 -0.13423986715389782
Ni 0.7276231641237492 1.837538945500999 0.9761322273301982 -0.6075668465205085 -0.8022255810820959 0.22905315288105713
Ni 7.976634070973416 4.11194205973235 11.159226288537115 -0.7075195103567621 -0.8196355490284271 -0.35757385816299064
P 4.210934995344004 5.977030663022775 9.165417135762691 -0.5803972280842521 0.7490911631509616 0.3955120279696608
Ni 6.358182269154339 8.388763943233124 4.320542679373412 -0.35633664332177983 -0.7424656874146439 1.5311533819113048
P 8.597639594871007 3.3857739635377144 2.0713393718505633 -1.422150177837009 1.4296642268258668 -0.177792554933868
Ni 7.753783820578266 6.449881281877394 2.3108076873237535 -0.048801080663103055 0.35620320306770914 -0.14270291031958648
P 7.640370288376665 7.662614430281518 6.149801860943161 -0.45117229764644234 0.018093624276917224 -0.17568322190034905
P 8.97663554481129 2.572441165918926 12.536651569955078 -0.9182818353484314 0.2836379301054728 0.17766014312106176
P 0.44311278419861094 9.11708769561904 8.602571587570713 -2.0143279434959567 0.23821373633440268 -0.042997586607448526
Ni 1.8414507181584523 7.068982023364585 8.092410462526063 0.8043619106988082 -0.48472982188691355 -0.7296736778562981
