# total energy = -340892.71758513706 ev
CRYSTAL
PRIMVEC
9.07504214142260 0.00000000000000 0.00000000000000
0.00000000000000 9.07504214142260 0.00000000000000
0.00000000000000 0.00000000000000 13.28224149329295
PRIMCOORD
 96 1
Ni 6.437272130147578 1.762718004696781 11.564807883684743 -0.22488385199471594 0.636900048266987 -0.9356244403919369
Ni 4.71773317520598 0.20188610646673666 6.051787941818276 -0.13985361379624947 0.1252636317972165 -0.1370984196486155
Ni 2.739301422572943 1.7226789194677206 4.842479609808697 0.7323517389090937 -1.2421120214020738 -0.19539201318318608
Ni 3.374717712139656 4.201354211330469 4.811053646925715 -0.042901170238900305 0.21158096423822273 0.11296835936963125
Ni 4.999812705164022 4.4248271201622025 2.59273314201787 -0.2147043403585528 1.1872565070147745 0.9898636613514757
Ni 7.432722560306427 6.168251585603095 2.7573534960855555 -0.7014164827828179 0.8352562862848196 -1.3766059135483064
Ni 5.229266066662561 4.507890979432735 11.842632126456952 0.629046099440207 0.9856429384019089 -0.46861671837513486
Ni 5.764294241813167 7.930933290131944 12.433984549675134 -0.6660833546991625 0.20932199300071694 0.08542618808530449
Ni 1.866999312123601 6.511868975247958 0.4858713952412111 -0.35823308901354434 -0.08907895434654335 -0.8213005954356759
Ni 2.3792128317289083 1.717941747552587 0.1371111793045737 1.1061376880555722 -0.878237674942352 0.6798734665047195
Ni 0.3955602074430435 0.08513659885945274 4.83943765573599 0.763825898257975 -0.4290163303746934 -0.3503811970692933
Ni 8.579245214356519 2.3885873500973624 1.244849826431857 0.18217011517627335 0.17717111929978518 0.6294271369287096
Ni 6.891868208202725 0.5576930925031849 4.707624485941101 -0.0840421632535843 0.7366771057573248 0.9158470006546936
Ni 0.6892675886939215 7.4122311155087806 2.5055755313087995 -0.3067709165785104 -0.10694812131748033 0.3635046218251288
Ni 7.688684119437353 4.0154066010985 3.9039160803203736 0.4693057740223595 -2.2740602706284254 -0.8187361771426094
Ni 7.650677843612487 3.7356230567621616 12.503981255994326 0.15555122703716434 0.17450000022552528 0.8875484108203165
Ni 8.028199590105894 8.954752301529696 6.955697515990258 0.30765023385967016 0.2035627219194365 0.3684401114535332
Ni 6.837835408235857 0.8553680821090368 0.5835578696589747 -1.1369377041555646 -0.976809656380995 -1.3252856660077756
Ni 1.9114216426304576 6.602564944826205 9.144530486982696 0.974787997965276 1.0679406081605607 -0.13680017168190636
Ni -0.026429244767133285 4.799181677003536 1.4964036376716323 -0.023767791843559066 0.6507811771244535 -0.4217444793036285
Ni 6.595622537709199 1.9321490385196625 7.134582021046846 -1.0899919315336455 -0.40852695217209 0.3678454152923278
Ni 3.3788559312839106 4.45128086754269 0.5117770100859245 0.07137845174298675 -0.1978265907666077 -0.1009746773428648
Ni 6.171854377270351 5.493513139123979 4.70344089158693 -1.427155344361084 0.5065751998967792 1.1841097338556767
Ni 5.288716666693289 3.049794908979803 9.145194780055851 0.07683433265123542 -0.13916918613471516 0.5376197279074096
P 0.08069527331296542 5.788170677270479 12.364863584907306 1.0665920645524662 -2.1190356055186923 0.21017071415425742
P 4.13100448587814 6.289122069774865 12.681020805015766 -0.7888190778682028 0.4126877684179989 -0.2991373112926526
P 2.2706662545700715 8.528615555133282 1.4712603263534922 0.15407104294721208 -0.03277359488659517 -1.2108366083275597
P 6.5820371998606255 7.798110975668542 5.965213856308713 -1.2549001743056774 -0.9458283775081323 -0.773717446340074
P 4.730038932134947 1.0667348849354288 12.709962928907995 -0.77304561708403 -0.7701834650448864 -0.04514111531301258
P 3.9748320883924424 6.283967445928512 8.145254926628004 0.10971565676028847 -0.5100320480971281 0.813618653410386
P 4.849157933203997 1.0586580975705457 3.9107568469671703 -0.44094367793989864 -0.2726703753503756 -0.21361393550785146
P 0.21638893105979223 5.4846195979806245 3.7908582997917804 1.2648991944999182 -0.30299628002742657 -0.5545255025238127
Ni 1.4914105495725778 1.1455243994319613 2.6096417602406228 -1.0538442779684947 0.5248122917300961 -0.6133420584413889
Ni 1.870593028748875 6.820166301494928 4.767978960153337 0.08500195606369232 -1.0065845736505825 -0.4009203434694257
Ni 5.982884778058039 5.437946657061981 9.032203247333733 -0.11591741469562616 0.13331838378089297 0.9256837842394574
Ni 8.833337314838944 2.4994662130458343 10.226714723390007 -1.3185550321521613 0.552268588168836 0.8814636380788173
Ni 2.295522794561548 5.2291299410328165 6.871208875128392 -0.8007587667285823 -0.10868515861324507 -0.06648564242705969
Ni 0.350234002754679 -0.2516000939538887 9.099677091981645 1.129740672186493 0.2965852342947602 0.9285284527771042
Ni 1.3621365765245357 1.1869610411264055 11.230228328350766 0.5757836405716407 -0.9131067189053953 0.6152025086888953
Ni 3.935736807529616 6.807479392802674 1.829163647088017 0.30918312556442884 1.0899749622527808 0.1149275399785311
Ni 5.861487941451253 7.973204835688825 8.015274915313682 -1.0258331374675493 0.017945785845143284 0.34615198947929415
Ni 5.438264283531386 2.940059501321191 4.771485556375573 -0.253176528291822 0.11015762939371351 0.3886631233686274
Ni 0.8391627796399678 7.5801919925304135 6.958499888954614 0.41934692560572945 -1.1828815178755305 -0.05535842216564659
Ni 4.874232274203066 4.636983451641116 6.901067578260907 -0.3029844529528846 -0.04597363851663695 0.6198109539951842
Ni 8.15905262045898 6.8675198705622975 9.106729307106647 0.14921654306838816 0.22312933119745443 0.5534235277088856
Ni 4.651839295367311 0.26420441976409764 10.467707908274148 -0.5016358536136329 0.11533505982959491 -0.02986104922549051
Ni 8.341578939863352 7.000142534102072 4.927857604784897 -0.03316517389805901 0.7136487631829516 0.5622457539862059
Ni 7.148319819600734 5.899303641394475 7.065554529211443 0.0955391081495903 1.003666371562523 -0.6385872061614227
Ni 2.2830264617509375 5.19295682368852 2.7140927709525253 -0.42627476307381423 0.14952764655090375 -0.22682734887433195
Ni 2.669459899471663 5.349174596384133 11.33096038685803 0.2962139669982705 0.1893103257654804 1.021671549890692
Ni 1.1901826810303757 3.3056747927328813 3.7547305576573993 -1.2827349371297585 0.11319538777877278 0.22689342622557698
Ni 3.628247160019134 2.657707720103659 2.6475491181078725 -1.5997740684034965 0.1475224431954169 0.08310371059971494
Ni 1.1219202152341403 3.1017676744165277 8.25183131217233 0.6856075407750193 0.9780191033080641 -0.8061693962211923
Ni 3.801852713154202 2.5943639270622176 7.027607241159467 -0.38343761330363 -0.3787443215930187 -0.5071326150621459
Ni 4.137502215937978 6.687661613500931 6.040191853172379 0.43543354675494683 1.6953486577767125 -0.9527569863071657
Ni 1.0669345358590552 7.391803196005014 11.327825867357095 -1.136467192277049 -0.21789585071265696 0.7493169060085224
P 0.3970566818660426 5.564126040793815 8.029380253067883 -0.44418841012944144 -0.625721148832032 -1.46034262974633
P 8.69918096920404 1.5516053030459132 8.25428883354133 -1.0224727056357488 0.48154602484229325 -0.7570230164035284
P 1.9760903918014192 3.3036238332447203 10.590396123355116 0.3698403342351695 -1.0700656249233635 -0.9190338830231076
P 4.02569769870724 6.092438684876991 3.9290466865797375 0.08443759891979007 -0.17011626933553284 -0.6146556350464898
P 6.955720203595217 3.9048725897453833 10.430079154195777 -0.5105660662237271 -0.07590127931400477 -0.6787038716766506
P 6.455812440918876 7.620721130026556 10.140061685015192 0.2298514804126364 0.9667736123012316 1.1500868399430129
P 2.5000379406907642 8.66290802639793 5.62397957268859 -0.3538133626792939 0.1804140517171151 1.5333128514564691
P 6.835158270850868 4.0676062425848 1.6753816156606456 1.7225933524252783 -0.15625108131766638 -0.5753912902292283
Ni 5.313564131642783 2.9460671791139466 0.41243524801045905 0.13243880938941707 -0.011025147465910046 0.5626810417514115
Ni 1.4149896210336124 0.9657750428743919 7.0248847285645635 0.7862878268059169 0.36157012380657727 0.03967957797780908
Ni 6.966129276749734 0.7867843598266026 9.360646259278798 -0.5332452529887977 -0.5515985586850048 -0.002310393300731505
Ni 2.8822605589313715 1.8492213048788757 9.118431573743743 0.12917942191185494 -1.4044077662519232 1.358681724969718
Ni 6.38291262866932 2.036021969057247 2.647761474090275 0.5681991433561634 0.6211052473265755 0.008947181890958784
Ni 4.461227113556074 6.839496140918748 10.305066820862958 -1.0901505685986965 0.15625545219304057 0.41471585459162125
Ni 8.015031704188539 7.168039885829824 0.04510658867237554 -0.5305792761208603 1.0461427955591789 2.477981918549178
Ni 7.9878428784074265 3.8789088946319783 8.358620961203256 -1.5683248487552794 0.18057243167185028 -0.16528310961294762
Ni 2.9912971883572914 8.383260607691337 12.482198432722495 0.9776943729787936 0.43593671164361053 0.11864998313544081
Ni 9.622720766689481 4.9313778135701085 10.164076061110645 -1.0173898917962028 -0.07988083278704307 0.6395418567652082
Ni 8.663470679000879 2.138769594388938 5.9323540367924155 0.271821397086519 0.8681489232477824 -0.7147509951081948
Ni 3.865849909218421 2.8156043755661293 11.603445782431626 -1.1177865851484106 -1.446755892200831 -0.5921186302862383
Ni 1.1191069522194057 3.6675057916376548 12.488030054700781 -1.1152116253323827 0.6938759514313986 0.3358984300720861
Ni 3.168242356942109 8.347994994545342 7.848264195187673 0.260116707055081 0.6273712828409453 0.6391451355474218
Ni 5.668979075865565 7.756846759771775 3.9134530419403237 -1.1077654534669825 -0.310207195953569 -0.47087029029600197
Ni 3.10719454952237 8.696149905181713 3.506684250144059 0.8476140365192241 -0.7348192266129797 0.4283434726773849
Ni 3.0239038142022623 4.453604078290342 9.096302991372362 1.428207182664366 -0.6006305244119914 -0.5533492228275244
Ni 7.141350187357779 5.909268037491825 11.526288867987837 -0.23479545468147306 0.5608419316601438 -1.3818905589860135
Ni 0.2999972928493053 0.10199802686389378 0.4175009364453778 0.7789689245470004 -0.34197420395252076 -0.06780461834879935
Ni 4.40762991560439 0.7261213341869435 1.7123596892288349 0.11092536079767348 -1.5660311676250964 -1.3108712903546584
Ni 5.8210314042909745 5.820886203619247 0.6922541850105315 0.9910006031693966 0.2757878379334347 -0.5463439951542849
Ni 8.052139550857085 8.724101034489397 11.499339623315079 -0.3732976966561507 0.28790056203656866 -0.7790535138410066
Ni -0.23611988733926248 4.609340873760854 6.0035069034602415 1.4557439546320543 0.08362615876208823 -0.11493988127370527
Ni 7.839810793580494 8.964045144520304 2.470988731303135 0.5815115441943534 -1.4229492766995364 0.27572998811230576
P 8.472940172567487 1.5729498017899637 3.591903431885557 0.7588883517470414 1.8245707600010446 0.19269312619478426
P 1.5687299072678618 3.3108475666632 1.315299377345999 1.2898106130296172 -0.03699200384331694 1.9471504172081948
P 4.760939450087112 1.0541931769149027 8.36866249515746 1.011070377336078 -0.3755160444637081 -0.991819499526266
P 8.457875602875683 1.641266717838097 12.36496976289851 0.6147199126255221 -0.3867512510578952 0.3329815135356072
P 6.0355744718114215 7.9910100680594995 1.6463605389031633 0.6297469821619734 -0.7769740056041586 -0.5687344470343432
P 1.7651138157802968 3.1606919220122407 6.057525183359937 -0.4995221497047397 0.5592432197144562 0.2385816611967827
P 6.710839270725551 3.871939262389023 6.265472510367129 1.7628550281588027 0.10457267910676829 -0.6019091340140988
P 2.356516151729389 8.547990769767017 10.147367093811521 1.3892117752377753 1.2026065071082837 -0.5079782508918929
