# total energy = -340889.4969872419 ev
CRYSTAL
PRIMVEC
9.07146460502601 0.00000000000000 0.00000000000000

0.00000000000000 9.07146460502601 0.00000000000000

0.00000000000000 0.00000000000000 13.27700540714939

PRIMCOORD
 96 1
Ni 6.826540293154886 1.9209643029546841 11.652816259992967 -1.9647429334789777 0.9969781609090702 -1.1375786801736734
Ni 4.791411606383294 0.282154303698785 5.856434224729481 -1.608441000049875 0.7010189902340831 -0.5263850355338547
Ni 2.6235855333205818 1.736740996911476 4.409745148723863 0.38103311762719544 -0.3983109308710366 1.0084460523393537
Ni 3.3182148032460583 4.7513157322100135 4.8420176796102306 -0.7524487667692847 -1.7252099641125191 0.8352339176873165
Ni 3.8852539215318993 2.885061433132943 2.2848134967082907 -1.0944252847146507 0.13222875026114 0.8835796559805557
Ni 5.054602013032476 4.849976982777569 2.2934703955145266 0.1136350464193527 0.4882110955672947 0.7274769273152956
Ni 5.009544047643634 4.680603664522067 11.151264045701904 1.8770968549242188 -0.5851157166058439 -0.671450789658663
Ni 6.0029873662722455 8.247040957587917 12.388282542761399 -0.47466575278269213 -0.3593458624617489 -0.32540910050498795
Ni 2.0792704342211814 6.527907673746652 0.2907667523277698 1.3809647047376346 0.5885008310279929 -0.3639293680673732
Ni 2.9851650465949677 1.889876393273274 0.14262519730814147 -0.43842605372436755 -1.886708924092686 0.7002260620191424
Ni 7.7439103084312055 8.806723117965491 6.703308073178789 1.8097928303609219 1.1626011703599397 0.8697409503252506
Ni 8.916959557547777 2.8844808593892575 1.348638335015407 -1.3837198988852684 -0.05855816004986689 0.04412630089525303
Ni 6.768800420052413 1.0335119784076576 4.746423491272988 -0.047573636013905164 -0.6257044366614837 -0.6486317348816183
Ni 0.8828930063661462 7.683376424187247 2.2391804004546096 0.46243012994844873 -0.8674716946750997 0.07750024837000846
Ni 7.417582507156225 3.801841803200833 3.953786116241601 1.0338254116444068 -0.033509958831987444 -0.7063609712722866
Ni 8.011119373962462 4.058183253967475 12.618399296096472 -0.0465127988495586 -0.08991379154301289 -0.7067708051161957
Ni 8.669961715468574 7.269372916151008 9.154800663113292 -2.3395472965876416 -0.16304856385547406 -0.5985250480332144
Ni 7.163508922575853 1.0661511085604773 0.5362224454003091 -0.13960447389992087 -1.2831393716570287 -0.31457987109996793
Ni 2.046531517956166 6.770596570071939 9.008727402055543 0.23314506356224365 -0.8078629818735311 -0.2858159115933981
Ni 0.23289534298649306 5.231159931366086 1.0954210967069722 -0.12466713586379818 -0.3241397468742611 0.9748072812389857
Ni 6.376940357458929 2.2371411351799146 6.968834381999832 0.22740224754119545 -0.10125029960175465 0.1989974711462573
Ni 3.748519733429217 4.1765567974261035 -0.0003020797760113666 -0.9595840365313282 0.5577766624712587 0.6588744956555491
Ni 6.019098287659519 5.579839821772961 4.5983318293094575 -0.7779847062568602 1.2046592758722545 0.7780798370738278
Ni 5.796647829180517 2.650155853558939 9.359133592203408 -0.05858927039811845 0.17594521731248408 0.1251042234012168
P 0.38416020331785455 5.905686835416452 12.355169882148886 0.1446258383739122 -0.4519778242668732 -2.0140399799418924
P 4.082884852468345 6.062432674746795 12.471914190539296 -0.3023900139019953 2.2654758713935244 -0.05541755753835617
P 2.570916609010612 8.74124528543546 1.0470139465342436 0.2809814663192322 -0.24466977637239148 0.6328500465673295
P 6.319200484356457 7.872697893417193 5.589898261882312 -0.5347750593697628 -1.4168848156730114 -0.9340750936269462
P 4.7657756470136805 1.0083568066695339 12.414570740446184 1.120546664392051 -0.19267178603854557 0.8403031046801076
P 4.040267111095931 6.293228880791275 8.119300219633512 0.3543376106138801 -0.6818599008071289 0.7315960916899916
P 4.669418548491375 1.3057194210134557 3.6985087482895573 0.17858085516311825 -0.24961297931027981 0.7743309115543568
P 0.19765814533068068 5.6387771282217845 3.2308928836098594 -0.3306279257017661 0.9469501498174014 1.0647856074713469
Ni 0.490910478998604 9.02845693072963 4.484919469919917 -0.43028902643952993 1.4466805588782052 -0.3172044532070085
Ni 1.8376701136653038 6.894095491111542 4.465348691878868 -0.1579464667422183 -0.13778747529584012 1.1910290866833295
Ni 6.223587245943248 5.375450649601425 9.070504984116054 -0.4909428926761609 0.7448588702371688 -0.21665220811354302
Ni 8.822099250708414 2.228550458066318 10.296517073000336 0.37013395421618833 0.9708971475513022 -0.6759515057424939
Ni 2.391283464128417 5.2717275217061115 7.056064679842105 -0.7513645325661705 -0.28253672662149404 -0.27492369016092655
Ni 0.766565078207535 0.2763150018423731 9.153048056124542 -0.38254672605824436 0.12549503108173227 -0.5302514604677965
Ni 1.7980913129824931 1.2707852102801291 11.328658353085013 -0.4615875794424954 -0.308721612546978 -0.24610085239196325
Ni 4.30942654154738 7.11053156846455 1.6037424379908198 -0.15359461753142578 0.050694955251706246 -1.2528977991636678
Ni 5.652393396804158 7.954504362488379 7.895981621978406 -0.3416222199297407 -0.38398011607066124 0.32500620863961444
Ni 5.154587697452814 3.139452518979392 4.893545413655269 0.05641308868240607 -0.36466753178497835 -0.48528183773564165
Ni 0.6759892241672739 7.338887550492602 6.7238340764574955 1.3305083478592958 0.8280242873127547 0.14657679145269595
Ni 4.909685363729726 4.676693863216935 6.895226702765254 1.0548174405150414 -0.17703433661160478 -0.33183377308440914
Ni 0.8365595930341446 7.707742378492548 11.018546702188345 1.2326177087583934 -1.3047289249023466 1.6047501814618492
Ni 4.911327298848586 0.4048440500831253 10.197603635712866 -0.3495013655675013 -0.4289070584903388 0.01880710540417406
Ni 8.179921189939023 7.178549411123206 4.413847265081591 -0.4519045478267766 0.23323813749668218 0.5807522974308257
Ni 7.652551586983445 6.38338109742794 6.669212972934383 -1.4764513623827347 -1.7179262859669124 1.1820852472264805
Ni 2.2951259378305044 5.451796096896071 2.65205541827656 0.46165699922785003 -0.9844139510908142 -1.8589860042561208
Ni 2.7432200103787765 5.232702080372751 10.746634082186763 0.5562242303824743 0.15813467149362442 1.373589495319486
Ni 0.9846167834316436 3.6348905660322686 3.8734737174139307 -0.13777899065540788 -0.8358931485378702 -1.8400973948817343
Ni 1.3324258132229891 1.4794923996703246 2.341718795054216 1.5640097663196935 -0.14102063752115712 1.5320707515192518
Ni 1.2966025989446441 3.2454162986667425 8.034314202169172 -0.2293431733176502 0.5893930038249592 0.6878194608246734
Ni 3.6493867666949162 2.564276296817209 6.891416687572318 -0.5288697496289214 0.4622822915166748 -1.6580136687716802
Ni 4.142702090997442 6.975711459423081 6.03988282768346 0.08434632475756441 -0.019911651322262483 -1.052181031333459
Ni 0.5723087321562614 0.31426547460344073 0.5628771302607954 -0.5142363159864627 -0.09637214557384693 -2.1647773305301814
P 0.3275370275255017 5.531144199021338 8.11076306416191 0.3559404363246257 0.16744386470969227 -1.5047697497114536
P 8.437024643744254 1.5494787501786638 7.894347851177816 0.6178895686027552 0.7765286905366239 -0.01457301271816845
P 1.8278275744168853 3.338643741851992 10.215633171893725 1.8920979563187414 -1.7631113671439829 -0.6095082865175955
P 3.9659808862984205 6.330966174130833 3.7519623542999767 1.1178953428121328 1.5391559405008073 -1.2507810099309815
P 7.287951275948944 3.8927469514113406 10.468932053384867 -1.1956866400599988 0.8967904982438748 0.11117938579000854
P 6.498234912565476 7.709511314117839 10.0230904255328 1.013086122214526 0.24421109156841808 0.02804996415868072
P 2.2346101965160354 8.765348167263154 5.599324420898931 1.441839171625504 -0.5763099453887558 -0.08089436165322197
P 6.9848192100271485 4.140252795516269 1.5621588435993452 0.8079586269111311 -0.07903236874381872 0.4361945932906875
Ni 5.600831191193089 2.893897039794657 0.3841792533938192 -0.0780635770726462 -0.4206584453283013 -0.5098651835019606
Ni 1.2591737354064192 1.1987396372746557 6.829053996035749 1.0630881651642656 -0.9869901964584227 0.03441575847570847
Ni 7.153838741157592 0.520416325228471 9.173733717182762 -0.2279442360875945 -0.2620252369317036 0.3664166532656012
Ni 2.977182157619292 1.5787342239815665 8.930074174129748 -0.672290769061455 -0.48483138046178437 1.6599237413101993
Ni 6.42811249008596 2.0527182569123146 2.5614133425436596 0.3721442997779978 0.9197933868969513 -0.02484328429592496
Ni 4.483317449245934 7.006772154710256 10.299650356923289 -0.5955330552844259 -0.2775703837551542 -0.40072571096011633
Ni 8.254225557666024 7.326069570807796 13.278068048040861 -0.7328821574912668 1.0836312794229401 0.9687785585464025
Ni 7.993720304581387 3.75307360873125 8.31625169786055 -0.40258307588382924 0.13575733223968878 -0.5180896282942818
Ni 3.200122475194528 8.354238456480598 12.132248614649615 0.73654726504768 -0.344973910010793 0.7166399846007916
Ni 0.5256841248059425 5.082750768136479 10.261877684871225 -2.317842043700066 -0.3866720610805276 0.32120637527755
Ni 8.541292059524272 2.25614585382087 5.795359681186715 0.04917131951832822 1.500829019896151 -0.7017412131120881
Ni 4.049229718264075 2.5516034605683235 11.2690978370082 -0.8792524893601116 0.8739315913678304 -1.1664832790231654
Ni 1.545714092309453 3.487442978065639 12.399860453215553 -1.5226242613943712 0.8863813870954089 -0.04187092920217306
Ni 2.9919867880832727 8.583882586502451 7.677999767032834 0.6019901237636794 -0.011586419286018754 -0.5027722812109212
Ni 5.710459842637454 7.998546323825773 3.39794390689062 -0.4543005588627789 0.5591360047126306 1.2905158666267582
Ni 3.1139798459751904 8.557947268796251 3.29264415842261 0.36670538815061365 0.5557483191873203 0.2597531530680752
Ni 3.7999912243928353 3.8245748938520188 8.904342964380312 -0.5264531697676288 1.4963375597837005 0.6040536911609273
Ni 7.203432438918977 6.165865515770267 11.288959809067565 0.9888894703636645 -0.8149777385414416 -0.10625855144962346
Ni 8.08358223434621 9.011819864387142 2.4566179675154762 -0.8696206226973024 0.05269733039371569 0.6304964587334884
Ni 4.669482048744591 0.7453786722953863 1.6024279827492567 -0.015100860197180443 -1.8290516785905337 -1.1839171582288965
Ni 6.057452440601742 5.36853819346567 0.05319416211871029 -0.4702552824198224 1.5972785556751523 0.07059195128594939
Ni 8.218075770656856 0.015836056005496778 11.474081190120538 -0.24257407018562738 0.17152420542665298 0.09702006357049098
Ni 0.2664180338054842 5.2252090504933095 5.4535568682030915 0.07790828244170453 -0.7259527773612853 0.4786959569880078
Ni 7.223453161611382 6.360856650465892 2.4428229910776236 0.2286461472506256 -1.3010365636524237 -1.2815252330923737
P 8.48464076219121 1.8810498580763053 3.476703270953932 0.5142275742357144 -0.6533504805135263 0.24536243156404197
P 1.9817249738172709 3.563298566264049 1.335268810274099 0.24922859938766753 -0.05199799033384593 0.7418342244782321
P 4.844715533225419 1.04694681769513 7.910055092383932 -0.02915528140771753 -0.1653270754770056 1.4285699653204236
P 8.776052495662356 1.9429716764262628 12.57983014943979 1.2875282447533438 -0.8536831255314394 -0.23259279060319943
P 6.414550650292056 8.052748325677662 1.2795736453251687 0.20619887399070294 0.12841220472852724 -0.21163598584587423
P 1.6110467814035632 3.165260836179162 5.8248882060784455 1.17319462960507 0.792960610840402 0.6437651508179365
P 7.079888160555649 4.1330409810439255 6.083975589223425 -0.8430287311413869 0.9864314957414754 0.20677968619483741
P 2.6069031096543687 8.547451584086186 10.00051971410055 0.8405954391095459 1.5249832485448511 0.6281806661161181
