# total energy = -340876.01751558523 ev
CRYSTAL
PRIMVEC
9.16716338065233 0.00000000000000 0.00000000000000

0.00000000000000 9.16716338065233 0.00000000000000

0.00000000000000 0.00000000000000 13.41707023865852

PRIMCOORD
 96 1
Ni 6.689526550179901 1.0699821294956167 6.925301405855177 -1.7586039661919326 0.2785582015897203 -0.4312413630504702
Ni 7.412944072322972 6.148599747215963 4.409613626588055 -1.550464423535091 -0.3195331013401852 -0.22385438228893706
Ni 0.045732227395837724 4.07427237722471 -0.1049585191223975 0.35828605373866684 -0.8606173907574275 0.45721567562704485
Ni 4.158307762903873 2.778081326924135 10.407151357173424 0.9828304086537784 0.13850095642309693 0.8976721295178799
Ni 1.1286611415750676 7.877517572426459 5.123080193003545 -0.50424937997708 0.3974930629554316 0.7542053444490753
Ni 1.279286801234099 6.458193185108046 1.7902259797152529 -1.8425659110268848 0.5208026563500707 -1.055972380055091
Ni 4.507824196828764 2.824283829795629 4.2619590445442315 0.7805113293334559 0.22363172475516968 1.3034364313431681
Ni 6.777567986207248 3.1725626966793197 0.49039648231354843 -0.239708061491742 -0.2576479337996143 -0.3804512769817964
Ni 1.6138974276849722 6.610230587910372 10.400242066218214 -0.09567486239650619 -0.7331418389105567 0.47760555213730654
Ni 7.363239713083043 5.404427767433792 12.641160627416317 -0.4224222220969435 0.15363549807169025 -0.19472249791998725
Ni 4.527606935161439 0.428309118930998 2.808461305994796 -0.28509137472254775 0.04150120456758014 -0.007275193505174567
Ni 0.5020131116069527 5.764055582443457 4.263676970940684 0.7960189380507515 -0.9591194381900836 -1.0544220048488355
Ni 3.6127515424895176 9.30082050860325 5.122073638476702 0.18036057277136036 -0.03019272153329639 0.09669867567533025
Ni 1.2939909311162172 2.488738152691404 2.3023156371865596 -0.7661717727823321 0.15281094528786585 -0.40278593592325473
Ni 2.515533770924217 6.689984908343309 7.040151294143912 0.28270641943013897 -0.1279964573473473 -0.5967563861685657
Ni 2.3338955979290223 4.358436104210933 0.7451400322232876 0.011303340827961179 -0.16272434774683586 -0.5440415722733534
Ni 4.280001855288612 9.689233216274918 9.29207228469645 1.4051145625109607 -1.3015196739364296 0.21234123944301495
Ni 4.847595936199609 5.185204225039168 3.941197251642558 1.9753754734921591 0.26686071064713396 0.5852255027108308
Ni 8.452674563033682 0.8195324788606806 8.356835537930444 0.7621636800642035 0.8724660625658975 1.2663482682416192
Ni 4.721831623323809 5.086538046784032 1.3543860361594666 1.068384894786831 -0.728659634769487 -1.5123197941445696
Ni 8.480203554327947 0.9709034288934129 2.1187697775152623 0.05377359417702997 1.8818701079431461 -0.08692488411801805
Ni 9.113654536157359 4.342677750552978 10.635161625560572 -1.7440381525626159 0.8643022958081825 0.6973238007706829
Ni 0.8445872527888711 5.288637328193745 8.200151300067489 -0.24689686593069735 0.24804074972715345 0.30611219994858896
Ni 8.794114726119329 1.6895173574839712 5.995564957050061 -0.875628262343963 1.8197322009618209 0.547927794701637
P 8.35020401202226 2.7816473534354467 3.5313728007254648 1.105550962314167 -0.5324407548096314 0.08894859941626618
P 3.1596553307977593 8.004226103118876 1.1966539915349625 -1.220308295263421 0.40898332298321827 -0.8514840609975917
P 8.148682261898442 8.019782779184935 12.40569103827787 0.41794233194871894 -0.3977961960181472 0.5362501012533926
P 9.298528717786212 8.0703396846088 2.9137580934417886 -2.053094265630877 -0.45529994666157075 0.7466301032049786
P 0.9869826332657542 3.820378623349928 6.345052972768821 -1.8760283044503885 0.3610098804277331 -1.2159106804163575
P 3.610661429264379 1.1645964215862294 11.79962879014472 1.0224678205397424 -1.2847900198865745 -0.14518171087738221
P 3.0664986176667828 7.120960755069012 4.64327270098104 1.5135449248009225 -0.6465877078683961 1.2585082033719102
P 2.8947334795113893 1.5466196164599935 3.6761837287235064 -2.2628446044182637 0.37189130322692726 -0.12917607947774526
Ni 8.969638401214667 6.446385878818664 6.434397062696572 -1.0111788778894844 0.59823245649346 0.549847123211537
Ni 1.382985752123452 8.344318693204107 12.028470520240292 -0.16991932283337832 0.9946790804622483 0.36327193698903243
Ni 8.478461793306996 2.3711876181038707 11.839101678461065 -0.49621879636311955 0.6039588174542759 0.2269664455553575
Ni 2.1866067856995985 8.466012785588845 3.157304870135805 1.673135354904467 0.8426734046844971 -1.1191749808555047
Ni 1.790273648964247 0.7973415267374613 10.390889726252045 0.5518677531859915 -0.1390699415526895 -0.582600406383158
Ni 2.7707384291463444 4.140193448286002 7.307191676861551 0.1293077199596031 -0.06941104360397078 -1.2854700766727345
Ni 2.087830601485244 1.933877261559873 6.097401140363326 0.9867510838644231 0.7213638724390221 -1.4460511528243223
Ni 3.7760462217851374 5.667323675637901 10.631176659687906 0.7651916682572499 -0.762838594644041 -0.1141361544254873
Ni 1.9509281852386386 2.529605366540833 12.143119647653453 -0.9847170841535299 1.2290875841179478 -0.7235971326449151
Ni 1.8993353903654704 3.782224889827873 9.753324521547887 2.2146485043290114 0.6388396884918611 0.6181086265920968
Ni 2.658018989601128 1.0872897337458907 0.3310996029191706 0.5867167425443767 -0.5583402482842126 0.9911422709535834
Ni 5.848906845653487 8.045927528825707 12.569728257798209 0.45811350485096586 -1.0396924119481448 -0.032571249067801976
Ni 4.7545217275380445 4.936178234859776 6.40787187578017 0.16651903890257774 -1.3389870747542683 -2.323111005408489
Ni 0.936407393515351 8.882917036697933 0.9739625112759956 -0.335476512043319 -1.2497798223599765 -0.2909565752540731
Ni 5.510262667364626 2.907136651413201 8.141398033965567 -1.2476411787504191 0.4481872468761894 -1.4075982481647629
Ni 5.158756959010545 7.581216521273198 1.666065003695054 0.2321402764468131 -0.15059851101757935 -0.8910607948489493
Ni 4.790622016488033 6.266168616130032 8.116885039386522 -0.26445955740480903 1.021629640909163 1.718611999180027
Ni 7.148948104526685 2.8425356518625233 9.603173720946145 1.1964160620268556 -1.621309628482427 2.2182547336230316
Ni 5.60804879794602 7.246165870985454 10.094761934484552 0.3813431926684465 1.6938777296581409 0.6011352319625518
Ni 0.5734518982393466 7.830581696493512 8.760246641425136 -0.09881237958422337 0.3730891801897704 -1.1568848367014528
Ni 3.628390723024988 8.101425535251108 11.162076419469136 -0.3357935290631056 0.7769287541885199 0.01752926713301497
Ni 8.017775170429209 4.003886897651826 5.3487555849062955 1.7102150333655834 0.0008296949901469582 -1.5166035091215881
Ni 7.057285639008417 8.575432046357527 2.698937539564858 -0.8058346385895928 -0.7699631215039643 -0.385545146564936
Ni 2.777989655291454 4.913196156546515 4.972997229409987 -1.1553925684266424 -0.32520778312745924 -0.007893800925779954
P 0.3860869983505363 1.7328505382525332 13.649990444182734 0.017898734657291755 0.5574010242993949 0.2722631126096279
P 6.178686377062043 1.5436861242141842 2.109511859330754 0.8146072425759002 0.7364037974912802 -0.48687077948931634
P 0.41402667855921466 2.2906907574462143 9.544622132436121 -1.156652923196305 -0.35486314410004693 0.5382275366947376
P -0.02147958025361063 8.928551175446803 6.624101422651416 0.5044663810838924 -1.8365364170033533 0.8783803711678034
P 6.436357002203303 5.998487448699948 2.376149803580922 1.1329483804905134 0.20982567211001285 0.31613538851254586
P 6.583389133861219 0.23962506424790025 9.485734109034155 -0.5803136672315103 0.8567177985927051 1.2249725335083097
P 8.006224544711335 5.354870082806154 8.981614383308182 1.3837764631548168 0.4277685740105214 -0.667747629775463
P 1.865893578763246 4.530146239386719 2.792709369351128 -2.0663678428113315 -1.182880746544582 1.372643843576765
Ni 6.637484564306592 1.2969977606681717 4.43141680770503 -0.2733193217882841 1.2232486088386676 -1.080869400407087
Ni 8.446743408399186 3.4026676618732425 7.741622627423023 1.1756801150310847 -1.5380189986828867 0.3911442379192683
Ni 3.7645414318836043 2.7376358025850416 1.9834725315569106 0.5743420230291076 0.22312033233638992 -0.3033264096733357
Ni 4.881441102985631 8.4396296897031 6.9876096978724895 -0.36932020006564137 0.46128521771072817 0.7190735337429487
Ni 7.39219878184714 0.7305055727820072 13.313530800900674 1.2779639981036766 -0.5718192566072539 0.5995547748493094
Ni 8.511078560215088 0.38789109608170885 10.82970899786998 -0.374653953573729 -1.639328433657351 -0.8435743192322118
Ni 7.098547040878376 7.954980102042356 8.106499560120032 0.911958721343881 -1.6420512319051528 -0.7247497581921196
Ni 5.939753433640888 1.2391254589563183 11.508586023842074 -0.42630458787048514 0.1873470313915225 -1.1437256736116754
Ni 7.729238706564074 8.451721178053793 4.891219716043771 1.45240434873586 -0.1269883277978071 1.9898605544822117
Ni 3.212256513630425 6.023348795483181 2.72732824420633 1.6670225571385096 2.3506459776039645 0.3084292781175398
Ni 8.004647792629212 6.784525863127777 10.584498381042794 0.46730391310098235 0.5874639051230464 -0.21590427420392494
Ni 8.450575282645273 4.5638722330502555 2.1226209028042136 1.9909265338528808 1.0810048975436868 0.038832142375849255
Ni 2.3185039308017923 9.078223450125945 7.165963276268704 -0.47184242440128416 -1.1165686535809094 1.106848340969352
Ni 0.5854361307798037 0.9381766560261046 4.170119652774889 1.1488683941548796 0.00391347612179326 -1.469421709229463
Ni 3.1225558210515416 6.285355488850278 12.77236656840809 -0.14136825066856298 0.543063010410168 1.66360761791969
Ni 6.512902815492386 3.8466700476029922 2.8303983276954874 -1.9618386153479894 -1.8409384027257907 1.1028813859018038
Ni 2.7271302334797376 1.9436311232771881 8.486230047460431 -1.2541784656483046 1.3149917402809355 -0.0879875210545775
Ni 0.5690140745012334 6.387826039861698 12.795980264270527 -0.28535208458310213 -0.6044372997525913 -0.19148445059866376
Ni 5.068350394860014 0.8510235181194418 0.37082275479273374 -0.7024557226806095 0.16140100094972204 0.08822020589067388
Ni 5.465609415085449 7.773250257414479 4.267822362170543 -1.1006067309350143 -0.8543590685525415 0.9690341262006344
Ni 6.203749401437175 4.971123461237977 9.895424719367535 -1.6841684727901767 -0.5393991884053356 0.5730387308366518
Ni 6.9815923719032735 4.948379729169688 7.135694219873589 -1.4259610669426668 1.8648200944393951 0.5941500588939703
Ni 4.219012718065586 3.411871493794469 13.001006620911763 0.9037147361675338 -0.5558794454485458 -0.826405520762409
Ni 8.160617908473577 7.068093724501571 1.0639308850223086 -0.9032601651286185 0.00030236173176722116 0.15712474217187133
P 3.902507239069316 4.322895012220302 8.94394009242505 1.8551920844313277 0.705671915625062 0.6851650539209619
P 3.1702800730255496 7.700270470636709 8.983372645223014 -0.3377696789528699 -0.29204003812623897 -0.13898355248647032
P 4.215648369146174 1.4292340908112868 7.101118430175093 -0.17953859109069725 -1.0657423149576613 -0.8613645533360971
P 5.27868178888453 5.845835845958654 12.440401585276406 -1.0534812382021213 0.4697122654321588 -0.2583840406346905
P 1.7538250078100688 4.663280951530113 11.932015461765433 0.35896868162798823 1.3942449667863084 -0.29816440585642195
P 6.29537519830237 3.516661337112732 11.712646161474845 0.3120563333471658 -0.5164358947409429 0.05215277074415534
P 6.131805504108706 3.1688499955557172 5.877441474758268 -0.6214376909653297 -0.7090783702034498 0.3148284967756642
P 6.218756047707142 6.88847232742537 6.356753023247966 0.3006259800230371 -0.49519035509860526 -1.7791463091196584
