# total energy = -381174.7935618244 ev
CRYSTAL
PRIMVEC
9.19539387332388 0.00000000000000 0.00000000000000

0.00000000000000 9.19539387332388 0.00000000000000

0.00000000000000 0.00000000000000 13.45838841826221

PRIMCOORD
 96 1
Ni 2.6144343691580447 8.377978476175118 10.484568716241654 0.9914500320019893 -0.015622794138921479 -2.6732016678205572
Ni 7.653703282426055 6.14971386562414 4.614437121370549 0.27874049280385543 0.0858283086197296 0.43570762635193994
Ni 0.9625186520724859 6.589005414293904 5.112276661992572 -0.342738592922371 0.1541587175650119 0.35354751061241696
Ni 3.3677945935403617 1.1820678747723221 3.0251227258304008 1.4843662463544371 -0.1970622017967574 -0.34037112113145895
Ni 5.0487861458653605 2.7614503254541156 3.559003612505866 -0.7431714552324168 0.2055789810185169 1.1238813851922387
Ni 8.151799374535484 5.403581220779521 11.508886851518982 -0.7044033333252836 0.30834648859574637 -0.3093070527368028
Ni 0.8794897631695748 6.9514050798921305 10.17514739256263 -2.2669825378460375 0.5602891444804673 -0.14172923355240752
Ni 8.88664927117049 3.4113347832490115 12.822466329077818 0.9528420898218042 -0.813149169973135 -0.8957885393419217
Ni 8.926529694141223 5.731130343823199 0.368363798025899 -0.9562140916178304 -0.6601006547531664 -0.6947164450548229
Ni 0.5230818161804628 8.078392545719401 0.7353813903974482 1.9326941325735492 -0.1548868539802881 2.5981910186416224
Ni 0.25303792743055065 2.8572295474193314 6.949629449346673 2.683014283035605 -1.0768991029054291 0.4513342771456034
Ni 3.682047177129191 4.591508406895677 2.129090449189683 0.9997418396971363 -0.90597833539073 -0.5847146245126833
Ni 3.194626937237659 1.0326519206908327 9.206614033396493 -1.4757401952483231 1.152410602980183 0.8741964149934429
Ni 1.7010926832021078 2.49515172060459 2.187270625389387 -1.274294005451257 0.08523232690694355 -0.051367555838698634
Ni 1.1259483863263051 9.256175366974462 12.032781540512591 -0.081254316095802 -0.755508379531215 1.3395774000400993
Ni 4.974845984208074 2.905082376826684 12.211011261109826 0.7802776160560949 1.7999686451816483 -0.05413611972277128
Ni 7.925371997262878 1.623262869961556 5.505368713062715 0.38125397538874983 0.9213789862165164 -0.3684627371613525
Ni 5.793447527699761 5.126128603233778 5.957678180754769 -0.396096439718221 -1.0965510728084018 -1.0274699017400242
Ni 4.081651406098315 3.5252013448460993 9.991615607892319 -0.9230543170364103 -0.9326028799567939 -0.30010584585350897
Ni 4.056106602083398 4.074543366680197 7.619479865729613 0.35947261784760026 0.5552904057142952 0.29725423533732676
Ni 7.246614002892446 3.96322392916955 3.8770658477517803 -0.9758344369519195 -0.5864346925275836 -0.07134348473999326
Ni 7.50182296280245 5.8306153094954025 2.1431134247558266 -1.6013619817159066 -0.03852283866554656 0.3920731774914409
Ni 4.1353525059712855 8.538208213381711 7.934527850883343 1.151160789733482 -0.8338668621364606 -0.7454078007621033
Ni 3.3847325089455 7.958254725541258 12.359443308053232 1.6409173754110256 -1.4068222892306868 2.4176826074384876
P 7.488728722011507 2.953588079194821 7.3392226530706415 -0.22900147370751528 0.733174491920705 1.0003601900074255
Ni 5.0009425118518225 6.128895494029551 3.845344497712091 1.6915691361296221 -1.4208800528753336 -0.25229309724560417
P 4.689724408221568 7.775992824756643 10.282491661327544 -1.1589149797576042 -0.06990186719746025 -1.0490054618189546
Ni 6.797979934107795 7.905178912447631 3.2704420396935934 0.751115649780158 -0.16810026734676856 -0.26497197826485336
P 5.115774589799366 8.042548900632957 5.868584010092232 -1.48233250375386 -0.7336419184754268 -0.6663312090439105
P 4.020511232629928 3.919196383588765 5.4199490217682005 -0.13365622673628594 0.3996702731124085 -0.503260019480617
P 5.902992254204333 3.927904421530495 2.049645005256035 0.12166588714362915 1.027631881239185 -0.4842677946488306
Ni 8.42894854408537 7.682181417067595 12.52406660442409 -0.8682839061637498 -0.2717128965331127 -3.8748067302475206
Ni 1.7419937948861786 4.284676506114637 0.5413328338222217 -0.6146931731526446 0.628824213237388 1.1238513032852515
Ni 3.005330560185438 2.101570474583548 7.015359963406941 -1.0092150692948942 -1.3242096593347774 0.20692212530997267
Ni 8.893389494836056 4.100400814084785 9.039919014799372 -1.3641507185040895 0.5740658865495856 -3.172385974569904
Ni 6.0791576088903545 8.034383390926244 11.773600170474996 1.1568269868803238 -0.4109653864102535 0.27656945329446564
Ni 3.3919600884831977 5.750532624770455 11.057816003373658 -0.002324791478434706 0.3141970338392524 0.6214130083749814
Ni 8.26244754829772 1.1940862544870434 8.319477380731309 -0.05609478611103888 0.37944726119731426 0.4183853330234085
Ni 5.17795384276872 1.6007157643299597 8.375962845851118 -0.02119411757911189 1.1369389897071451 -1.9113367499436953
Ni 7.771689380451755 2.9625627835571526 10.482213775885922 -0.43785783992572336 -0.16553404928148913 1.2325030375573998
Ni 4.697347389693261 6.050688669642629 9.055718540450355 1.7446079090231565 -0.1726806876285994 -0.934774690797132
Ni 8.481518610519236 3.652741457044404 1.6490430760581076 0.5571541983959114 -0.8178103228942303 1.3826487773082767
Ni 2.908613408051208 0.20855245123783545 0.6196132213596529 -0.37938324072859825 -0.1391758710029345 0.8961276678488954
Ni 0.9769002479973704 4.693172680901767 10.56114703638414 2.1252982985989526 0.07770799350544036 2.413535932259966
Ni 4.429743038922168 8.355486542906405 3.754432397692554 -0.19763272958824674 0.30667784264407183 0.24775381461435397
Ni 8.102153443334428 5.24202734686373 6.814210723728649 0.9330944748812317 -0.5242571905575746 0.9041937326864814
Ni 6.49004458606909 6.8698327413693345 7.016638123147069 -0.6830235820979269 1.995795431909408 0.3551107413344788
Ni 3.4244014378585135 6.381833191667529 5.6017447160864515 0.2342385537367385 0.7541073854186302 0.8241462924145871
Ni 6.306853950509276 8.905821667272399 9.021857422270179 0.6932627433274319 -1.3776536380865307 1.6368172371997232
Ni 1.2929183471984627 6.457860707720563 12.426371981927446 1.7476963181404934 -0.134885985378329 -0.23948746084050365
Ni 6.601741034726107 1.894802849284984 1.4156878890861344 -1.3510465770219635 -0.14664621123805066 -0.6960410774035174
Ni 5.227029659553316 7.346209313290416 1.471042320766838 -1.9841233948881183 -0.4917736161075724 0.06904286163127465
Ni 5.896362375264536 2.753652631499958 6.116474356065781 -1.602290407067447 -0.3502061049440098 -0.994404743754939
Ni 2.536457429616471 2.5221310060544697 4.61493551171526 -0.14242625961943214 1.0598244068113294 0.4940364439998201
Ni 2.4778459894468967 8.876543533369054 5.292618564548851 0.7972322416325625 -1.2374580675698301 0.6983427289535006
Ni 6.711524841469838 4.160786965260435 13.468078606906792 1.082770988305174 -0.2719278407573962 -0.11854611056772486
P 6.5469548783831 6.418090629475598 13.326603794922956 0.6277829164570672 -0.5530239782776217 -0.7752009728641359
Ni 1.8936166434829955 8.02209834479092 7.977862983309943 -0.8898896573589835 1.6540623974334159 -0.7174388263530032
P -0.162436631721922 2.6019102427835605 3.678837065148771 0.3333406966472388 0.9120885620535261 -1.085166485120544
Ni 7.280131213343982 8.1262085935515 0.9018548000036569 0.19015159071985313 1.3726692974980617 1.3014656807700424
P 1.0110335498344367 0.5524601798763795 6.748533542952501 -0.49366671936522716 0.2666460235331666 0.6588210167097944
P 9.023292823244523 7.609933207872059 3.1421295144149233 0.010027559439331118 0.24047270757190847 0.5332696784688301
P 4.868298956086822 0.3030709847111705 1.7341271354784171 0.9443512787419736 0.4858325680327891 -0.11428373574694511
Ni 5.142441231859574 0.6149272486721075 12.930981171475237 0.779611957447638 -0.03399486888820597 1.3398468516514022
Ni 0.7994907565283323 0.9121223767362183 4.548800400327182 -0.7666895929590151 0.21468762818800444 -0.036875789980426815
Ni 6.500775610649871 0.17489363172156466 6.754388250193788 -0.2586627482173739 0.8305964189153049 -0.31061625846652957
Ni 0.09476772864569079 4.134469748165155 5.047110745112474 0.7427572505131337 1.255134658913987 -0.7972620664292335
Ni 1.1179483937082428 2.2499289583764432 10.988881814108638 -0.3296393365362516 0.43083281475814195 -0.3065012078568915
Ni 2.3557679411740273 5.062717167493366 3.897576173653606 0.004240263333592698 -2.351172796641712 2.4672046254280153
Ni 3.2513257354939498 1.4476032619352965 11.875130191731404 -1.0269114581333927 -0.8139657523371595 -0.996144095043549
Ni 2.511510326199456 5.989382979085593 8.958629894406043 -0.6994400757827374 -1.6868647886754176 -1.444084773126571
Ni 7.177133607234884 6.105998963433026 9.131826056429569 0.6769400949080083 0.04344804388130582 0.729179511828699
Ni 6.1426701939627195 3.7909206398853508 8.74543560837097 0.5875680348010783 0.4565615869828137 -0.14822435435844794
Ni 8.362098031058574 8.092121268683503 7.807224979845435 1.5934260146982815 -0.8734453957600312 0.3748149046316255
Ni 3.7124655398654562 2.5953355362066475 0.6439074518158838 -0.1980461629765815 -0.2502840372353754 0.9663856328341939
Ni 8.54020361383932 0.8201730362944771 0.03721743692223645 -0.14286900358380555 1.359692939843052 -0.07184330719454723
Ni 5.744380906308979 4.853742647679474 10.797315094323773 1.059473451229814 0.6900182682482051 1.6621657432668406
Ni 1.908880997214011 3.381357799415812 8.835324261059023 0.7534378701554315 -0.3434582446972149 -0.1128842842962572
Ni 5.817088885195208 1.531713529150718 10.538442689518325 -0.9539263240249184 -0.4043885045236842 0.2641073162717129
Ni 8.227394707079268 0.9542795792152629 2.7144894492467078 0.754278620889172 -1.8155654711786409 -0.251408894868438
Ni 0.7803891649587908 5.705107379329962 2.4227517874111255 -0.2639399374559132 0.5835275461831176 0.13698246289604152
Ni 6.283755121248848 0.7046678555197583 4.12456538948824 0.20288317935390865 0.9571299185638805 -0.13891079026700592
Ni 4.7279496603058035 5.197944628920062 0.02637790669445261 -1.9958949336017495 0.597464467979184 -0.6443202519904581
Ni 3.0896982984276478 6.7626144494996705 2.7412581601782495 -1.1210552285973532 1.8407509693053332 -1.3016117194296033
Ni 2.034673984587682 4.271986862651503 6.359640108697767 -0.15792178415186994 1.670846044649658 0.4455320686415295
Ni 2.739813563810092 3.7466448186715917 12.11191709967471 0.03161711268464877 0.06837643169186934 -1.1452194845483825
Ni 8.271137195451823 8.46905885190145 5.342576219600197 0.3114883766588377 -0.5275217202414593 -0.633308988481619
Ni 0.7338908170602207 0.20880256594957256 9.762862715524186 -0.3669265030224842 0.06805555801734085 -1.6555276691250325
P 0.819675565489147 6.233952868352955 7.587705182405804 -0.6153914847712498 -0.9188418216169595 -1.0146228705740268
Ni 7.984176540702544 0.5831176228518049 11.019526383532723 0.20882139921521456 0.718818223199033 0.5647196694479951
P 1.5196307816792995 1.7733316970038298 13.391257528367621 -0.4222499581851373 1.3495455669964047 -0.15226432875577647
Ni 1.7510052808237662 8.888341223632242 2.8222916486235516 -1.2631565007771988 -1.6700721425981109 -0.3365080386316269
P 6.9654832278211565 2.0894601409306883 12.363172040244754 0.6181826743631418 -0.11320464375015343 1.2243048180173237
P 2.7400894256245074 6.358844707132866 0.6366292976122098 0.3350723346263649 -0.18863669673722352 -0.16393070935011123
P 8.043900623523594 7.921197288471382 10.118178249728212 0.1730781801773342 -1.2834142225849703 -0.2626443585729412
Ni 4.4679223140373345 0.926583053047902 5.508558595176746 -0.7859265868117561 0.24748179189988992 0.2828336890366226
