# total energy = -340850.7788053465 ev
CRYSTAL
PRIMVEC
9.45736326452027 0.00000000000000 0.00000000000000

0.00000000000000 9.45736326452027 0.00000000000000

0.00000000000000 0.00000000000000 13.84180710254770

PRIMCOORD
 96 1
Ni 2.9599181820644827 7.809861985763411 5.27424082839348 0.8315729238959615 -0.791994647382707 0.842475429741078
Ni 0.6299104992151433 7.714910061335173 8.06837522017338 -0.6064772130007555 -1.5282074119091036 1.517934826338502
Ni 2.4894711174471307 5.992081160016146 11.643893965511534 0.9785942590852437 -2.3397164751756545 1.0336824583086393
Ni 8.814895950802129 5.35457923552824 4.484551964392949 0.3595224972489292 -1.3515078329290984 -1.0508088335762806
Ni 1.469655294053699 0.24924880162412152 1.9491889930326691 0.6138647637140783 -0.5321718174189609 -1.190984349488323
Ni 4.269772413661616 3.0586530516890633 8.991679599981381 -0.40863031051917376 0.03413370845891541 -1.326593586185922
Ni 8.548340174904732 6.449609466787983 0.6503516435835887 0.6881567895594343 -2.0490401501661615 -0.34779698128188485
Ni 6.658825250871793 0.5458127902915169 9.366432337175713 0.005518358715067916 0.6961318373451109 2.667036933770742
Ni 4.573211905223367 4.414366036428878 4.113673908815972 0.7274509591733666 0.8260399098928741 0.0032897264948653017
Ni 2.262314715769659 4.502707264126504 9.421951786613558 3.2914987562743763 2.306141724544003 -2.8985272353383826
Ni 0.513536701876309 0.4626466316224901 13.014260188469388 0.20794259615468702 -0.3837379181528682 0.0344430121692181
Ni 1.4854490902484356 9.276944877083595 4.221529459308939 0.6993709131076987 0.3606967200626885 0.028924139233517932
Ni 4.400142162490624 3.378453781225002 13.5854291146757 -1.6755156822111854 -0.8206246524145738 0.06821265242049543
Ni 6.560884799738445 3.099149480015927 12.247396670047298 0.7585399672686871 2.4093710022489985 -0.9010528730646546
Ni 9.073715603773 1.3706745329913559 3.0671088799391915 1.1179953587251066 0.19320991793020273 0.19561209961379214
Ni 4.352997207981186 5.6356898930685695 8.543993570874132 -1.6089163970243967 -1.798437810359419 0.6591110371463874
Ni 1.1646269655094839 2.337056255486427 4.896552525726785 -2.3921906338149705 1.0950346361638754 -0.4790317430608718
Ni 5.65746074267353 5.261263434897422 0.0749070435691085 -0.9597498726852309 -0.22842168994464532 2.606726824026775
Ni 1.4968830421043857 1.8638381835127538 10.804720395397627 0.668955276930319 -0.936332007981923 4.11984854524735
Ni 0.9535102514645107 5.955074498632911 1.979322988730447 0.8014758474002649 -0.8297129878690872 0.2258583000928433
Ni 3.039237085468827 5.679619344161115 0.58672345111738 0.8310049672076334 -1.0003123674886256 0.09062907244248262
Ni 3.7684092294271423 2.854941452865934 11.265902081492833 -1.1361023527384628 -0.3049392626864103 1.2132339049151428
Ni 8.472643441525886 2.039555987882937 6.020535528046748 1.1998564551669724 -0.21677870638907829 -0.568548299165466
Ni 4.874523490112174 4.904900540038817 11.705781057451125 -0.22215179777553354 0.8414418462702411 -0.9020419764508013
P 7.768145557610725 4.160653359473071 0.5141154924913496 0.2501706515859627 0.5208558781855094 -0.40178989055857256
P 8.228671848450665 0.16362845725896655 0.688888506298746 1.1319561917805732 -0.9919886781142787 -0.39351839457839966
P 8.253279906952883 6.997587993204407 8.836262971007379 -2.6389442892995842 0.9304045867538944 -0.32349697108393966
P 6.844870495627996 2.7096858146893115 4.732749107252487 -0.9094027876912467 1.5356301867357358 0.3224716151432188
P 2.6101092397585437 1.2877996611024476 5.80623641135535 0.975045879612353 -3.145829050016982 0.7354599455207721
P 1.2658018347857065 7.006298224518988 3.9266157804834485 -0.42519927062144836 0.7101641470684609 0.09595305575855732
P 1.9494084038540571 6.045477431462543 7.278797007319841 0.516166186019324 -0.3034253971450452 0.3944499052537336
P 8.670529304746646 3.100189789944922 7.983345015258853 2.145441606316047 -0.453538998106406 -1.2341827392526679
Ni 2.062282031149974 3.6131855306581535 1.5914614006944834 1.537022181987256 0.09871210656093322 -1.3634081839111098
Ni 7.2606729168841575 8.264836804527715 10.93570581855734 -2.6732482047877766 -2.168697491520194 -0.13855674936169685
Ni 7.866048179292111 1.1176900729858443 11.783599077348821 -1.702801257400016 -1.2287235159103096 2.341257080189897
Ni 3.05663863337201 7.761402457798242 8.30286958979546 0.2771844611706452 0.10707359115175108 -0.3646050539781592
Ni 3.262695658216873 6.640534710847469 2.989608627437989 0.9668247772541412 1.0462484678991077 0.19082419130684555
Ni 6.604104948606675 8.208991076066685 3.126974933407636 -0.5518610683177722 -0.11017228468173283 0.8788747943057186
Ni 8.201169836873243 5.265661108688172 7.274076837451103 -0.21707746857641966 0.29156952624772364 -0.35080568620122166
Ni 1.5028222660626458 7.263491211055433 10.283091973746338 -1.7294322297239828 0.3056815401690735 -1.8529822212642024
Ni 5.265907000125934 3.156631332274375 1.9738972995825905 0.07827980684851035 -0.3349196110985845 0.4850686932835711
Ni 6.049137430940006 0.38510287525152975 1.4440192201943742 -1.997301069920657 -1.5578134077009946 0.31740268526074367
Ni 0.8783979831185006 3.9127191313046783 10.733947165191822 -2.363725436495742 0.2837495159826726 3.9203710491408805
Ni 7.378180652045595 1.9930163046049136 0.991737858409867 -0.7711275741257106 2.9300193924093922 -1.026231915567865
Ni 1.6012072132565647 2.430873296355761 8.715520817703066 -0.532911780908779 0.24237223858746643 -2.775873273249871
Ni 6.937420249856554 3.2348720962977624 9.094551120178165 -1.4348501419021806 -0.24806928897224373 -0.007872460769541281
Ni 3.6893456748235507 7.7401895926097435 12.751459931415663 2.21585203771881 1.014371416684853 -2.2590288302165993
Ni 8.889164622369353 0.6820659646371394 8.171981577474552 -2.191805538292567 -0.2584845707682968 -1.995336232884802
Ni 1.257876564599366 -0.013441750018909652 7.009615867456183 1.9454504037979528 1.8967051160734494 -2.3862999793621484
Ni 7.744142770339923 3.494646942930711 2.8011668868999022 0.2879015904778332 0.6718140865353527 0.3506061685959059
Ni 2.0671336583642854 5.046174628396288 4.192116114671065 -0.5349470661712529 -2.0601912816869743 0.5309577425062018
Ni 3.058435532340274 0.43087840359989144 13.679691597341902 0.17776067325466807 0.8092079259372 0.49617791582285514
Ni 9.206109228282052 2.978256008903761 12.602798696826031 -1.4032715957649509 0.2891542319380117 -1.17165119637735
Ni 3.0678739806051523 2.583779941191989 3.7153761207195948 0.2289294828189993 -0.30542365852199654 -2.2162788408435827
Ni 5.6705781051418525 1.3373278710855827 13.031465968958658 -1.1677986554004791 -1.4644805631741036 1.2760783510451894
Ni 7.143354328982536 5.763506153890045 12.440309851807463 1.6821280453213805 -0.19378018861137594 -1.6229214530542373
P 9.037248012080243 9.532076158488032 4.962965911593801 -1.6319002595140797 0.5281328714628969 0.993417183030689
P 8.111457291541944 4.444345877109905 10.873777114220587 2.816969786179865 -2.8437383125229605 3.2506441841518594
P 6.495279072670846 9.44499276006819 7.508446369881704 -0.8126652883581811 -1.8205649812757614 -2.2334059874421732
P 1.9249516631596926 2.7814388277009683 13.30481402295609 0.4802095654190569 -0.3691417655062481 -0.34970294005534613
P 4.7200090935675 5.297589166145316 2.12637836308423 0.53210214052329 -0.5168009913898454 -0.6751053556921147
P -0.3783408607130647 8.864008036813665 11.295121550189394 3.1492468174492796 0.15401242179513475 1.0046994408127279
P 5.005914634144195 7.15979122586065 4.424561073733026 -1.8649231956761625 1.149705288233878 -0.5310371895938854
P 3.9466426923528943 -0.015143129620965411 2.055411256937114 -1.0221721436761944 0.9334022359296377 0.18718119523761959
Ni 6.338116614488732 2.093065747685224 6.920820686334996 -0.5691612501591166 -0.0275164602527139 -0.49527391595134707
Ni 0.9904507113068108 3.99563183264555 6.782014969718141 -0.3836111627670168 0.5205941398836906 0.3329383190024976
Ni 0.1826396483431938 2.1408254307890684 0.774289439842513 1.601748418521048 0.04315185279712568 2.0107260850773114
Ni 4.289103263614934 0.6985662258472931 7.435084659425302 -0.1519820216286673 -0.30354135389761916 -0.4462825736543088
Ni 0.3973615091602828 6.8205934448304575 5.8839305397978645 0.17740508968746221 0.6471636349765242 0.31580885841106254
Ni 6.802009726553417 6.535283718122186 5.00047759616075 1.7502802768175856 -0.02254266118720634 2.3749225907631417
Ni 9.22566705494715 6.814975771213886 12.218190441658924 0.6029128926882649 1.6552273642757944 -1.3020238672663578
Ni 6.940720869540364 0.9616908704516048 3.678654125962383 -0.39933397281891225 0.8508757379896315 -1.571328925688926
Ni 8.744807433676863 1.8274557080869145 10.032998629607134 0.7931308178696792 2.3973474954255614 -0.9220929815644054
Ni 5.471642474629108 7.460752888318796 9.250742307181119 1.156985623945375 1.9304773274278881 0.3108363448971357
Ni 3.3889325394188754 4.645059491864932 6.25883554053635 -0.7345734291507607 3.014216336073286 1.3270846668897274
Ni 6.870613437689117 5.969705039179771 2.920773210909013 -0.22866285942117393 -2.213085016496634 -2.5212641262765803
Ni 4.680089564383079 0.6971561330253558 4.4953759163359885 -0.8174565390992373 -0.7458222625917027 -0.5718945899298796
Ni 6.6587968787828204 7.415669638941365 0.8775307429322386 1.5618143013302714 1.2587092636391224 0.8118250518450728
Ni 4.0057984978607255 2.7054867455213696 5.720984904146838 3.2312639798530354 -1.0341622261585353 1.114208637989165
Ni 5.943025818182554 6.386122189030338 7.187081392507077 1.0884564687257254 -0.07551484250886349 -0.8115196047895121
Ni 3.259990852401487 0.8515343435429621 9.6625915507071 0.4285589311223006 -0.15100525953769478 -1.0040072998417098
Ni 2.1866936412947404 9.070500100356108 11.364275679851161 -0.04232292913792711 0.6735994605705495 0.7706632328947823
Ni 4.827728458033397 9.59515676963707 11.212458523231481 0.7017689810262302 -0.8623706260031083 0.07459335913585863
Ni 6.896990023070627 5.406537987800026 9.766308559155265 -2.901776595513615 3.7604108944027437 -1.9592862812397809
Ni 6.780588799379119 9.063123357223237 5.451041500826117 0.39702743617292263 -0.7397668004262421 0.9050560806867768
Ni -0.002013472580754144 5.451526663547548 9.436817815498891 0.6203657980573896 0.20472794587213128 -0.9449621728530951
Ni 0.6849892355376143 5.06566625352045 13.17594704910633 1.530415732414332 -1.1104329729968165 1.3806862542652674
Ni 4.513299510676267 7.657399836987752 1.0020019344638476 -1.4634084131558474 0.1350173687498707 1.5697263570884967
P 3.7560106265461246 7.553586363437081 10.476697434477435 -0.6125691848311063 -0.18375879981963192 -0.041449011173406033
P 1.936489646008542 7.188967190687454 -0.336809796875001 -3.85548668976267 -0.3278632184724354 0.16057670527621376
P 5.799188784454561 7.388602666061523 12.891580221488248 -0.05952515194882652 0.41428416637084137 -1.9094336193837116
P -0.11721550264502086 7.845989112388497 2.048421319950569 -0.2972359805048817 1.5498938957436017 0.3630989017462779
P 5.56732261600764 2.1287767503387123 10.38235172701691 0.013995028727511382 -0.7499275430093277 1.9148511908548569
P 5.26245506263427 3.9407791272985606 7.3022862597802405 -0.07544182317908298 1.944431475615135 -0.25757542869046607
P 0.616616284058891 3.706463501837008 3.0184412899882247 -1.6825705321754376 -0.445944987809232 1.42651539678424
P 1.0897624800738341 0.35655204211842173 9.346541611333336 1.0301271368572131 -1.7303403433605489 -0.14515959939019515
