# total energy = -381166.84372283024 ev
CRYSTAL
PRIMVEC
9.22974600690633 0.00000000000000 0.00000000000000
0.00000000000000 9.22974600690633 0.00000000000000
0.00000000000000 0.00000000000000 13.50866623813339
PRIMCOORD
 96 1
Ni 7.516566599723534 3.827584846813177 12.402009541001506 0.3449006335706963 1.8184741601850039 -0.18378862461630283
Ni -0.18204935371632205 3.3819819453991626 8.543623186232514 1.3605360045696373 0.7542570236226172 -1.6748981032318446
Ni 6.2192704376002865 5.242920229015214 2.2008052162113465 1.1434258829830695 0.22043275820189778 -1.8215491995659017
Ni 5.696737604263783 5.50688173148087 13.18991602792354 0.08462014724424137 -1.9801991201330478 0.09331253281191672
Ni 5.763994762502436 3.7909242961717706 3.7372404022264845 -0.15875019359043627 -2.230966524762745 0.7631952066525114
Ni 6.270209405120407 0.8302913259591589 3.3899730593833843 0.09573271221763513 -0.993061085242851 1.5700282045996317
Ni 0.3862630191925317 8.389312910788519 3.0723433535404405 0.09731445488245821 1.5083242998319315 -0.12847879630040457
Ni 8.912058028280297 8.399770212872284 8.980129250105701 0.06572536722226745 0.4194019472133809 -2.150867405317309
Ni 6.116229554578971 2.267591657410042 10.798692847405094 -0.878853197039164 -0.04231881537286905 -0.6901061999763212
Ni 0.8212166398084462 0.28032491893900696 13.195319121162584 -0.44041403068867374 0.28038162795170424 -0.2903333398477774
Ni 4.411006313730083 3.970479772550905 1.0358608411053642 -0.7929590681785053 0.556295449940042 0.6260942159007347
Ni 5.026565755806449 2.816383117779476 7.7381284955586525 -1.9657654612062208 0.32708417421456576 -1.490366172691614
Ni 2.131711338542271 7.431182220573572 9.69988421641316 -0.7504052539766947 -1.4240972742610507 -1.783414083257077
Ni 3.2656317688166925 0.3439187910372838 8.948923479280275 1.4322353299871526 0.1286060659068882 1.6766526240291058
Ni 3.7892260229295704 4.986397901730064 3.327427686417248 1.0862088103421295 0.7391083409066368 -0.5073323897777778
Ni 2.6426793002892266 5.3718690087259615 0.3567629054060102 0.14504955617489212 0.9568234430670554 -0.3278755597676095
Ni 1.9361791720422208 0.9208563614724201 2.298472541180439 -0.5090766261623942 0.02195696388706541 0.24556220627967384
Ni 3.6664057944841533 6.4052959658423685 11.93708139766076 -0.0032488459546008565 -0.06063638273513429 1.087857658799462
Ni 7.2156122757647365 6.559903439103748 9.950253995093686 -0.14234398431827097 1.6621803985548598 2.590829178959912
Ni 1.5812585239141626 4.3435645605738 11.872563627999744 -1.3581186533773966 -0.22853507559405803 0.4061682221319263
Ni 3.1640491856446578 1.4028752252619812 6.887339749945809 1.1507766669211859 0.9001208481686885 -0.20212238992848416
Ni 4.189741615712348 3.3192012139130473 9.7215925787265 0.47365582346093904 0.9584157272548398 1.616712753140364
Ni 7.682775863557988 0.23230070516827017 1.4671087187498473 0.6423379314531067 -1.5936635846303844 -0.0811193331798345
Ni 0.40788092999623327 3.7136067149222582 5.875891586697072 -0.05300611988338614 0.9827514757867267 0.12489236450072684
P 5.859181131778576 3.042668797556758 5.724040115555915 0.49782239340481366 -0.4966818520424672 -0.06010519282201262
Ni 3.2168525618328467 1.1528783283150683 4.29374331527993 2.263771229997592 1.5341451175497771 -0.9675022629371403
P 5.340930900531099 6.820265340675611 3.265828362403969 -0.9728897525012986 1.3506087181535966 2.038460317767786
Ni 0.8681526665397514 5.835876023427732 7.064788998314781 -0.3634028061399419 0.4546065201389719 0.4910004853869737
P 7.641038952681744 3.92764452191476 1.2568661832638275 1.3170877035780155 -0.5345691140065439 -0.22169876939851496
P 8.762886875343133 1.1794599964538526 8.202867429108828 0.6293690299972645 -0.41161227596563305 -0.2236900887969309
P 8.013376131288235 8.37010580960907 12.618769200054471 -0.020027608074836476 -0.14845086854695722 2.1957742931323283
Ni 2.8846093993356887 4.221021224504828 7.055373734541039 0.4909315798222512 0.7653649606103206 0.3641517684908245
Ni 1.8162663135494832 4.809426754197755 9.335771664361694 0.9591631469438257 0.6789414416087532 -0.33817077104603044
Ni 1.5300242045258323 9.155483346159567 4.97324274492513 -1.5296847677855785 -1.488229071743953 0.2697308331060774
Ni 1.1797830375597058 6.654692929306982 12.279431131898185 1.9182825851339091 -1.7091410835751144 1.986210102213818
Ni 4.231589283539171 6.497224234822331 1.4742820772489666 -0.19427898262466542 0.24111805446539117 -1.0861998114810647
Ni 3.4311488017100316 1.2521903940002483 0.6598871426215535 0.8103644081391463 0.008638649511604478 -0.18358525035624512
Ni 1.995415681109831 3.1520135970151526 0.3068705910688532 1.2758191838465318 -3.568817943250673 -1.645871119871875
Ni 2.019182276754751 3.398023243741248 2.5474643188008543 0.5784064229064684 0.7811065397152935 0.7154148539444389
Ni 9.076061382849067 4.627250029988269 10.620053884791995 -1.766932026441654 0.041797138541444144 0.44315842620303036
Ni 1.8630334359311567 8.476801671999468 7.51501969431379 -0.5852496710805469 -0.544658894142378 -0.9172379674649493
Ni 4.944402557969138 7.581756294884725 6.978631166459945 -0.9509083631342011 0.5073496161689585 0.735675661076004
Ni 1.4554570875490136 6.235311735942372 2.488431787117226 2.957302139384746 -1.4941585498545107 -0.10101710054502602
Ni 6.719356528952927 8.890506571646943 7.555910237492699 2.23909043942146 0.9681039010768812 0.13130315312307708
Ni 4.875631721405916 9.100769412573902 11.051764172705143 -0.7324895500385384 0.35252858242959934 1.4138113189540102
Ni 8.110325382027746 1.9588289684354765 6.00306179437645 -2.5064576573913673 -0.5047916256337952 -0.0864703130791027
Ni 3.3061595829824566 1.5331069396502608 11.84175104434887 0.3391133374649579 0.9299273900071597 -0.40277976527566767
Ni 6.612845261480159 7.580685644362469 1.1146625654926252 -0.8927281552490431 -1.4858361460317442 -1.5109100582812365
Ni -0.3031168534188381 4.725620661593533 3.125324863824143 0.12730997280328396 0.45076632045727527 -0.8420861647224593
Ni 5.2850078702349546 5.587891211082991 8.026133486045675 0.8223526908492741 -1.8304346749809897 0.2842999891695039
Ni 6.6102055541580444 7.5779997883109464 5.39298389837912 0.18102083206317857 0.24052952895177285 -0.21105105987668168
Ni 3.0236370615490595 6.617330917978579 5.81569703000696 0.7817107489581957 -0.03690150101203967 1.279080885316939
Ni 3.099274829048134 7.841868993317787 3.51603569755698 -0.23015049971029397 -0.4907870838245871 0.9559873203190051
Ni 4.564792339608007 6.814118329918516 9.95749473073774 1.0008906085895988 0.8793201093732533 -0.4453973428358781
Ni 4.607756806686494 8.715307535323886 2.0184512808809343 0.5790962498846414 1.574685757976301 -0.20925463009789122
Ni 6.922595533264048 4.406022250954061 9.511803223763263 -0.19343566078776364 -1.4190160030834014 0.3694760089172153
P 5.54829560125126 -0.05115955844668993 9.194348883092069 -0.21704327290437458 0.4022102659254428 -1.0666884809210146
Ni 6.192725688445028 7.291517705894376 12.05401212525918 0.0805349214312742 1.2596086355249405 -0.4707486771164731
P 2.5417243398371356 3.0254553214877187 5.364142788448539 -1.1131501148176635 -0.589016851432463 -0.6880557452051957
Ni 8.074846238859173 5.534091022339598 5.075313581654298 -0.31100475215419987 0.3385831759931008 1.1621034047879146
P 4.122484457473696 8.115180228361424 13.246786953121715 -0.5850635232116699 -0.3477414454536011 0.5460316061201886
P 9.240544684203675 6.0957948971972815 9.16611601341508 0.1005761563528655 1.0182977483224527 -1.0751808346627418
P 3.310405266087957 6.1549852575354835 8.290551860932466 -1.4165608566746895 0.36898981330941616 -1.0219829104835239
Ni 7.35010813275028 9.236760488392253 10.802677328702147 -0.9725447104570542 0.11133262353842116 -1.2220332483743277
Ni 2.669547090550338 8.399234887611156 11.544506155259855 -0.4013340339680766 2.5409734317800496 1.5958166264176452
Ni 5.576621691361652 2.8199827186732698 13.018098770491473 -1.680401806658893 -0.07524590511819298 -1.2067464974185862
Ni 6.9557210912328316 2.2492798415811017 8.483077899198904 0.21726875865161938 -2.5480629916369795 0.759555295907079
Ni 8.007506012907587 2.678084605490746 3.5393518816028817 -1.9398189165437882 -0.29475229485107945 -0.04675988186335819
Ni 0.8062533757853222 2.08775005890858 4.078928363684204 0.9459970418755127 -0.4884106131726104 0.5527038759340417
Ni 1.0402385095769702 6.761527237885603 4.632296855036285 -3.857861103532117 3.6404429637868274 1.3099572631808214
Ni 7.03343555155525 4.074822049741515 7.201442769887423 1.0605882815605476 1.666105701751195 -1.9963081098797686
Ni 7.541228480718962 1.6992146762800173 12.562896933360676 1.5012118571568662 -3.398361259856586 1.5710263068468429
Ni 2.388519787949747 2.6406856751788177 8.746645291515419 -1.5936185903250617 -1.3647932371840947 -0.2645911978866669
Ni 7.488295888088431 6.693513240484665 7.813223553999895 0.2940125884715775 -1.1095066045278053 -2.8516051168655467
Ni 2.2393486350125835 8.176899539071165 1.1488800023991927 0.4712528704464013 -0.9793200815076747 -0.8342496993971762
Ni 0.6288696586121097 4.676343048332086 0.7916306893852264 -3.99584963909517 1.2864879764142876 0.504741232011834
Ni 9.065622540257065 7.021279976229285 1.4277309309209207 -2.125242505660353 0.38427065072788663 -3.1808767856497346
Ni 8.478933743298102 2.214880578680668 10.377694602562043 -0.41114742051407255 -0.3346650718856171 0.45632067461660125
Ni 8.286087432849573 5.924924611692659 12.667144144168704 -0.5801141496261945 1.7212568930020422 0.5705087653259464
Ni 0.18190260075680587 8.013606874935272 11.038809301385838 -0.3163027673283456 1.1724919471110902 0.40467466830553533
Ni 3.679447425414744 4.165199721413381 11.969786079217348 1.6914855752768803 -1.9953562874894604 1.1404030369963456
Ni 5.599049973853751 0.379831732262287 -0.14954864954371758 0.9455900362450811 -0.09947829530299643 -0.2749576287226555
Ni 1.9860567187859675 5.039339724106475 4.551934380620458 0.8495804162169754 -4.88831039961544 0.3856539042286584
Ni 8.991470761844916 1.9392988261501753 1.412344944536423 1.3431805440103255 2.2899733423142563 -0.2498263808726665
Ni 6.337125062761444 2.0406506656751717 1.4979896025202448 -0.32946270174907133 1.968576448292455 0.24214366751642813
Ni 0.9906932336849585 1.481900309499575 6.592769641213261 -0.6813572501390975 0.2984713955738795 1.2346599359994028
Ni 8.912953313630805 8.137027036862989 6.305332280097953 -0.44876831619064006 0.33115397340856517 -0.3903214849076568
Ni 1.4282108777067597 1.1961658364994079 10.398498449778993 -0.31662621210603537 -0.8449493452028674 0.26147810617898193
P 3.4030349957549144 8.744722735448297 5.924333907956241 1.2134797023773618 -0.33131878112120355 -0.6654022694717379
Ni 7.439064423556392 7.232770373358487 3.2534540421006115 1.1166756114724188 -0.03912370547433907 0.3308611247584947
P 8.364964841153064 0.4104754115635292 4.3701886855436385 -0.41749238889549395 -0.2553344551750893 0.2116601542155903
Ni 5.315613707578083 0.8139722122660392 6.0918814849435154 0.5109111082679717 0.3606013321354048 -0.9731625465467112
P 5.44849435903436 4.687954068651041 10.979506338147882 0.44010061321331306 0.7631926355493501 0.35151016846741395
P 0.4089792697561344 2.3540097680987353 12.16936272036268 1.2123471314348153 0.06698829309509109 0.48506097997408715
P 4.201980258751247 2.4368928861148054 2.4206586860837955 -0.34767176855793025 -1.265954632347626 1.456403956813556
Ni 5.3678540692675 5.369330828608542 5.657902525492689 0.16379598354445984 -0.016896518645022514 -0.7433383198275844
