# total energy = -340887.17755745386 ev
CRYSTAL
PRIMVEC
9.13685781573207 0.00000000000000 0.00000000000000

0.00000000000000 9.13685781573207 0.00000000000000

0.00000000000000 0.00000000000000 13.37271498106848

PRIMCOORD
 96 1
Ni 6.821833879391931 2.1273711533378616 11.249194272405713 -0.1494039764888459 -0.4422968495336834 1.3342415896494828
Ni 4.637859891867791 0.6994611860741816 5.73648024440617 -0.39321680417758087 -0.6758661451175392 0.17060452182586103
Ni 2.769372467962379 1.7303015862567788 4.278105252117904 -0.2361082599556256 0.13662250845346147 0.8961202116497277
Ni 3.4166366126904144 4.541374673303286 4.926614750566617 0.7436280831538612 -0.5815506249624048 -0.49689319672232496
Ni 3.9621161613191527 2.7546712637322375 2.1190940738399844 -0.8249376779676308 -1.3258492518207294 0.1456393672400911
Ni 4.946932381297856 4.669500830493631 2.60985937679355 1.3145896197465101 1.7288575881674355 0.31371726598935645
Ni 5.604475491071827 4.83089428700153 11.506298141935098 -1.187887455730554 -0.5791096196210801 0.38281154968385683
Ni 5.278381035525694 8.078087871445852 12.165680501187953 1.2953341139510077 0.4857369229951893 3.0300306773977237
Ni 2.3468567518564716 6.516845565406784 0.4116172720998708 -0.735489513207127 -0.5019724110174452 -0.20182928416809756
Ni 2.6980136083990476 1.655434173291102 0.24190013811922037 0.1827586406898917 0.8409947314304936 0.6431246890204602
Ni 7.958002149135882 8.949698423051998 7.014818021807668 0.2106024023750373 0.44758869406024204 -0.5579635816710843
Ni 8.915435206232216 2.652475509031103 1.4542021893225072 -0.249137582335758 -0.8287853338484952 0.2998132543137546
Ni 7.165242680504327 0.8553204478013487 4.4825077257495565 -2.084504918731674 -0.5804139402548003 0.6169272046894859
Ni 0.766834548257036 7.528880484827121 2.1583158633979243 0.24535523247519034 -0.5390888562537683 0.25922119182400516
Ni 7.470751795385135 3.665223103361292 3.7036134388577393 -0.1101655998135135 -0.17108223279322793 -0.40354466846615017
Ni 7.920276063202848 4.053767982097614 12.7621702133322 0.24766871109971544 -0.43807484103253586 -0.717660455445506
Ni 8.361668527562 7.3411820146594495 8.763407942674172 1.0248885141660928 0.01368881034100223 1.3586251607001698
Ni 6.9635556810163655 0.6693607216765581 0.10083984500085316 -0.2679737412056546 -0.12691736535055562 -0.5417620322105573
Ni 2.2589601796414596 6.60222950172168 9.12328044788992 -0.3844768532014217 0.16264978575515857 -0.17854151728475054
Ni 9.105098100830888 5.050407296093596 1.3491868002985503 1.4283221109756754 0.6685043054358294 0.27776475915414744
Ni 6.36507322018188 2.0137634632212853 6.960029767584164 0.5733004691384707 -0.052028586461465236 -0.740268422653009
Ni 3.4258008810824787 4.225933793973651 0.22835017797422413 0.6344217619298235 0.6310227635506035 0.5462231533057044
Ni 6.410583908976368 5.725008919414908 4.779662097841029 -1.7032308887382666 0.05203090045431039 0.2119889983099188
Ni 5.418184097008219 2.8563553543955305 9.42534405368733 -0.18233183756511825 0.567260690702294 -0.13348833369985397
P 0.40297654566081287 5.814888189776559 12.622010814394748 0.8314677657766647 -0.8459747011435882 -0.17483630051902146
P 4.196083679480258 6.159795435571206 12.60497422930617 0.10184756686612137 -0.22642934210496488 0.1904575519960462
P 2.680644441685873 8.513349504208717 1.2884888264379712 0.26467321607751193 0.13515389432773497 0.9814445840498451
P 6.500052020736181 8.107334953323218 5.674938938568934 -0.42982134277449197 -0.5961282656662636 0.2796743174720345
P 4.879447549449615 1.3107096646528267 12.279254384930601 1.438585697685213 -1.6176905436726012 1.2555475780816894
P 4.3819821886576635 6.30847952285342 8.365368954978537 -0.7430680968853332 0.15287856530100769 -0.8540217398177808
P 4.838459605275337 0.8428870116817864 3.460617791486068 0.2762033282042985 0.51534626122119 0.00317891194861388
P 0.4507586573090072 5.7686374154987625 3.515619848182526 -0.667383818678141 0.3080703521162243 -0.011223122409329057
Ni 0.42043616726639166 0.3313134287321219 5.062414954638811 0.4837286343159088 -1.0458067523759988 -0.1541882852513667
Ni 1.9895507900019729 6.980312678255693 4.80186100759712 -1.2043263180128678 -2.2129407776092855 -0.30610731485258247
Ni 6.589894743666557 5.7678425088685445 9.385893842683926 -0.9122862798866288 0.7270305838064962 -0.8161157088006268
Ni 9.020682671444765 2.263656524560224 10.036316599159854 -0.6411230852093991 1.5109162289288236 -0.5690450362962264
Ni 2.7059626747012366 5.571235602327729 6.888593244729375 -0.7338231812482975 -0.2244331376105425 1.1697820043790952
Ni 0.6571155048280592 0.22889473470021318 9.016887220706916 -0.21363141900934823 -0.690479781265656 0.02284707980150259
Ni 1.3635115659865644 1.3252464054422326 11.59529387814569 1.3504369684624227 0.4446902894665245 -1.010776500244743
Ni 4.683927928989214 7.055134406932277 1.2052758075407772 -0.644432094977974 0.7619693046652103 0.980192456810299
Ni 6.000247624342666 7.9310392817131685 8.11325289613233 -1.4157183061687362 0.22096806188007748 0.27963112293892484
Ni 5.085273545529406 2.865793728522153 4.265534763131064 0.4301555861854592 -0.22866131675927717 0.5916995404709487
Ni 0.9228409133950827 7.649605787184393 6.859654074960497 -0.3956436684515186 -0.23121159398495664 0.8712558443078802
Ni 5.485769434292466 4.715696783624515 7.3031069007577445 -0.44700865318705596 1.465077316217838 0.5469538608241419
Ni 0.8591935618306568 7.2966763802250085 11.001973741978718 -0.39467359122876544 0.528055224147426 0.37737160961520816
Ni 5.190036757277569 0.2560860235683917 10.339274703337706 -1.368933227494397 0.3777436482426462 -0.5421788080330017
Ni 8.25581802973342 7.43276987743318 4.265320960658108 1.009782768872906 0.7815459412455572 0.6339700191043856
Ni 7.39225704986547 6.345090912132584 6.8887138512525805 -1.5045080114096347 1.1610595369044328 0.7562858811271879
Ni 2.495677892005965 5.230129289385622 2.7605426085664755 -0.7427266543855143 0.23809880802309316 -0.7236562680176246
Ni 2.406931592013822 5.30400992170689 11.43281587661472 -0.048759943012522476 0.34054287082263285 -0.17869398370221481
Ni 0.7896045116267899 3.542962808890494 3.995928017362695 2.1218005698583395 1.0578212603383716 -0.5980825611791571
Ni 1.3473850119367206 0.8134352641892841 2.421491174947774 0.9760822912966673 0.8951023119081746 0.6183245992576448
Ni 1.1893721928217076 3.4174315193206333 8.093434137837987 -0.17225696982761945 0.7975338320333812 -0.18685157981234274
Ni 4.057687694101796 2.9875423589551096 7.276829297671426 -1.530809625418641 -1.5236041088091372 -1.111015327862848
Ni 4.321231221021736 7.284341622169887 5.985720934096861 0.4123488970213415 -0.12417785493220548 0.18502506812656522
Ni 0.8335674167068059 0.10336618618769836 0.21238260525042416 -1.2710333324221141 1.1542088325311863 0.530900406905705
P 0.26715532681563575 5.673623231043054 7.6164563533327 0.9512022402255361 -0.6108642863248576 0.9242018003772923
P 8.636304199873729 1.7150613074153402 7.7773573332041765 0.14625026135121263 1.108088126913724 0.5975040629678677
P 1.9227420856323083 3.346630008084237 10.49525457158808 -1.174888472367725 0.24882493619134569 -1.1787027039074927
P 4.049747764657425 6.351989239785633 3.9040971141709893 1.2533410573486736 0.093521049278297 -0.44031838565107395
P 7.230781361637205 4.01452517776669 10.362650440380833 1.4593936355694994 -0.18316718898222 -0.5722239482448404
P 6.905664549877663 7.934264592523138 10.38192098720606 -0.4284393748253008 0.04266000076237169 -0.19294766540775157
P 2.4163151449935327 8.835953680068142 5.799011071945162 1.4794227863062326 0.016861808752345154 -1.0601907890118127
P 7.002295958167266 4.093440218746011 1.5119462170503306 -0.12593443261199602 -0.5102531629689986 0.5386787652995433
Ni 5.675742982056971 3.2728772917724305 0.03620388542045381 -0.6208080278011309 -1.0386408307551789 0.06682965603003975
Ni 1.6413451385348077 1.2967850933372675 6.939583307157683 -0.25468987961255496 1.1850700408864172 0.3644376751623595
Ni 6.931211204338492 1.0173799812442235 9.017154930641002 2.0331152514057886 -0.728143614365017 0.5700109997539214
Ni 2.933360792090762 1.624076477257638 9.357596994019694 -0.017087808720222183 0.3043471376283662 -0.009427978182119247
Ni 6.307876490237391 1.8364444635355524 2.156697725878249 1.4008974391058195 1.5225003342219972 0.9121291854834744
Ni 4.430380124522832 6.864466457973558 10.495548778409837 -0.7523883458449946 -0.4262493091525175 -1.2295349560680116
Ni 8.520905685624706 7.666454153001907 13.218768236473082 -1.0667591862579497 -1.0117910575521865 1.090537262514154
Ni 7.639363369569733 4.028659896812077 7.9486350425002446 1.3255977979315556 -0.6927166410159747 0.20905614093383992
Ni 2.6842900479554976 8.636523484461376 12.507165993729531 1.8179936210041592 -0.9011963406210544 -2.1208898851186118
Ni 0.2135429861933874 5.0813812440986785 9.887531092755852 -0.1439828054732746 -0.5771887484492834 -0.15873810940557825
Ni 8.573990829550821 2.6203503169408764 5.745573245307249 -0.09481379994779156 0.35362438659693934 1.1756675166255945
Ni 3.6453138901745445 2.791903959343067 11.644411798406963 -0.059357516022710666 1.383318549681792 -0.6535111744611067
Ni 1.2572407726983306 3.5906937541349038 12.837311732032434 -0.9401686081191938 -0.06646250249860812 0.015390880633773493
Ni 3.097011052479856 8.757532029411026 7.923547971987692 1.0964317736217182 -0.8501877107836713 -0.009955054330182855
Ni 6.049495287984965 7.8592784004058185 3.5047479010641642 -1.9973599481830504 0.8599427332879062 -0.3577890594975903
Ni 3.289561194149209 8.402948851186473 3.672481423212395 1.3291176381593561 1.3920356178398157 -1.4189239575902273
Ni 3.546462225435021 4.287890826841634 9.151671406189681 -0.41631919452299915 0.8424468904959879 0.762880246515254
Ni 7.655279775889749 6.194369305556819 11.563641061604683 0.12573002991067378 0.07940749269505033 -1.3848856370585956
Ni 8.208644432815948 0.1979189593235671 2.1492091572101173 -0.3049004390286749 -0.4343086891218843 0.28063668138530373
Ni 4.656197565509737 0.710534144064553 1.136372021673306 -0.6128167820655381 -2.2151107886774106 -0.7234482657718766
Ni 6.618995635818825 5.943197084123276 0.3140484221980795 -0.8618078115211029 -0.5477974397713598 -1.2180320976347345
Ni 8.443690100199648 0.09396710054969594 11.403729603434963 -0.44483427124355646 -0.4140003165818354 -1.1330833634064807
Ni 8.701011426945115 5.33460925854141 5.512312919941306 1.8784441129807325 -1.7212730909519585 -1.2157505006894094
Ni 7.284177158729152 6.037626509678593 2.5439981645796754 0.3824464530349542 -0.6172799600432144 1.1054979975890444
P 8.84837980670145 1.7468484357662786 3.68295226227252 -0.03267717851804695 0.2570879475310863 -1.6707470571779486
P 1.9423132350797674 3.3369175282230565 1.7428930900166033 -0.5832591230130794 -0.3090157467486291 -0.730337279582226
P 4.86273623649938 0.9924729068306971 8.219111617132945 -0.36472975248148154 0.4223754280194081 -0.41648451645626977
P 8.652047005895191 1.923381665679611 12.58567718559327 0.15481203487829467 0.1173528615905721 0.5339906157952545
P 6.82841241702133 7.79354784525875 1.3923803819502394 -0.41722422283577176 1.1361208646812242 -0.7936900328072589
P 2.101596077431567 3.262781063882868 6.029436230329993 -0.15436646270044382 0.03184156999062903 -0.10125929846281916
P 6.4618234076231245 3.7560526069360782 5.730529408908911 1.0533028036427277 -0.057916155590493804 -0.911080946724618
P 2.4064930228385286 8.683130596194099 10.09660067336125 0.3749645428356123 -0.3820613017813936 1.001850915620339
