# total energy = -381165.6037904093 ev
CRYSTAL
PRIMVEC
9.19807928196186 0.00000000000000 0.00000000000000
0.00000000000000 9.19807928196186 0.00000000000000
0.00000000000000 0.00000000000000 13.46231878525295
PRIMCOORD
 96 1
Ni 9.354446737796563 1.4748936337386462 10.56837798198091 -1.1641451178082918 1.4248606347896364 1.1639101189793502
Ni 8.836935197178423 4.196660513182531 2.2673100126477137 -1.3784126277397422 1.0463374280684883 -5.092608457039003
Ni 2.132887440852722 4.983482620207697 2.0857040530150868 -0.20240752526907077 1.0625335782123764 0.13040172435473027
Ni 4.103667930567856 4.607419144421253 0.9244134171693914 0.6874471650869193 1.499795950645946 0.3942724991356048
Ni -0.12018670432587886 0.6258170857982842 4.086661601587019 0.25874630907011564 1.5191712698487643 -0.28491936792105765
Ni 2.494408753126425 2.258901128471024 7.823586470212493 0.3059455924637376 -0.06238267600227967 -0.07970291244828209
Ni 6.801547397840593 5.153739069683226 11.984438860336772 -1.7324568754829193 0.8874702492842136 -2.979431624293933
Ni 0.1592307117128984 2.6848089964621074 8.539121622363252 0.9893926352523285 -0.7050335107101148 -2.46362333583466
Ni 4.714742334722739 8.013789874649268 6.888439814205014 -0.6791432732069141 -2.9744519116911543 -0.15843343368096585
Ni 2.675537332438805 7.243027614235894 2.329707943601366 0.942422694260693 0.2749892532915393 -0.9817914258663027
Ni 3.622737151676577 7.269738836779219 4.853058453522754 -0.45506109117788723 -0.056650144393876625 0.4280732497351338
Ni 6.9683085771486075 8.99103981924828 1.0257412993256496 -0.2908974398813635 0.13347804928720883 -0.30874089582068764
Ni 3.9612816616385635 3.276024747217871 2.904845451586561 0.5020641994003031 0.5472549370043286 -1.2615719298988983
Ni 7.445514133887667 5.998959782744056 6.000815035356656 -0.7666818796495313 -0.07952164967541142 -0.00209802017960929
Ni 7.32136765638517 3.874304622943771 7.299565448811326 0.11843735290400247 1.2965417611058636 2.0198604432784113
Ni 6.393290644195459 5.288950836689725 1.3746511249501956 0.9296178291865409 0.5364267360405729 0.442847836941147
Ni 2.1755205388170165 6.325712354930374 -0.12805014239484866 1.2043538288166937 0.2548253767491547 0.6377888786298436
Ni 2.628654721797164 6.330467761974073 7.094265236674703 0.45515879309801616 0.7051314697405598 1.7321051485704557
Ni 1.791519120518559 3.1652890694633653 10.213053415791038 1.3057601943803383 0.457423934983109 0.688878498216807
Ni 4.438671179965388 8.865513629837553 3.530022351059427 -0.418770227166653 0.0073893504855356605 -1.0715190695404384
Ni 4.492746688688599 5.5859108297376725 3.260695228109502 0.6876448829200221 0.3552940609898784 0.19280085541724215
Ni 8.955029338443488 6.859384921033576 0.4650999644562532 0.6321879875032984 -0.531172429620169 0.5415802552170543
Ni 4.248289332788482 8.390938723803517 0.4152371760928361 -1.5680222299131963 1.0584234126987448 -0.22767247048344658
Ni 9.029487791090943 0.042431660025692555 13.05789703610457 0.09634180655654376 0.037548133457103075 -0.018709660594361327
P 1.946782700591328 8.934112905914727 12.698506918825114 -0.2695369719277165 -1.2588545309677353 0.9202189044701443
Ni 0.727519329785642 6.615773788437173 6.2164143369842435 -2.274573462819418 -0.07341193723324776 -0.970998706126173
P 1.6036299528558546 4.2111290920601645 6.987630062711455 0.12558219147889985 -0.14913606753943992 -0.29257637024568317
Ni 6.684179904847197 2.643454431532773 10.285225225902588 -0.8209704657897667 3.0872536635759347 -2.454973373469146
P 1.6517727003736786 0.43229225489443135 5.487443550271144 0.4241556598482824 -1.3406649766773233 -0.034617332963553286
P 8.156967178405946 4.860127177532584 -0.09713815699493428 -1.1692166187939284 0.1534328951425809 2.094161467984832
P 6.090701426561935 0.14017597045230903 6.062109196783725 1.3586269604723828 0.7878729119048496 -0.9560595683178373
Ni 2.5662181589100808 2.932237332004613 1.1777993487316318 -0.4859662653971759 -1.76490933958467 -0.31469119986685157
Ni 1.5970441280139054 7.28172393422204 11.289177194965538 -1.2002804300782683 1.0389120821386946 1.0479618510457889
Ni 2.619061124995274 1.0125981636878547 3.6191692166818954 -0.838932449584826 0.699403309007531 -0.6782562426162706
Ni 0.7580532741227014 2.222476734093763 5.954706902999501 1.2515767663593993 -0.7521842002539885 0.7399341792420417
Ni 9.235607552101056 8.646369388413754 2.1509423508838146 0.4640031308625234 0.07089097058360694 -0.8504018836770064
Ni 5.585202577624782 8.582792263682535 11.863022372796692 0.7046714993850057 2.4075552891964986 -0.263119755547463
Ni 2.4742373650281086 5.047703610496089 4.980855648734426 -1.6112818119327799 0.9700795367460132 -0.7299289884002138
Ni 3.8763649927267267 0.6339003579646318 5.66588629040217 -0.1176721926032038 1.0066861322254534 -1.145264478853705
Ni 6.040139584165015 7.424101005071944 4.491460797190129 -0.4881879556388431 -0.4025715059196035 0.7614633115630692
Ni 6.30002211919914 3.063880244208491 2.068754752126456 -0.15493724760224928 -0.3174880458856984 1.0155934620174123
Ni 2.588081993615826 7.009865499824483 9.402554532612713 -0.2004833116631644 -1.4116528778501107 -1.8451385568500673
Ni 0.4804460401075214 1.8162159636758684 1.3021665801394464 -0.8745103466894358 0.30017218031507015 1.3515016622815113
Ni 0.6363590045850971 5.490214011782868 9.53313966568695 1.9376810442651788 -1.1361879704737337 -1.350721075361745
Ni 6.638796581145831 0.31173762739302463 3.3567351344254854 1.3167298060179646 0.7675413994363491 0.260122620592352
Ni 0.8442999853140714 4.371764350495641 13.442030906746218 2.604489450055824 -1.2982443456192672 0.6743574217824967
Ni 2.2989863584447874 0.41147240219924697 1.3415196429939091 0.18835284694821752 -0.6853226625447487 -0.4722406882809673
Ni 6.383503887726417 6.657441088065707 10.013595823681797 2.0751846697720135 1.2255194071507152 3.3937307030631096
Ni 1.5075100232491938 1.8799034653597462 12.68866681349562 0.06010133616727069 0.782815037765968 -0.9582486055493562
Ni 8.85945209552073 3.644444619032723 11.48692578392445 -0.48711092052458044 -0.7780559258144278 0.40347370601889865
Ni 4.017251974715744 7.158819197436948 11.382323385505995 -1.210027482162703 -1.6820066892521677 0.13801913169067198
Ni 4.625153041481698 1.3086199526382054 1.794244511441282 0.2595536354627594 -0.046423324459545855 -0.8404776825847589
Ni 8.780008283844872 6.0732618680419135 11.296918298578644 -0.6834943510867583 0.6688886853584416 1.4524945944568213
Ni 3.275895974106437 4.559855875904885 8.50172407118672 -0.12883335142634586 -0.5385119007043758 0.3883373645980925
Ni 5.390497633135422 6.570988339896041 13.17940826386235 -0.7589472300094348 -1.0934374668800846 0.45060536939937884
Ni 4.434679213510909 5.588569074680862 6.159859026057974 2.749778118824716 -1.407810107065253 -0.6580352875837056
P 8.836935197178423 0.5146711737030644 8.586213029407006 -0.975489909128307 -1.0792508909670575 -0.18451007616335965
Ni 7.567149535717187 7.033099848359068 2.6422090115836108 -1.181165049405056 0.45580696820497624 -2.7389445185443213
P 8.208007320931051 4.0354549738249865 9.488417683893594 -1.5643159847062027 2.1782481113231067 -0.054167230071022844
Ni 8.452004772861759 0.17297356212680384 6.306881126998919 0.24861641972496537 -1.3515237737686983 1.1741469662160102
P 6.063153178794285 4.59315292329016 4.990211935088102 -2.152202064968332 -1.0683779528082955 1.4911074217330127
P 5.38056370739617 7.647384382220432 2.00164464510223 1.1335908991705186 -1.2979684662500612 0.769570771161552
P 2.5740825167869894 5.28280651965841 11.150165701363774 -0.2031731997905017 1.0880309511525326 -1.679728177630636
Ni 3.1539570356571063 3.8589530284448696 12.449023732347285 -0.6317082196534024 -0.2880466006961297 0.8624084212195793
Ni 7.319656813618964 7.587670450832255 12.514962004057455 1.6357602566901184 -0.7564496603985618 -0.5949578995072463
Ni 1.5242965181326538 7.824640570110381 4.15933194760141 -1.0920603840268999 0.32510673877322077 0.317281329191531
Ni 5.7852056158417415 3.621780551420205 13.151473696760396 -1.0296005749297816 -0.3864892556457602 0.1675179124807373
Ni 0.4683891976454725 7.659470658536523 8.405360392476272 -0.5820211368409203 0.18811630545737923 -0.873916936079811
Ni 5.95741205814757 0.40429882008439194 9.73374149887208 -0.03345905098939399 1.0713406349810453 1.9585362904476336
Ni 5.487518974522127 2.2843982045351066 4.426478205928393 0.5850257279951989 -0.38948124839454856 -0.9991882811865114
Ni 6.696394954274722 8.243006013003143 8.119972503106617 1.4965761581570676 -0.933751134628624 -0.8007150579748404
Ni 8.775648394214866 8.369452010352688 10.647429035666896 -1.9117126452258753 -0.026177172616000076 -0.07026747806699511
Ni 7.602819687584616 5.012668126106447 3.7720744091995306 -0.3365998270144848 0.7690825186712238 0.6451188366323535
Ni 7.6382414913085634 2.3064184065904505 0.25274850466063825 0.675655828878946 -0.12872922174831378 -0.0879083310772099
Ni 9.072433623754437 4.113436290878122 5.526429609758018 0.2352816502892722 3.1677621026446476 -0.228443030100884
Ni 7.936663978979234 6.1542141647374375 8.15397872241272 -0.1647678605394259 -0.8210974782859344 1.5025004940613027
Ni 4.549434451958058 0.9177549275002755 7.801642612216071 0.1724963395319352 1.2040815489919134 1.8464315646298781
Ni 4.862481885855962 4.537109025577874 10.504445811385308 -0.37940149556104336 1.1995049853648243 -0.006548856862111303
Ni 7.4019152375876125 1.2815408069193528 11.627580054504946 -0.3438197418016917 -2.8934289948798684 2.8696894851710835
Ni 7.667592562636301 2.3029231364229354 5.763528502147578 -1.1632868835730548 -0.5392071269991875 -2.0887428680724223
Ni 4.5121362400389184 2.472351758753528 11.399016979787632 1.2782560754227985 1.0447533714108201 -2.3662410038287445
Ni 2.3908475772947133 8.78195827667517 7.364858015348444 -0.11967199664205196 0.08529326205186602 0.2049724577827696
Ni 4.534165640173651 7.914919719305535 9.286590666533955 0.47517560253957525 1.4630443449482096 -0.6488932160731211
Ni 5.3519484824194885 5.877499144422912 8.44041611264057 -1.1643235523676851 -1.2320734062191492 -3.1753224314904087
Ni 6.9225297360335505 1.4069014309010928 7.829725268396175 0.5481545660004624 0.906654021301516 0.3103002698880075
Ni 8.382384509972495 7.567480666575163 4.54712665383956 1.0148182744142846 0.38216337457689664 1.192667650728017
Ni 5.282079871386742 3.0413265535486316 6.56903282821811 -1.1894401449296548 0.2619625020145682 0.1211778917636171
Ni 1.1526205262143807 3.2901437990787543 3.350461124474796 2.267001306899115 -2.4609542736429293 2.580139817566866
P 3.3154477154756847 1.110097805202745 9.679044199982227 1.1873984319092776 0.8973204026054159 -0.68149788948202
Ni 3.2347713611618074 2.970731294244218 4.813937182268873 -0.8072993960605774 -1.2258243399856437 3.188239139552077
P 5.152331763536832 3.232812170252121 8.709783707139803 0.1078544351818336 0.46284047801299 -0.0908185627454694
Ni 1.4970518069848135 9.297142703208095 9.699264337901301 2.6169811547649315 -1.3097616022302476 -0.4149878773060853
P 0.677737484520841 5.690842519398227 3.5625734342063184 0.030655777212643977 0.5965134169198243 1.2887652024842384
P 5.318311106096851 1.5234410967495513 13.102780904095157 1.0430824114663002 -1.8007422901228796 0.91691915067295
P 8.15260728877594 2.264603937691706 2.8720782135740475 -0.29737276319306205 -1.2846504089849167 0.2570817768834992
Ni 3.618211696617584 0.6405892012957289 11.786785011595557 -1.6345374400266106 -2.9994733734361567 0.403304527430886
