# total energy = -340866.37193934043 ev
CRYSTAL
PRIMVEC
9.26971319773694 0.00000000000000 0.00000000000000

0.00000000000000 9.26971319773694 0.00000000000000

0.00000000000000 0.00000000000000 13.56716226185860

PRIMCOORD
 96 1
Ni 7.5970118683550965 3.0663469187518535 10.827301078140778 -0.6549242527585494 -0.5235365103414661 -1.6364446843516527
Ni 6.817280685564308 7.448881853839466 12.381568696529957 2.081204393603532 -0.7570286728304834 1.191162012716768
Ni 3.8508798129017863 4.245324642543158 7.803655092547013 -0.8563521877231702 0.1919570193597081 -0.12420202330192158
Ni 3.4436891278186748 1.7601238439432731 10.625760830982083 1.0018334321188425 0.30523571088090656 1.1699308712521335
Ni 6.149119769025716 7.078983224350622 10.170623482126715 0.688616245694356 1.2572527336982542 -1.2181297995548634
Ni 7.160158101516665 3.637759840202858 5.881798857160684 -1.5242324864217556 0.254644113976284 -0.008698041994630182
Ni 1.543796550529551 3.607531305951577 3.2273840817162687 0.22394488512021435 0.9930104345105737 0.13115094381592898
Ni 4.333646468469625 7.362858916749038 5.905568255359744 -0.3892935578637747 -0.4687385886649798 1.2085406132045315
Ni 2.167110595339317 6.650713211795135 11.609977248767088 0.22772209277445943 0.415495155959807 -0.7868974353654576
Ni 7.577443504109635 1.3171057179275636 6.285964834876058 -1.527592146922608 0.6665932044560455 1.627905022311758
Ni 3.743304792973507 8.334732711609915 10.739873779523496 0.28729326746987294 1.2369178787956439 -2.307530120251097
Ni 5.4533999955938235 2.4669116547551204 11.968285956031346 0.03133609110912022 -0.8507171009245801 0.6726473810699254
Ni 3.1425717691499786 8.769797423829978 3.552928061239166 0.6181212249975871 -0.8102885605958884 -0.08397454324044247
Ni 5.765168254555289 8.872329719859852 4.955962165184063 1.798774110652915 0.48964834223445347 -1.0149943949808327
Ni 4.464154758479986 0.31629095195784707 7.4707444720644425 0.6427318244574156 2.0563145723403875 -1.5537731761933498
Ni 8.996200895327462 4.701264748548529 7.563950509796183 1.1143230520798422 0.12020010123138009 0.12974892126207976
Ni 9.291682268462646 1.842809684336229 3.046601502987164 -1.0819222671516333 0.2794902264856864 0.5375690771751322
Ni 0.4252304736468708 6.415281039788377 2.72921116306176 1.3167490892916742 0.7912703676221727 -0.2455447227781771
Ni 7.880099635144388 6.19277084777128 1.3327298192708739 -1.1009191199691104 0.5755219022698217 -0.8944407670647757
Ni 1.5278526440860662 5.890504044684566 9.309380004614916 -1.3298694287237163 -0.8498280134514075 1.3797344318749594
Ni 9.170545658344357 0.9853334182073541 0.7779597406272143 -1.9012839936933836 0.24477879114643009 -1.8642493095375894
Ni 6.585992075290246 0.6273880836945984 0.5508564057945671 -0.22878910058639307 0.25103891312352894 -1.5616366381018267
Ni 0.7987554148803035 3.4332792400651666 9.479634043263491 0.42884895155889374 0.9942191101066942 0.06923697991995172
Ni 2.6811254535937765 2.013010885620428 13.112431806071466 -0.3004033224892697 1.319785819235469 0.4246071455634042
P 6.295284604375057 5.409646950004725 5.069248255321547 -1.45505952697052 -0.02268072942696739 -0.7709352556092465
P 1.7895366434462832 0.7846691589317457 11.357247792211759 1.0110891463891554 -1.758988346114545 3.6397364246381056
P 8.665976637686358 7.930054118762957 0.2550978682392308 -0.17683996121261156 2.277954206366193 0.1605715630698912
P 5.469038001506706 8.975297692403009 12.16840144829448 -1.4885664004787138 1.431107901250929 -1.0027333182252924
P 6.124796041986354 5.62697537242769 13.594568121152005 -1.320467675793842 1.3370949999378778 -0.8244031456203994
P 4.886501424397457 2.5423115006919255 0.6668677915683201 -0.15988739251867304 -0.6974973502340697 0.2779251959914117
P 8.974268754254622 4.734450321262294 10.902069656618979 -2.6849225558019114 0.6328706153926198 -1.2523524681831593
P 2.4584854855939997 7.026535187921995 0.0777080044858908 0.8848124999463922 -0.09833132618274679 0.9257719730778895
Ni 0.9822466037621911 1.129737008077473 9.600137531980565 -1.2218414440784957 1.5717372168709383 -3.6126195138166555
Ni 6.250011325846 5.0517989474789795 11.401612638862058 -1.7048843651812897 0.5009755943218147 -0.8845888139713605
Ni 4.999823666415828 4.718858663914654 1.5431699179274698 0.18174202649991927 -0.08430081623160965 1.1009504874276783
Ni 5.893099564338156 5.278897647455103 7.432878621232471 -2.7027171607811713 0.3924207906388467 -2.701734742263244
Ni 3.041911955155909 2.121781698531968 8.521235630261272 -0.5086809333858724 -0.2028250724224636 -1.614001524856788
Ni 9.280744007065373 3.057744625042811 5.894131283400458 1.759451144683576 -0.7402601951228929 0.18519964603121655
Ni 8.982194358911121 0.19230205113452245 12.060745781862678 -0.9792079814098427 -1.3538861033532876 -0.6347752886145003
Ni 2.5216771194458807 8.784397221881425 8.570403115242021 0.9596925370847345 0.8080334460131244 -1.4674604717380342
Ni 4.146778323124155 4.3245806891081555 13.024896051811517 -0.7567257968780837 -0.013007982223893726 -1.747383671996081
Ni 2.269095978299328 4.814818733393116 1.1917087476921662 0.04741911271391188 -0.21806811462446316 -0.7925420352457446
Ni 8.483836045995641 0.15644772803408385 4.6751083992394715 2.0993530394881006 -3.201286202544022 -1.0095616540010355
Ni 5.011401538013453 2.3808423690994487 5.830840463618959 -0.6047561165445907 -1.1589944268452876 0.19079976582681335
Ni 5.16868075930799 7.82506534877522 0.5492935321745835 -0.910027051538807 -0.09906820434877131 1.153142596050201
Ni 7.895051682291679 8.869187287136398 2.4035309187570495 0.3076682315817992 -0.36152744349409993 -0.7697024116434099
Ni 1.3856181670693053 1.2561851637725745 5.102555261276247 -0.5499648797363238 -1.0037190791773294 -2.6203140757929066
Ni 7.6894494468751144 6.977081268808047 4.157154839910688 -0.42663831706082 1.7048303720149027 -0.9824717397627789
Ni 4.864958611272656 6.540106995699984 3.7308342480093093 0.4219157147741701 -0.3131012296719124 -0.6451124088744503
Ni 2.7268065994969697 6.67078214054522 7.636725172997642 1.1658052791195341 -0.6034973044368251 -1.7738338957678095
Ni 7.300186386827875 3.0857855070146374 1.5737089875658772 -0.7022515770896035 -1.2325644869229548 -0.412871859404347
Ni 4.478439386287783 6.729403805864171 12.171983265416436 0.0423290997855142 -1.3678227680390378 0.04315725211376438
Ni 1.0404696714200556 9.046572516033216 2.296771633577042 1.3474256924399244 -1.4445385728345381 0.7856270532934664
Ni 7.046863668637438 4.987179777817624 3.071537958059035 0.6031718027766063 0.2866466350248096 0.22337949953504757
Ni 2.068323263381052 8.508196851887199 5.996360459813646 1.414702463309712 0.04229721810631425 1.3283861593099702
Ni 0.39104562586647373 2.417809984737017 11.810471872293908 0.18148568751473906 -1.1422148933941039 -1.2999574716556321
P 7.383335712873257 1.7860419616269847 4.096604147306336 -2.077671954970241 1.8458430391162597 -0.41968322589922563
P 3.8310518966909646 0.45091221364784423 5.252744079059958 0.2027893340885217 1.4016849680041215 1.3744760116894972
P 4.875590972139329 7.81384899598649 8.342854834183044 -0.22747320998844694 -1.525731182454469 0.9238703851798025
P 7.53494186978209 1.9256901887032036 12.670006014719558 1.1625314934642688 0.7766117371687334 0.9768165983595305
P 8.57252866044405 6.508562162195811 8.706223877800499 -0.6412642387729536 0.53049828637128 1.9866083660935012
P 1.6405908941823808 5.1902513815719376 6.313953806454813 -0.2190731588502098 -0.7272673824076508 0.2504349609909429
P 1.1820367290973222 7.967346174357224 4.236902181267258 -1.3410331586500195 -0.5991541969767811 -1.5453155323443
P 3.4719988314689085 4.4529291359782075 10.730607774360179 -0.6666826788460584 -0.2616755669017687 0.7368568258682988
Ni 4.094756693495762 6.18757053875105 9.555501082737942 -0.4552760354021708 -1.1714833033409178 0.3600506018382573
Ni 0.4819017913404103 7.275714344379735 7.201178435699054 0.1429762185856312 -0.2624371276581416 -0.726484224384723
Ni 3.631196883364493 0.8961559977665077 1.7008069501456813 -1.002474408136951 0.5200626928602528 -1.5428529297364204
Ni 6.9896880785540585 5.038394942410794 9.103172456936282 2.404833005169329 -0.84641821643891 2.766917863828796
Ni 7.5768317030484305 4.303538440487975 12.986623260576714 2.4900208519915825 -1.407174530363783 0.43454188817861295
Ni 5.835775658846 0.5934562990804264 9.83418480885787 -0.060353561387392826 0.19950037892460482 0.05368643377986238
Ni 3.1633637355178488 2.1916197166396505 3.81526279445539 1.9135167883141497 -1.2516513283510766 0.24805771900801799
Ni 1.3393901080962483 4.523378955147093 11.924083329359394 3.9499451632535707 -0.6076018135235018 0.5040233800092029
Ni 0.46182730076249723 6.194810184641958 13.36918987991769 0.38444265752937656 -0.8331780635995522 0.26624158900589634
Ni 5.656990703278854 0.8252213726051834 2.6606560732399958 0.6909340951942552 0.5177525566698374 1.6647329897733845
Ni 4.298551334867862 4.617003056937323 5.330090564736956 -0.42891194358634516 0.4633415860191246 0.39040710264292766
Ni 2.46634620225916 5.98809558365957 4.428416306792654 -0.6144044382676321 0.260560479460719 0.011050858497522903
Ni 1.1183723398799659 8.215190492135974 10.093696914450817 -0.8686029800660654 -0.8747047220884291 1.1942985014632206
Ni 2.5560121365776642 2.8867276890103404 6.173289618828473 1.1043214607824399 2.5088770654661374 -0.26637425792901864
Ni 2.986979635630275 6.798296313240903 2.16325717562504 0.2703622960424892 0.7761844198233278 -0.43213302162680417
Ni 7.689403098309872 6.203403208637953 6.290265054759274 1.7696108588253976 0.424114779308018 1.7059919964231718
Ni 9.23866877953806 5.002929020287089 4.46200881990925 -0.17094467877409913 -0.2599318447377846 1.4400170308151006
Ni 8.251842937529892 8.908120081940258 8.145154102169053 0.936006506321704 -1.0210305738725836 0.3192142845481857
Ni 5.085401657279928 3.3755660066249713 9.751193994905618 0.9409965033371279 0.016163497133739903 -0.8584445514758249
Ni 5.613126421133175 3.3819991874806568 3.519294761385157 -0.25700978599498314 -2.3844063618838613 0.9518933527552897
Ni 0.44945964961313833 3.387384890761857 0.1629902915037417 0.054203482625596974 0.5938831783858288 3.2853054829794712
Ni 8.070406844030865 2.545546630545865 8.334782768060377 -0.11963034477083913 -0.3725441063195778 0.14242934494322568
Ni 3.2375029004800524 9.034215988539515 12.826557563539787 -0.06520163350831351 -0.6722529738449842 0.8939000640699574
Ni 8.791191921546003 6.945897954112766 11.184998911315137 -0.22736316677314392 -1.1590998420749006 -0.5806306842512968
P 1.6523170811887808 1.8852742398115796 1.5881854984337782 1.4277418129921733 0.35275483950779246 -0.006379935384414818
P 1.2546185822673717 1.5650056539846051 7.109572350439491 -0.4839312372450182 -0.6205807422816731 2.7391761749391534
P 7.512926301291813 8.328929871241531 6.345117654752691 -0.6506665059234601 -0.2659765082699677 -2.438660752352052
P 8.97713309558662 4.183134137700519 2.308547877033904 0.07157796934830253 0.8748636162637965 -0.3099991937078209
P 5.987029566658988 7.910328169395669 2.4982571894287506 0.14178811181480097 0.1278794721535088 1.1177428763946686
P 5.899254653802385 2.376708077079801 7.796166091375099 -0.2819723694775918 0.16601741667581085 0.373294354222041
P 8.139994579886237 0.7199165054024912 9.819939113844878 -1.3427354860531069 1.6688752940765323 2.7641441577384005
P 3.6742547004749504 4.263233728152933 3.1471880862481507 -1.496464572279868 1.0478068135251632 0.8137670060627921
