# total energy = -340877.52622355236 ev
CRYSTAL
PRIMVEC
9.21076100086655 0.00000000000000 0.00000000000000
0.00000000000000 9.21076100086655 0.00000000000000
0.00000000000000 0.00000000000000 13.48087976275407
PRIMCOORD
 96 1
Ni 1.32231528790878 0.24914832506753967 13.239396977399025 -0.6849457388213043 0.25094815318193553 -1.0630915075983753
Ni 4.122810363398902 7.502607048770017 5.679939268844174 -0.28040091122541383 -0.5632803658983073 -1.8212653497768956
Ni 4.461011090202893 5.397837603717626 6.8535983987329 -0.3681125529107854 -0.973502703494949 1.3117755473364827
Ni 1.2468975758582577 4.102786168724033 0.8568365796442444 0.3013998820745842 -0.6966013207823616 0.5524418805219067
Ni 2.0205094023266716 5.824756381629413 9.777426486695871 -0.9510556873453426 -0.4938932335537365 -0.6497414230060293
Ni 3.8293831463992087 -0.11035136575032893 12.980968810503091 -1.6094193048027443 1.0361861985670993 -0.670071135702317
Ni 8.924094601657787 4.784474599214892 8.303022190097616 0.050743549101454545 1.6267590816327724 -0.6806928770822213
Ni 1.2119795804523552 1.4059121558338583 9.620993683062206 0.19480734432430966 0.6794777737281975 0.5613785208899041
Ni 4.312883629871128 1.7122436491626656 10.971886278421884 -0.2158327975360412 -0.7886763816427514 0.45034311687692763
Ni 7.391783170974231 2.1461902378090087 4.399903216628396 -0.20506090373151778 -0.6084009123860297 0.5945897175345501
Ni 1.146380539755748 4.172318204418878 3.7846897702166555 -0.07902465543433486 0.6506983876026601 -0.35204855746938724
Ni 5.377573929253637 9.095893718067941 1.3176039835959024 0.8287393111019081 0.22472341515745167 0.2857007261717725
Ni 6.262405696245994 1.0249550759108486 12.778890237987062 -0.11130922649965345 0.5079880210839057 -0.1467706526310569
Ni 9.296421198411362 6.425951970692633 2.7059631919633857 0.44025076563793214 0.18042896411545054 -1.3471498130707185
Ni 3.752860143014287 4.119595807768024 1.885408721446915 0.1508741332764692 -0.668001654767798 0.12124756865928797
Ni 2.228534442221768 7.723785055544465 3.750488372025888 0.5867645650631765 -0.6280138015209507 0.3546852237612859
Ni 5.640458262379425 0.4905706637076272 9.126636475458149 0.7832495542002254 -0.3415229753477151 -0.07027519137647897
Ni 2.0335426293114653 5.568384056615461 5.742989691938878 0.986842358026649 1.2906876163179322 -0.3918566906052607
Ni 5.261297280874815 8.021062370692318 10.979260413774554 -0.3169038912474542 1.3234848653536109 0.6353175342712155
Ni 6.0160270470472375 3.875667221027186 3.4091394070710828 -1.4288563862125907 0.41983055011036724 -1.1142171226295972
Ni 3.4137659723816567 9.023635297081578 9.456352249118401 -0.9010819265303772 -0.22086933151868413 -0.9402357139117034
Ni 3.4639185666800314 3.701593046620393 9.933454016840258 -0.38410558590493205 0.26312875440852745 -0.6229870377303206
Ni 1.8118211876309358 7.863760992285036 1.4826949026823641 -0.6101970850545039 1.0433883727424935 -0.06197541326153197
Ni 0.3182299545436172 0.1386265602364908 3.5512411874781478 0.4850581517606098 0.6364930426365555 -0.3493980072204176
P 9.273762726056171 2.0725133596101655 7.501313857908769 0.07247168480716551 0.23720123590948827 0.7397868550309001
P 6.4470077706129425 4.28722244939082 7.685638688366004 0.6484903242077477 0.17008978697297158 1.6731980898216021
P 1.7983274225901427 4.8858206038182015 11.7602205854645 -0.018104937130826882 -0.8210632826138893 0.2678297594286226
P 2.3714762440429764 0.38603405145235137 11.226485531920238 -0.015513265144250702 0.43826407422520647 0.7374448371612847
P 2.430461958255427 4.507414904725431 7.773790277664921 0.5967319606885336 1.1703905844973712 1.0380083393775026
P 2.3738710419341755 5.703211177889954 2.3320440546121644 -1.8645724972049629 -0.037040854803381366 0.6949943813065579
P 5.082350613835544 2.8563859739662547 0.38101971309862587 0.36559698557778325 -0.23944786585181985 -0.02183895025196239
P 1.9851400796258893 7.892369616323741 5.8828808896771445 -0.6691676500514411 1.237883585143023 0.6677291178327015
Ni 3.6273911550377096 2.9220310684684616 6.67267141805283 1.1932762308462932 0.9223552340868567 -0.2377769059073002
Ni 8.521418547013827 1.8365152381936436 11.605689804002113 0.3442915392317877 0.5610579043256918 0.33095934089925577
Ni 6.343478815624194 6.043263267679065 11.974796318668135 0.6879467304311572 -0.6047895408856874 -0.6670691156511995
Ni 4.0447031091013415 6.95401411646309 1.8506150713161327 1.0449801427096455 0.10424589189496886 -0.3727083998115839
Ni 1.3605491573178812 3.3960721002701453 6.2563008037756624 -1.031510647468301 -0.9257879139174894 -0.6666132590607035
Ni 8.13449289388506 3.7566641873568454 6.181333497943907 0.17751256179960395 -0.8336346915209965 0.5095394247314258
Ni 6.769762051018701 1.7805874966730313 1.9788850517493006 -0.40200406345190765 -0.1809490982849787 -1.048340060320814
Ni 5.785721176002873 3.7445244042006913 5.826261419996421 -0.14875425871998896 -0.8469064689292382 -1.7347122471759997
Ni 7.11412477701197 7.6875314997761635 9.550690706661618 0.6095244844675115 -1.2543306749554528 -0.2174165970833933
Ni 2.086071599978799 2.5082928897193884 11.939152515285977 -0.7979675771366903 0.4549471913078423 -0.743553521162184
Ni 0.1955914334592144 8.641803194852168 10.912866484393291 0.15001744170312872 0.2855901687358372 -0.3733313781075635
Ni 2.180979282559232 7.4334342327588505 11.709788905104189 -0.9284618612052268 1.3969605659452586 -0.19302402717164177
Ni 8.119608303915149 2.8090242402872385 9.323888609147298 -0.6784182221154317 -1.656915807721811 -1.7366133208534544
Ni 5.984986782072853 2.8099729486825975 9.420842922848594 -2.202684904209232 1.6338015903018508 0.23889070779676924
Ni 2.833460389538586 7.047254651280803 7.861928050822156 -0.5336067500932746 0.20403477645984863 -1.1548171555391467
Ni 6.389956316235691 8.9745879941176 5.126872669861266 0.8408808315604486 0.17570224806374254 0.24301192905399438
Ni 4.415629670164677 0.29343458560858954 6.892787424070144 0.5971255965825265 0.847419661120231 -0.39461548429732035
Ni 8.651050799016643 5.665465478820212 0.1634836412710224 -0.547615919888173 -0.7447254299830982 0.607446004671928
Ni 8.746022956924916 2.727389264480719 2.4170814855764102 1.5649513042973564 0.47354629446626834 -0.16201318061242423
Ni 8.87890660760309 5.85075836027116 11.32350800525382 0.47144776006602673 -0.18443757105421138 -0.8580357460731802
Ni 4.673309923257668 1.7865100160731884 2.7683117550607466 -1.3453955493837733 1.000307482392619 0.6054233178149444
Ni 8.288367869155705 7.41352977797854 7.306812057490049 0.28783551312658817 -0.8901483103370089 0.5410470084214036
Ni 8.892750381566442 7.39477666833823 4.876385100126878 0.3111747020731609 0.5810086364160058 -0.38865103918376936
Ni 2.764057304499421 1.9072446728340882 0.558951354262473 1.3602277293005993 0.7803691473286367 1.0520643032499364
P 7.532468336321041 4.6437341693013625 1.7687452211010533 -0.13166670711008294 1.0039970154290643 1.3229187084374958
P 3.3195859399297034 0.1825692593877649 2.0226573518198547 -0.961783358175492 0.10880317224834811 -0.047182057002441324
P 4.958926414827605 1.8883073479713777 5.027909489159699 0.48828771444150104 -1.2691535989008982 -0.4741769860717317
P 4.121078740308343 2.0312399390314666 8.54752460725623 -0.6220205600519932 -0.9859743535993988 1.0229123642763287
P 0.32663293191338905 2.2257159493190493 0.2733855218786956 0.11041602526142273 -1.0925833464099055 -0.10441789869645887
P -0.1046084561920118 5.627940838017351 6.00989728552188 0.41568001827710344 -0.4856980993374538 0.7763212025115082
P 5.227070092552911 7.644342240884505 13.170239819681763 1.7802637105535533 -2.3071516538657555 0.3572054190799784
P 7.448751728501403 4.0522098794141375 11.035071178628941 1.160926096650362 -0.004272145012792643 0.7358515245322359
Ni 7.040779486213446 7.368544420668482 1.0494179363694442 -0.4851555965704225 -1.3906317955137535 0.7938980350530069
Ni 6.1718731251975605 6.702578759409454 3.3391330171785576 -0.093413062945523 -0.3423423859252169 0.16104438894125167
Ni 9.17512468522214 0.3131133767414597 6.1534691034036975 0.27310540600526517 0.29353282062168157 -0.19703109144850584
Ni 6.881866224610166 1.8438009502395598 7.309265804252417 0.030308935396186513 0.5255514838889658 -1.1236394443847615
Ni 3.335962673201055 3.5134448292222467 4.282902602425542 1.5321365717601807 0.8482383003667844 0.6889116654475878
Ni 8.227337365974615 0.45841773878994724 8.845492729488083 -0.8284228083027539 0.6067836884975808 -0.5319201064194711
Ni 2.2336003608377655 1.2936974531089545 7.370455653600882 -1.1662493086354881 -0.91456016352247 0.9286783480914071
Ni 2.922086333035182 1.0014215812492602 5.0307270609863055 -0.4849283110509648 -0.6580049485664023 -0.3466289291157127
Ni 5.627848730406152 5.262890742548574 0.5677863163287726 0.4642774675698327 -0.4169244322071658 1.2408501239705145
Ni 6.996862577193308 6.001234564688525 5.5932982443689365 -2.098401988428741 0.6004726586778885 1.1778290430532876
Ni 0.9279104967505769 8.649190225270404 8.485108805602694 1.8949503381658719 -1.914825994043876 -1.125031439636282
Ni 0.5960624318910466 3.5765845966998153 10.180881771730583 3.4091457520665998 2.6727262708460358 2.5853774118167214
Ni 3.9048837552998115 5.969945609163901 11.428901218293257 1.0525618117116453 0.18061434065337928 -0.9712136503504565
Ni 7.582326186263576 7.920167693383888 12.269851998233845 -0.053778993493668666 0.9593251264429865 0.30254839385673055
Ni 4.711626689516849 8.651069220538883 3.5620260676735507 -0.6994819847642663 0.0646691580436112 0.5741306783492499
Ni 8.301834001913138 0.096184294071664 1.022209348020978 0.6737760953577299 1.1034776247249058 0.3867358244389275
Ni 2.148253448299888 2.0307057148865066 2.8765096448612204 -0.8474440866002632 -0.43855666576496083 -0.0542073392803389
Ni 8.033202153848471 4.876029564747647 3.9189992467162043 0.66033153981705 -0.872639097808652 -0.672876466361596
Ni 3.6760331845124057 4.355943938107106 12.898532498479131 -1.3726410153632875 -2.6333817076101425 1.500093427281707
Ni 7.63483673540867 3.3198254197188235 13.584008393942534 -0.9025680241576004 -0.45433218343166265 -1.1462888063531613
Ni 5.9042360393338535 5.5702446303617 9.475036278050311 0.5800742975271945 -1.4672254729090923 -0.13788671987786577
Ni 5.4446927455350425 3.931106792208438 11.607819331973056 0.13390896617704034 -1.4908369416804452 -0.07426322948994953
Ni 2.286580658799979 6.070370537655211 0.1017872000609572 -0.2994443010101101 -0.024289468674983973 -0.0011171443235787211
Ni 5.299282459733675 7.374162984951679 7.663786157608816 1.1478702919076684 0.3127163355286679 1.043419225980429
P 6.745896968956793 8.910738998033793 7.311328093667184 -0.04529255328921232 -0.21529569408564855 -0.33795017039479214
P 4.676183680727107 5.3899808244822704 4.747803795967855 0.508250273606357 0.40603221077469426 -1.2154645940178743
P 0.21973836481139436 7.564042825440385 13.447299514171226 0.26580398724784543 1.0818657028820853 -0.4068757897219122
P 4.2320960440876485 6.8610130614344955 9.475952748781753 -1.1468287380170314 0.3921726791837827 0.3108792823199291
P 7.235762088362629 0.29111531595857476 10.74609460140243 -0.9087317297661511 0.703608091117498 1.448561320840686
P 7.704470089475835 8.381755776151337 3.1568041586560245 -1.3925835199234855 -0.6308551276244878 -0.7157007606159739
P 0.39642286891959416 2.0890650973427976 4.516808959991714 0.6512725149385752 0.5995072094408256 -0.3915165336570225
P -0.02817663934217794 6.8753818487816885 9.383434337635846 0.504361480074912 -0.06101844866490136 -0.8447238594556226
