# total energy = -381171.7376425986 ev
CRYSTAL
PRIMVEC
9.23269583943377 0.00000000000000 0.00000000000000

0.00000000000000 9.23269583943377 0.00000000000000

0.00000000000000 0.00000000000000 13.51298361620950

PRIMCOORD
 96 1
Ni 1.5289159995702992 0.40453334699677856 11.435024581580697 -0.3696325890997376 -0.14944948501480068 -0.05853167768730565
Ni 7.007745555488901 4.2728363331992965 0.7274321188380563 0.570015884849928 0.6747186617766573 0.3887176307556467
Ni 4.106832458319926 4.3045506441120125 10.321771020819167 -1.192381744056482 -0.3464913750965839 -0.8887480875553727
Ni 1.3632906652287518 1.67239209610119 6.158731755519784 0.5480406661304175 0.023654920414778617 -0.32405927134531287
Ni 3.870078433651867 1.2511688044648432 6.414478359220899 0.03132529247584283 0.7906417328992383 0.4761374522322122
Ni 2.0887589896181513 7.053438168212928 7.414412578541555 0.7087605818527148 -1.169068523251838 -0.7690807188990111
Ni 6.97620666580103 7.19033135246412 5.164513498320253 1.2347200998133767 0.6145833870476577 -0.3300162602596961
Ni 5.12772859073992 8.80192614511255 13.178780801757531 0.5452427916703061 0.25877227721204465 0.11219934241409063
Ni 3.494898597189237 2.2510143899034714 1.8289555392751013 -0.31480612817816106 -0.32194839564989713 -1.0344291066666766
Ni 9.118432198212643 2.148789979299223 7.841733142645662 -0.2359002577098776 1.4441405660651707 0.6304483791043723
Ni 8.464794249049133 1.7968950022607177 13.10368943828874 1.237899783092939 -1.4481414596944477 0.7822745918814656
Ni 1.0820627437145345 5.62039448436829 4.627034867900894 0.47656785490141146 -0.3449816233202768 -1.427590889236606
Ni 6.00035685738195 9.196790089541965 2.5095501910796174 -1.2184059360343855 -0.5510923084725478 -2.0432747084372935
Ni 6.435281469948274 6.751713661480013 2.7008396506159476 0.38490519898809195 2.3552680497570084 -0.6945156418979264
Ni 6.882393241293284 2.768026903001079 3.8545785835324295 -0.140956359942125 -0.508478330456763 -0.8770590812532185
Ni 5.059166589913769 3.740562173540198 7.856921850908401 0.4615796090226954 1.2403163629542318 0.9454653377417588
Ni 7.773052963310142 3.4353569403985214 11.88026396216789 -0.5027848796164115 2.19370275531528 -1.1390074422003997
Ni 8.694522192027359 6.372351413709242 0.08425481429291827 -0.8765435750693806 0.40036472807627177 -1.1549986754223334
Ni 5.11536601073639 3.478039694212055 5.476109603663905 0.277837778483928 -0.06615731255336348 0.8802978999054905
Ni 9.271473367845593 5.866464299345208 2.264681549858084 0.6932483451497287 -1.0986632340553981 0.28696956558186704
Ni 1.8464191838431951 6.548252738748273 0.7881167833990755 0.06408114675062511 1.0778126158586339 -0.04117930245178714
Ni 2.510924016251033 5.620043641918601 11.731661872793117 -0.9038975416023014 0.33391302421094105 -2.308879178079824
Ni 8.680543890216049 9.047995960089466 6.709452841875711 2.560615631491009 -0.07577786636226304 0.9625978836569875
Ni 7.6822032342326665 4.506654360525217 8.011402397854683 -0.3693572239511639 0.9009127479423644 -0.7161851564515601
P 7.259530409317339 7.563018360994747 7.441005512958409 0.4171316631219655 -0.6721475586153715 0.27472314411434623
Ni 4.980799465888402 8.037403516455088 4.253725575656871 -0.8904974661463115 0.2269852146084349 0.1187494848277826
P 7.245561340202073 5.709351510756652 11.624639230054562 -0.6489994026336823 -1.0037671588064454 1.6749860349599606
Ni 7.746148887036589 7.1987792693448 10.325271135889622 0.19769237918158855 0.1506951844964437 -1.6785398137494898
P 2.9807943833456334 7.816622055943943 11.973152270531983 -0.4725083401200572 -0.4101572886866614 0.48717211277981903
P 2.633081817615268 5.624881574645896 2.9070075998279226 0.04876251411568376 0.53822470848126 -0.06257550873937609
P 3.5055808265126753 0.4184802576415381 3.0478533012557474 0.722233162417853 -2.1738687513084884 -0.5296909599786362
Ni 5.902010179116375 1.9830261545170085 1.21486769015724 -0.44566165224085824 -0.14492382923030525 -0.08363798583663015
Ni 2.8820506991501462 2.994911175597611 7.95872894365144 -1.2184951533140822 0.03259156078277613 -1.5837404119794014
Ni 0.2492569416514649 6.415163425267398 8.860666403886604 -1.9318353841176792 -0.9523273549689146 -0.7611920601795535
Ni 3.8081639739777264 7.81351063737696 1.8732512450876015 0.004779937887146606 0.3667259569759039 -0.17293959771694087
Ni 8.562245355798396 8.056358241434362 1.9722608309291696 -1.62329914810863 1.2677775444889778 -2.187517195329858
Ni 5.611743448174632 7.542050908277781 11.033567568905934 -0.3218077563069748 -1.0985087107554048 0.6024938028729753
Ni -0.04652355536802823 8.871669931032391 9.613663858071767 0.9991695121334342 -0.3055313877444545 -0.7202577838590369
Ni 1.1529236858557563 1.780783947663137 1.0865996905507818 0.05907289490275632 -0.3104632778284331 0.7574991847089986
Ni 8.229969857854366 1.8361062623615345 5.611874552458463 -0.7734130277257777 0.5393135706700647 0.3906724404891723
Ni 0.7048360185388476 4.550915905362353 7.122410100743454 0.6659452864594015 -0.26729445575044286 -1.2589548039910252
Ni 3.561226285572629 9.212891911443501 8.587636193190264 0.44042225821878994 -1.6139519025657751 -0.7399488345300611
Ni 5.141319119317364 1.218771274044837 4.406854455902243 -0.1880224601919923 0.17484247116660853 -0.1880142326618762
Ni 0.25149587044224614 5.114221156426877 11.390877522174511 -0.7514069557683317 -1.6294119458745875 -0.9336043246381147
Ni 4.736326907327175 5.556134919898857 1.7973621766805674 -0.9842725404169436 0.0016017972694811124 0.7419956897567608
Ni 1.4455816850730134 3.8389365498939076 2.139159354055248 1.1499197182375294 0.554457882510671 1.841067214994171
Ni 6.037398433912319 5.291276568471464 9.68749865160891 1.1666540002730745 1.366215057232286 0.4876922469493472
Ni 3.088244499911046 0.5340643794221186 -0.24329169673714002 -1.1358267304795728 -0.7747769979528398 1.018584426324936
Ni 2.2878528471208623 2.6929281533754508 10.707566611193716 -0.7633669563436853 1.0460931732681662 -0.4496648598629804
Ni 7.461135560144143 0.91404152474945 8.786412445949043 -1.461024229194387 -0.23296508634095364 -0.7080666411094838
Ni 1.9061362618587552 7.487725724752185 9.774860268120788 2.560629772558397 0.7944603353143802 0.7390003545738628
Ni 5.809424703182541 6.037315339647919 6.753194585925543 -0.7943677756005739 -0.7917974437702364 1.41639013542478
Ni 2.6467277423689786 1.916781560398016 4.13704091650779 0.3419610913263981 0.745099268382749 0.34826595049850345
Ni 3.8542258945435313 2.5300264643670185 12.515752277447202 0.4017163570081598 0.6788920764280566 0.31591144542719785
Ni 0.7552862395345843 8.895748802316339 13.838647127672633 -0.22918530758354724 -0.86370939941919 -0.8937964486125575
Ni 5.405069547219421 4.257057655659317 12.078107712626181 2.065315747397733 0.5347367499326596 0.810873743675397
P 7.22923793359547 9.20796165175576 0.2768922474517392 0.0261414342820582 -0.2639911024088228 0.3723335329706684
Ni 4.424529529209756 8.248121338277773 6.604201030238484 -0.4380563290897746 -0.9631599268080444 -0.14572755607852322
P 3.2912345551445186 4.998757059694874 6.931863873238703 0.18035877299914743 0.1627721702656358 0.9434115405365237
Ni 4.2220657376508175 1.9972260410333864 9.451954110122676 1.2889564925594381 0.3962067400438402 0.5775592444148248
P 1.652375611076803 2.6060669489891817 12.722284918152935 -0.5604377542431896 0.012486819613101075 0.2579711214669879
P 0.0782332499327222 3.9237296303662177 9.264636556424671 0.45867169134728103 -0.19747537807477605 0.537854726736351
P 8.716172864251615 7.3576001067015815 3.8792668127553127 0.3072637970545289 -0.9612107735014734 1.769662280888623
Ni 7.9136761567632945 1.228871843517475 2.0169480030539546 1.828210413636161 1.193159759873087 -1.1482068493114805
Ni 4.183676187497957 6.10571115194527 13.026745995993426 1.1845077406250442 2.478700798993073 0.24407070933581196
Ni 6.709224794283413 3.1687166786345498 9.553382662327891 -0.21274875929407877 -2.368906723586365 1.1380651328917883
Ni 3.4569983799267328 6.4766347155314055 5.28521161043986 -1.0625011823125443 -0.49839163564472233 -0.16215844794103687
Ni 0.16263855717116515 4.097295083305999 0.21238893980673174 0.33254056934344667 -0.5131117154637164 -0.5451458610811257
Ni 4.483664947374514 3.712208563987665 3.3669491255963124 -0.32677949848995336 0.19766563970871118 -1.1483683145900094
Ni 1.7716897420593452 1.158370976521987 8.964162156736176 -1.5581139696605488 2.0513975946547447 2.55813708804353
Ni 7.784261456308114 0.012869455016371214 11.545601812296367 -0.15683652150749117 -0.31928987498112754 0.29073031817587996
Ni 6.53814293657959 0.06493447455028364 6.203675596594605 -1.8990857004904842 1.4465730867660633 0.18431955741910835
Ni 7.560682488895499 4.255054160617669 5.601023364797411 0.2746303272902238 0.07249251074277192 1.3395370337204673
Ni 0.5167909283925406 7.304456708269677 11.608612192990986 0.49151522023986316 1.716690356677282 1.1076806070626601
Ni 7.656139333299159 9.427875238838725 3.9624524808462827 0.30634822721879496 -0.9244889926004077 2.3231272033584056
Ni 2.283356524147211 8.834471398669267 5.145447057718842 0.4381879695716324 -0.15922327657211288 0.303541096787303
Ni 7.459325951719429 5.031025332370258 3.486458066465392 1.3998242606462987 -0.9624073649127359 -0.3911105564678555
Ni 0.4198448501169091 3.219662695407873 4.3451403457322675 -0.24773941643665073 0.7052546255819854 0.21464829030963678
Ni 9.01011420821905 1.8872553984478369 10.40437595232894 0.3079574806874438 1.3957202657802543 0.18532820118928084
Ni 6.205571992362137 6.892373785717344 0.3700621530451869 1.5228502613622483 -0.2348561327160794 -0.29172584931992984
Ni 6.2383572960160105 1.7511931568406465 12.325827410386243 -1.0539579207282235 -0.1659744792530174 -0.3723340471913007
Ni 4.23712426489933 6.425236296651903 8.907705143693914 -1.1547379655617789 0.3093224793557705 -0.7428868341124626
Ni 2.1342854138133784 4.82156315720962 9.087643926713186 -0.37285700957430623 1.3438382321989824 0.7812800891786803
Ni 0.6916701939794493 0.9718982145120514 3.5389016265371276 -0.7809039367861841 -0.7613913206745533 -0.17302110168715362
Ni 5.492992511650802 5.655432565857011 4.430096844924564 -1.5476243829831346 -1.3629273876199495 -0.002278254511215431
Ni 2.720441587587938 4.559825457045256 0.22415231783697678 0.10801667179131073 -2.8848065433181804 0.5983512414595115
Ni 4.111439573646111 0.06349509723695251 10.843439582531996 -1.7100268286141775 0.30137442815328747 0.9717273567620812
Ni 5.640152453903432 8.472457386766033 8.649187807909856 1.8917732259894708 -0.9865016868577785 0.9606091353617326
P 6.232863841869557 2.219761713792978 6.900986044587614 0.7957320029379521 -0.5138611920352312 -0.3716609323836761
Ni 2.6890227229486445 3.9630147520353898 5.110677647685013 0.08971684504085839 0.3818129332160134 0.6999887491973558
P 4.9272036653503175 3.782072374956085 0.7142007421367422 -1.386180444610619 -0.7214700589995834 -0.8538888137843424
Ni 1.4284550339105422 7.83084040785241 3.0448397492668358 1.548177170162811 -0.04606105602412067 -0.010519925694717365
P 8.518676263164595 3.375390579589761 2.383474033514114 -0.07946842783997282 0.16040367003345923 -0.4983317289410643
P 5.966168183929319 0.8611631046940207 10.358553158590686 1.287816208307408 0.34486155280264474 -0.5466903227501101
P 1.753778311733095 9.108682471189693 7.483503612851053 -1.0355048562293585 -1.0921282611503578 -3.0972704243819886
Ni 9.17042150963899 6.800573088947289 6.059844041266004 -0.7632255456698146 0.22923930074993423 1.409903499259172
