# total energy = -340858.92202054354 ev
CRYSTAL
PRIMVEC
9.36389494685547 0.00000000000000 0.00000000000000

0.00000000000000 9.36389494685547 0.00000000000000

0.00000000000000 0.00000000000000 13.70500677172876

PRIMCOORD
 96 1
Ni 8.272270804276808 2.5183071799894003 7.972777860983762 -0.6222139070097219 0.9443664482506252 0.10983752705013342
Ni 9.330287930751394 1.1209705922215942 12.184038855914322 4.38265436909882 0.6430560405660538 -1.6986764365983649
Ni 0.8245387061876144 8.475083404992922 6.100893123006268 -0.15069569871707597 1.049338162568025 -0.3900695167978508
Ni 2.935478063894642 3.2880287087518236 4.980357951899837 0.16115648903908375 0.24958906805087983 -0.4878488271318695
Ni 5.491212731998096 0.8127205343715652 13.20835064251737 0.7865251396277035 -0.20822696016432526 1.030211211930587
Ni 9.362696371172396 0.18398368075120564 2.1989824435823304 -0.290304543492371 -2.056024037683162 -0.27024145419390877
Ni 9.051421775253605 5.469029664862195 9.11276090551128 0.9437154449301877 -0.25386815504220794 0.7373345368356656
Ni 4.093033393684815 1.202745486817551 3.8485711246218144 -0.20654931535158622 0.5336792552024228 -0.20894455505664014
Ni 6.38734684258182 5.936213111693924 2.8889469971104633 0.35343643895584936 0.6639920193877726 0.7218117586097181
Ni 3.402998610944559 0.6381297766444297 11.969281670800337 -1.0576243138362171 1.7981243928840582 -0.7123688680292636
Ni 1.9281477007829217 2.7327778299179237 13.516795469382352 -0.16459996750299394 -0.21553480667964814 -0.3552986889755687
Ni 3.109253226371656 1.773212694944756 9.06473817026161 -0.1911625484828708 -0.8784827010736226 0.6718310558162172
Ni 8.506761461607844 3.1531511658959714 5.313389557734316 -0.5287283389550508 -0.1876103123552382 1.0672451247554329
Ni 6.908522507693668 8.38492782441696 1.460144913143093 0.7661594314871579 -0.7032136838925567 -0.4877776075743019
Ni 6.421019408821035 5.5411691115548845 9.3389476608009 -0.009813129435679874 -0.42885075133110656 1.7528246405059942
Ni 4.593674037171914 8.0896842166521 11.745300112771377 0.8806575972377543 -0.19246969733006852 1.877432898107399
Ni 4.088716638112992 2.596935805882249 7.103401080218879 2.7572584863621614 2.215096647610024 0.1375265083249696
Ni 5.968078446207841 5.412312553151706 0.4668332371606079 -0.17208933390150363 0.3551835035539431 0.09859974935278504
Ni 7.472350714301518 2.4367101993974885 12.078592971274952 -2.035522832406017 1.5948930861621113 -0.62350177258321
Ni 0.6887837663749723 0.8642762671857664 8.278454720501607 0.8233754756868334 0.6855653746831742 1.0541952335500102
Ni 2.5702112496957312 8.959234229473553 2.6918004892284277 0.35683389467317256 0.9959024113463882 1.5432550502708453
Ni 5.024338293699709 0.06257984633851356 9.717453149679733 -0.983281380148268 0.9101018706408003 0.28250947292798445
Ni 6.055846233571622 7.1986440649210275 5.766587091069132 0.10426543227899461 0.14044316775113233 -0.4988310371749861
Ni 4.395683842354908 4.7564934425577485 10.23013014373521 -1.5932758622736625 0.7024642073210419 1.0722724027666954
P 2.066012326127737 3.829514662009627 1.7893120395318196 0.37909579139516647 1.2604977229981131 0.4491071875872975
P 8.876822590021016 2.0078719023848883 3.4863344668286356 1.1775829884807525 0.05432278181228064 0.158927599708565
P 3.839421662866437 8.518372691345505 -0.0124549166726305 0.40563548955690787 0.5671820149455586 0.30288649392243966
P 1.1416086166907902 0.4636972687419446 0.2868385756579855 0.859348808457649 0.5205018372802004 0.44243697465597354
P 4.330735866983608 5.154046966543314 4.5830366525090245 -0.803973674121454 1.2568040761966095 -0.18350168950350332
P 8.021824069951437 1.2090567520136664 13.619336673808316 -3.234815444649719 -0.6562113470010892 4.942128216766843
P 3.83283884471678 5.125196806203209 12.388969569668065 -0.026351750520651387 0.04965725801581125 1.1405976695056552
P 3.3482198254886626 8.821528790342883 8.104071841242355 1.41202285959502 -0.18691560028105875 -0.31358922505192444
Ni 1.7945998310099298 7.20913162726472 7.677846070920729 0.0407427291350008 -1.040338530172576 1.0085347553984179
Ni 8.097203424296731 6.5790444999926105 10.983781355984913 2.2039771406580946 -0.8659753126352312 0.6353841258430929
Ni 6.889148609042685 4.650269418248057 11.97225564383637 0.0922079868938283 0.8326293901849336 -0.14843904147241532
Ni 3.0974266270501523 0.8578376530183349 6.466076598540126 -1.298337933774338 -2.317430410083944 -0.4474624528950229
Ni 3.3917338453200387 1.3855380801311512 1.0071833499610092 -0.43146093526044405 0.711520146875723 -1.2846640358316714
Ni 6.8129733236266645 3.2582421589167456 1.1904506927485607 0.007884287844083196 -0.9837662902044862 -0.6313523789758804
Ni 4.194294553671152 4.961750019855742 2.248169110974251 0.4741057665141641 -3.969049745293507 0.8616664008472321
Ni 3.378774214709618 7.585438473609358 5.662826707520715 0.2987159074845178 1.2953174017804596 -0.18295533008173007
Ni 1.3824854503775408 5.215876764896354 0.13856410829755986 2.0942964509007993 -1.666441487824059 -0.4442799414019832
Ni 8.69695153193173 6.717302408925315 5.4568406828061375 0.8707076851138941 0.15679744073943963 -0.0479004232257046
Ni 8.338389266516822 8.981501571664001 4.447480227269317 -0.12436914500740516 -0.25020716125085296 -0.22131387525527044
Ni 6.827964919441176 8.352828392529299 8.754895313880633 1.1735059901979017 -1.9957787197388597 0.6196304625532619
Ni 7.961576769844901 3.9843560288982953 3.0803234729244777 -1.4780912119790028 -0.20548667841502674 0.5579985486740777
Ni 0.7681100024415758 4.148055640409405 3.805455070325801 1.9504270310769378 -0.7935352523969494 0.6016887904731767
Ni 0.9987436714428213 7.212053162489036 3.479112094653912 2.364442517167425 0.7808499436197971 1.535876241308271
Ni 1.6930390263852022 0.7972270337877487 4.624905435997735 -1.2109582215070887 0.6413992216889212 -0.753124966900703
Ni 2.0008677089624936 7.822326288047525 0.9489034041834097 -1.9975070152838756 -0.9373154549411148 -1.0274346776267145
Ni 2.0311411813349576 8.133254419853175 12.1181451271531 0.2125980926488274 0.5132886073612127 0.30175906518621576
Ni 7.225349893317646 1.0119373994269851 2.6872365268299316 -2.039489273252933 0.8683217013802207 -0.37344322109507944
Ni 5.909170183079115 8.339765759074432 3.5543659728068793 -0.21745130697607065 0.10343650861979606 1.5379007279374675
Ni 0.125847938955832 4.599086368452856 6.986593045447513 0.5514154961399214 0.7031962003910599 -0.9131974788469885
Ni 4.6506720657308955 3.4228219765531294 0.11011004071382757 -1.0267795605412187 0.9756616588194811 0.0839891985284618
Ni 7.479017807505722 5.9434045830153135 7.494034685836597 0.0892303923227431 0.76492401641816 -2.606400036814976
Ni 7.3280437292312905 9.307346388124564 11.918778439778485 -1.135557021757954 -0.9253739663085224 0.29875524536288545
P 7.140372546648883 5.305713973044025 5.130839489299913 -0.6131032029577054 -1.362730698228111 0.06500057324110096
P 4.968473296429645 2.534104070769588 2.1089813672730395 0.46297314693611236 -0.4417749155919424 1.2615799003186983
P 4.663538057391818 2.3845252128426657 12.014864175026108 0.2939166863236615 0.06753336696528368 -1.9763794892766415
P 6.2823120329307445 1.0262641587000658 8.196718217874944 0.8921910517986507 0.676569598942467 -0.21616961205016968
P 6.269286855055676 7.3447208261367525 10.717095755037729 -1.7171485272606233 0.7975351175849619 -0.7316675683578754
P 7.742808092134452 3.769857287284923 9.948765701064834 1.7977037604068717 0.03019606396740606 0.7414331323850715
P 1.5230562413628268 5.706741502055939 5.214946930127847 -1.0358663533338353 0.37297656587130606 -0.39162246310726745
P 8.471796677865568 7.0257772002541365 3.1084048574892105 -4.425893896513745 0.6196839414990166 -0.8893373843999393
Ni -0.020139865257870596 8.573469849229692 10.888436304827813 -0.4437096707208101 -0.22035022579042052 -0.30690152861910375
Ni 5.829483437056947 2.922705711183215 9.591353321949754 -0.31315470861766714 -1.416022467672716 0.1890143917916164
Ni 2.6830836394197277 3.236077819570744 11.299147973996735 0.10504781897097393 -0.21272176271088525 0.017272413927202513
Ni 9.208988035572643 3.0630611325846577 0.8703524986186436 -0.6388103779158224 0.402126705072701 -0.02573185754846536
Ni 1.8656530658884507 8.827259494052115 9.571426017107243 1.4234125894892 -2.082297883778027 1.167336113941764
Ni 1.359721821754757 3.4787806127726917 9.20572190901418 -0.5417604895486605 0.815366232229112 0.6745116879721739
Ni 3.22153569071382 6.689810013352919 3.330604466309238 1.0008903514792828 0.6431887094891762 0.403524356751176
Ni 3.1433003484088595 5.493918897638568 6.556009318416285 0.8306429558825243 -1.8008461626905954 0.8629043870193912
Ni 5.395682275720993 3.362378034652648 4.3620431133585225 -0.004713860535901559 0.2666689063513021 -1.5671524257137333
Ni 0.14444744349447267 5.39337875756336 1.971602728076115 -0.9136471647898974 0.8790126054351636 -0.2682930722182863
Ni 6.584072911580614 1.5535544472140843 5.130346012036063 1.0500662989833012 -0.8156732219465694 0.14393318318226178
Ni 5.0277748431462586 6.837403725550499 7.868017413454713 -0.7552188733152542 -0.17190627135642006 -0.7514563209490284
Ni 1.8903362929759282 5.916427201665153 11.372592747645413 2.045890805903902 -2.058404364989881 -1.9897474259431152
Ni 3.9201478012280244 6.487371968434793 0.8154257636225412 -0.32848928209220846 1.253901300727518 -1.7592937931701056
Ni 8.847850699046562 8.023856035155527 13.71679328327658 0.3861694104124962 1.7601445712061752 0.7506636498444039
Ni 6.802626219707217 7.338194191356793 12.919271286797915 -0.9704536322559802 -1.244726061986153 0.21089293703226258
Ni 0.17175630672585343 4.171886753056458 11.38505047348653 -0.8271022897191176 -0.23568942725065217 0.2784507294775785
Ni 6.277367896397289 3.6227317698348283 6.571509373726566 0.7835004938687669 0.6710754085971152 0.3260120241963095
Ni 3.921889485688674 7.288181628430308 9.848074802280935 -1.5876790849121754 -1.001624915652462 -0.9047868861857901
Ni 1.5574030080384216 1.816539436877138 2.244482545532544 -0.5141964638874629 0.7089171620352372 1.3153357538839154
Ni 7.616030318410112 1.1848885391484236 10.08696742662784 0.4491632376362136 0.5052526244306137 -2.050132869009708
Ni 4.750004263357589 9.353192017798424 1.8392122357189093 2.003118962154015 -1.786588881440633 0.44636484895547
Ni 1.8325704250310686 2.9274438420277766 7.033683136760191 0.9338992301707142 1.4361585763009588 0.5063952226754892
Ni 8.211162025834895 0.11660577464045246 7.279962937832933 -0.6579715242253056 -0.3921587952267117 -1.5295546699656175
P 0.45939549540204055 1.6840309594435658 6.364413727460446 -2.109659306510115 -1.7595460183902276 -2.0102123786656865
P 1.281505207239696 1.2472895350933972 10.447545738625422 0.6659941374194659 2.186892674371982 0.07655922461297783
P 9.180699708929522 7.747630498033561 8.8400580656694 -0.27574927138601546 0.06289175442821426 -0.8239915120042777
P 2.5313229939695194 5.650829685311125 9.155163431012124 -0.7171896864566746 -0.9583689331773044 -0.3703514695436331
P 4.96318269578305 0.3240366483457719 5.591149837238541 0.1345993073758456 -1.7947526481983478 -0.17710684172075306
P 0.5762559679851256 6.645752887614458 12.719685484281475 -1.8985799644986592 1.265392589196569 -1.3828727203936249
P 8.046179560715673 4.990759366409993 0.28840515528307464 -0.023307307267372762 -0.522476444508068 -0.2693274270200717
P 4.8298501955939015 4.29549953028779 8.200774657167164 0.1112457202515697 1.2371798742077789 -1.3686321513142106
