# total energy = -340895.5697524594 ev
CRYSTAL
PRIMVEC
9.02609810646566 0.00000000000000 0.00000000000000
0.00000000000000 9.02609810646566 0.00000000000000
0.00000000000000 0.00000000000000 13.21060695079728
PRIMCOORD
 96 1
Ni 6.207012815539317 2.0198421255358747 11.327473900141408 0.5073285331230359 -0.6176594548698201 0.3184342118490516
Ni 4.563468709529895 0.6333287924514492 5.921971353144509 -0.0356516877653386 -1.1642129949317497 0.7669780707337114
Ni 2.6967001774972372 1.5175668582634225 4.6708215069642876 -0.19154924239832818 -0.3917042241877964 0.0562074004295032
Ni 3.4042469621616442 4.0428072809291775 4.835464752696552 -0.4316936200965404 1.1005733065939176 -0.4811709008910617
Ni 5.113708660797636 4.646662253448708 2.742786530529142 -0.05330822450483722 -0.5737833223121601 0.1699542898363718
Ni 7.231637391711154 6.178968729507446 2.7271713812420044 -0.3026368398054788 -0.9991594848311051 -0.6755570985175527
Ni 5.057205288232617 4.394716784054563 11.366881843371258 0.2150036167665265 0.9926736199964453 0.23351607374841718
Ni 5.643450343839313 7.800137138937207 12.370741881430344 0.04290219868016482 0.22566212492163715 0.48889115235345487
Ni 1.9696118909792732 6.408962728921059 0.3966960980663387 0.2598490552159912 0.7632191179119114 -0.11841652696839605
Ni 2.9141027704047486 1.7696477191253748 0.4163152243614382 -0.8140493131899013 -1.7823249639579561 -0.011635013135767059
Ni 0.46306680080517093 0.036726289557476255 4.7393972854088116 0.36971666417311166 -0.1642623816579171 -0.4536654963819412
Ni 8.622956219292963 2.5336617719633843 1.4900769746397773 0.11683915517894718 -0.021827637398052727 -0.2946137123906862
Ni 6.801083497985289 0.8799488641118302 4.771790145386661 0.4113803624604851 -0.5047507450935307 -0.25869385856562543
Ni 0.7416509927953437 7.317051355702011 2.432759926665129 1.1189140138846343 -0.8039219949479122 0.16581301397448864
Ni 7.449193428282181 3.767827209812041 3.9619533015740784 0.8974132194295383 0.254999954653806 -0.7784369633029303
Ni 7.517232153904402 3.6987234046430673 12.550710538708639 1.006139515693364 0.20991334672781264 0.24937206694406733
Ni 7.953075340972616 8.915356659268003 6.783804838863689 -0.29966952964703875 0.3250298627886983 0.9007885636596744
Ni 6.823468220662803 0.7244156589434425 0.38740192510624305 -0.39134786928964216 0.07103109570589702 0.020523573874648524
Ni 1.7742871334222468 6.4784185519063335 9.116494223842901 0.5212952797157732 2.0336811512115878 0.5546419734970189
Ni 0.07600245175866138 4.934639905475368 1.4565089167213585 0.18201919142070588 0.23410999857867423 -0.09125025096624931
Ni 6.31100248891337 1.971128275418718 6.9647636590765485 0.816236036428575 0.3963126694940852 0.8707624496112293
Ni 3.3624471030005263 4.141146617046728 0.21604867822943585 0.20479865120906662 1.203756561552327 0.6525282417225471
Ni 5.964517670598139 5.80793292502978 4.848794494007099 0.18122214944070725 -1.3927136177434465 0.032919890656472335
Ni 5.124242116993063 2.9648565186368723 9.170393567177086 0.01771772899473723 0.663076963772671 0.2539535156671626
P 0.19528504272646988 5.582316583075277 12.459226523911077 0.4952911423425277 -0.6019124764482086 -0.15361904301145804
P 4.117344797006161 6.114540443026759 12.686515401797896 -0.7346713881812057 -0.12607764305807964 -0.7857980316536918
P 2.1242469994112043 8.591834233892932 1.2433729602693557 2.238912519082699 -1.043451621880261 -0.2446715761446044
P 6.3392180708044625 7.958924252381902 5.730377984440259 0.06449072348421796 -0.9121443549921258 0.6340723490102048
P 4.736390692213699 1.0476230735034135 12.633514155200166 0.8219521129767458 -0.4684333987197352 0.8757611883774014
P 3.9248542341752386 6.384366612269354 8.070584303712145 -0.2590532987875732 0.02761441928315889 0.2247648099183484
P 4.690177071202054 1.1052276300065995 3.7731869067176493 0.6109370485443221 -0.5562815659829711 -0.7808278321326101
P 0.09436785306186297 5.511687367369005 3.6250298287154172 1.3434728784397636 -0.8567710204281438 -0.36424792774905657
Ni 1.5664612303376562 1.1354018751319754 2.5810226100122513 -0.46797754212923925 0.5345935394865761 -0.018480318192374622
Ni 1.8728972524754128 6.448135993606711 4.8196781075501915 -0.5733768309023609 -0.4257466584844861 -0.4233226224240258
Ni 5.755870392608849 5.558271058392656 9.065448932650098 0.924465338451324 -0.21952927255102195 0.9282147781914272
Ni 8.807187902587623 2.2225321789416324 10.214493754688148 -0.8536214190555687 0.6966391159988324 -0.15949478506594467
Ni 2.3075489946269205 5.109475420904186 6.88053301651433 -0.7618965424457459 0.4136671016121327 -0.27905828115459036
Ni 0.6155952179980163 0.045148541464891306 9.130286101363565 -0.4027702521939708 -0.23997005690387704 -0.2036704511418944
Ni 1.349699490377767 0.9673991157785126 11.43581415268101 0.7602739192406583 0.7048730738728506 1.0008980647887666
Ni 4.2345938081275 6.6505642901747075 1.666082272350452 0.20784823666866786 1.1352526031436576 -0.2979862284073449
Ni 5.718457217004696 7.838525133109574 8.031599684471638 -0.4612571926862701 0.26233068398726433 -0.3252869731048269
Ni 5.414692919831675 2.9383829736315694 4.797167922112509 -0.6790442857352047 -0.18403853584357982 0.09788755377710884
Ni 0.6507789474322718 7.406472907139971 6.682585274920978 0.8290756113954045 -0.6444490642588385 1.1653016000102383
Ni 4.7922441857332405 4.679562380125943 6.966349544469468 0.8756187492622662 -0.10031853181610464 -0.5427339092055234
Ni 8.189243191318253 7.0986739442262845 9.13320604401928 -0.17679059603191488 0.5812968570803859 0.1963633759575199
Ni 4.555760421962718 0.2684442736611727 10.576913246154541 0.2932962791308433 -0.12500909258424922 -1.1877599290137546
Ni 8.239527582461978 6.98562206860698 4.778210408790095 -0.7191786918622453 1.1714398516974922 0.9634915991158504
Ni 7.242306239374389 6.1069585208295365 7.043736599638907 0.2554216155722569 -0.17730738776733335 -0.6767004680933765
Ni 2.424599431595475 5.288354628171522 2.5478372586428346 -1.1575998604906066 -1.1486547354821768 -0.19724732122436997
Ni 2.4085058991220842 5.3090604966482235 11.40463710808407 -0.6022829724137498 -0.5967191051727271 -0.19012253725413064
Ni 1.0898020287743924 3.4269927287533126 3.8769698824508496 -0.13313377857391265 -0.5307718517476407 -1.374339229001317
Ni 3.715918121054626 2.6259716747145725 2.5376783855083413 0.8608426193943562 0.38433749941008 0.5816344429254628
Ni 1.243227640093909 3.0835497054148253 8.210286635854688 -0.8229967521911762 0.23567168663883925 -0.07962038003680481
Ni 3.4978837012973463 2.687087383282901 7.143106716131367 1.1784399371644092 -0.6379953382136948 0.42774414853048914
Ni 4.284742807803417 7.020417675833521 5.9174140763381065 -0.8974684981475061 0.6199469653524162 0.5776631169825407
Ni 0.8329445569281899 7.423315605735231 11.434718384401554 -0.46009171162325924 -0.11592204268131649 -0.11666483438461198
P 0.2533797163431192 5.590530332122268 7.979814253254822 -0.4783375452073245 -0.7105259012832537 -0.856283539268764
P 8.41319873126765 1.6272881037746618 8.058258264482946 0.008281266172185737 -0.11907627203958204 -0.16770868833530472
P 1.8876368702707285 3.3115399111048873 10.398372517556725 -0.403898195150827 -0.4184354695350535 0.16738961443298916
P 3.7748043834530574 6.121544694961337 3.8934163353503255 2.449086575671066 -0.6166587815194475 0.2832710336843573
P 6.922683088272176 3.7527716785918415 10.3240227443151 0.41618678271019294 1.6817025277481876 -0.8038816286282799
P 6.336979598536711 7.684088598830428 10.271775176888166 -0.33922003824615127 -0.5741250219222951 -0.4020706550237849
P 2.4968262666218766 8.387727083124123 5.580226138812328 -0.8930122621483652 1.0704060389819179 1.5148255912855588
P 6.959464437026561 4.190320798154431 1.693877238081557 -0.13096710993989702 -1.5384020930539184 -0.6009717098014941
Ni 5.350851329711488 2.9647391793647726 0.4076068451520566 0.6358528379493953 -0.25181075829254695 0.513299148884174
Ni 1.4327756950244803 0.8459204752028656 6.877349511801282 -0.0789899455416575 0.7884670938454228 0.10181080009091499
Ni 6.713295670258873 0.6153018698177665 9.386572221215618 0.5277464346577556 0.9011922268559963 -1.287054904661351
Ni 2.8110969416967637 1.466461092214999 9.321919184898372 -0.32593746220463216 0.6668030064740065 -0.08776846306523593
Ni 6.458660423704285 1.8459092198924412 2.5494096048889734 -0.3118920398551596 0.6951902993674478 -0.10294877035010012
Ni 4.11320181809125 6.792544809415559 10.463064366094743 0.11051784094660966 0.4814385527301515 -0.3405127889156458
Ni 8.035736345118053 7.232332401245899 0.21212413088258766 0.33347645089415473 -0.22501189293214796 0.06096522682946275
Ni 7.795732403184534 3.8696054892119043 8.06030628608598 0.15592712231934436 -0.4105606947726671 0.8198327526408977
Ni 3.205068060821029 8.449023313649528 12.33812517422572 -0.7410587797647883 -0.7500905509497533 1.7603374039432715
Ni 0.0738948579097905 4.7359303612231525 10.236397386350054 0.42131381952411306 -0.3240399880716033 -0.26616522724200614
Ni 8.635222686276325 2.291816506067683 5.774897406884738 0.11323575409840497 -0.18423573945605043 0.33912259343633855
Ni 3.6253051246999592 2.5578336620159594 11.470135889770223 -0.4692458673187016 0.2290474964541023 -0.5168441859229551
Ni 1.091751665910821 3.4567788516709737 12.845518238981297 -0.5084112246642535 -0.08140061186567916 -1.3957279790897381
Ni 3.205149295701714 8.581418116969605 7.933075313348085 0.042994501283654986 -1.3815558013544142 -0.14763865705830703
Ni 5.622392457546312 7.891986710697849 3.6347924561541274 -0.4592126514524156 0.4589465422752225 -0.15095358036415293
Ni 3.1710396719120646 8.195552433718087 3.5266507777673093 -0.5132420703939935 0.8810561182277536 -0.9388200645110991
Ni 3.0914926715262014 4.5900234894158825 9.021748177280962 1.5120727111307701 -1.6014769100272161 0.9575960595670219
Ni 7.424669520413307 6.021743130991464 11.287750043486671 -1.2319685052101685 -0.08146617499629197 0.0873848544735721
Ni 0.2318642068889286 0.15327758331471375 0.6067965778100962 0.3294534457776907 -0.24170246621395147 0.3518246143840392
Ni 4.7129950465765535 0.22732769010759024 1.6527263553561298 -0.7686073788070181 0.08642043367777374 -0.5117660000690992
Ni 6.118502899984594 5.663488281074831 0.28312883225957963 -0.13757921593977596 -0.38930281383515536 0.4125977798073539
Ni 7.8435887740055765 8.975308001213186 11.438919130342729 0.3592826133239812 -0.9855146403541606 -0.34451342543460667
Ni 0.1275631331389183 4.649180534749929 5.645195991164245 -0.43618970819468106 1.011420304476329 1.8643619238560538
Ni 7.965206416488173 -0.4502533522918643 2.7146738461535818 -0.9382410520791777 1.4935489412949696 0.37040366293780724
P 8.553870466319696 1.5503767239621191 3.434929376596191 -0.5569839913666342 0.5662646453376119 1.088342311745364
P 1.8892705939822727 3.2949770215430965 1.6903101242097205 -1.0448500448896842 0.07504921572635462 -0.12251795073127932
P 4.76857775716048 1.0803065738321562 8.251992623598126 0.013682896803731276 -0.6404204027154197 -0.028976075517375903
P 8.608216601497647 1.616285290490835 12.516732695947656 -1.0714653334843676 2.1524414346726477 -0.23751516760548125
P 6.3689139327435855 7.744400984689765 1.5095227998560832 -0.8935452518336998 0.342204831906088 -1.0092564640557908
P 1.8131715629765754 2.996177078189686 5.991169029731163 -1.5597646178900946 0.7040909442911875 -0.45940162753477004
P 6.812284885421899 3.9952577974351655 6.144147849206915 -0.02562104300221394 0.8675467708874091 -0.9118782458149327
P 2.3700547222647397 8.484396591138715 10.280005172911295 0.9431354040570016 -0.7413035487857427 -0.8461785896242782
