# total energy = -340893.00968383235 ev
CRYSTAL
PRIMVEC
9.04311966621308 0.00000000000000 0.00000000000000
0.00000000000000 9.04311966621308 0.00000000000000
0.00000000000000 0.00000000000000 13.23551972405054
PRIMCOORD
 96 1
Ni 6.069090615153834 2.2689909943662285 11.278409369338425 0.8151955109792025 -0.9804940472111178 0.86243361803056
Ni 4.576686539627157 0.15361727732674127 6.130506960341067 0.2864262914838873 0.29367577395744904 -0.3888443861414981
Ni 3.033261184626672 1.5836853224264675 4.926260074849307 -1.5193615314826996 0.5278598203071684 0.3407968958149679
Ni 3.5870979871956035 4.385578298024891 4.946788860126424 -0.06642779260593076 -0.447196600828146 -0.3020591129251378
Ni 5.160157644364764 4.761844408685333 2.5539921357417414 0.4148546941623307 -0.4806178566010691 -0.9911859797073252
Ni 7.406721702698549 6.000326735480166 2.3514488696987392 -0.3806960460027508 0.45734680188827037 -0.1394052134049212
Ni 4.924575341711064 4.721674872453028 11.272638954869755 0.9772354310645041 -0.00495065913705599 0.6549880161169493
Ni 5.676067604304635 7.777281605037833 12.402303617686528 -1.193821561826802 -0.0957756496404286 0.15045272946833443
Ni 1.9236433088247076 6.461571038840957 0.5112192939237313 -0.06592025684189293 0.42720730219041264 -0.41402937004755797
Ni 2.9999101603977807 1.70553231278983 0.3519301721294302 -1.1948304627072908 -0.43443158785299374 0.7291175482425121
Ni 0.547068932033979 0.1728691741491075 5.012833473806159 0.326358866012767 -0.6131782791700149 -0.2039249903548617
Ni 8.579496724166072 2.0596066085213947 1.2980204160893494 0.08724421513064974 0.43673041118949946 0.7717184136321742
Ni 6.913654662282045 0.8367896774076097 4.690707614489521 -0.664404681445159 -0.7148348130712529 0.2414458701184551
Ni 0.7124847672000463 7.5290660646271474 2.9616197843701317 0.5309690553601113 -0.03348501913132298 -0.7155907174006708
Ni 7.74276401841048 3.7956865785360603 3.8773721714745504 0.15235200337357632 -0.06066209376674714 -1.9428168228298475
Ni 7.393256497959715 3.9823184760512063 12.548159185659781 1.7429937704585012 -0.6264515992401533 -0.4732310772186947
Ni 8.021120275674445 9.128124689979082 7.025480067761878 0.8194560860277694 -1.0422154354803148 -0.5745739365342555
Ni 6.637396408711438 0.7362989177435285 0.24948700299381502 0.6505490065089894 -0.14241211855204505 0.7917498783617526
Ni 1.8298932903374747 6.377081174586475 9.061353913814102 -0.21672522744332354 0.160681092064562 0.5822900742315907
Ni 0.06375308723190362 4.507515719581932 1.2444878623670697 0.9267394791974815 0.740612436255989 0.8728424720687097
Ni 6.281359756077035 1.8458182235443827 6.873165903936054 0.3220157585527228 1.0661824878188735 0.45197705293592483
Ni 3.3315032613806945 4.276265071105466 0.18180739333236023 0.859286587761146 -0.05591660866196176 1.080489648470165
Ni 6.108889383492053 5.5164655905802045 4.545249039456518 -0.2937763040910554 0.6100155651713172 1.1165848515308254
Ni 5.5210956676965806 2.9840394859070805 9.105587427890349 -1.2585087175925422 -0.4632582822766989 -0.8726612092958389
P 9.35257491269087 5.673074331793854 12.6144958920951 -1.3207543537963253 -0.2975198302938876 -1.3845490796547832
P 3.964964729984166 6.22658558206554 12.561712108656485 0.3564662269211087 0.12436091747728906 0.7734191983733648
P 2.2086372157047265 8.35418740511433 1.7427872516498526 2.6585720908328407 -1.152340668974196 -1.2779434292783862
P 6.543130932420233 7.965260927338798 5.915601750122118 -0.27417369936877944 -0.4469682868674237 -0.7759591911863991
P 4.698253193290114 0.9997982341979366 12.599525912293442 0.48441511885997224 -0.5984209183551823 -0.917425400885407
P 3.8624428857100503 6.094863505352407 8.137832582860701 0.18121340768995886 0.9476821428874194 1.1538650760385225
P 4.690032997784675 1.0964330077635365 3.6508727779139893 0.26179589452971685 -0.8619314815831607 0.37663601700076427
P 0.16829606868475003 5.518283257573156 3.419409616132377 0.8052731096591681 -0.9706834888785993 1.196664687702552
Ni 1.3608809474396393 0.9071966918704294 2.7453246467043324 0.6271915627299716 1.9790302966359272 0.056676112535805616
Ni 1.8816470624800845 6.2106063901424235 4.750624610485553 0.4897702125242985 0.9391640781140793 0.4456405691949357
Ni 5.952922703753526 5.5284748531008026 9.206467945999186 -0.21474444956786887 1.90008483117896 -0.15443305427232112
Ni 8.390423184421588 2.3512200787787307 10.288379512681717 0.9767752035986338 0.024698788298260686 0.6899691601778246
Ni 2.3866871929397155 5.073696380088075 6.909867403890759 -0.6030414478463292 0.6990258710634543 1.062760349511202
Ni 0.44570460703895676 0.16449614992634978 9.419216372248888 -0.4160381729474706 0.2565726984575646 -0.08494410624256338
Ni 1.5446009605183149 1.1697727058373726 11.541584942119462 0.012278817367353048 -0.8328435630782689 -0.7558737332904337
Ni 4.144922805405787 6.973429681304 1.7035437308408243 -0.03938235845236443 -0.3077911303129086 -0.4875955734704828
Ni 5.626303318422969 7.817324537598986 7.939630918426239 0.30397921276598616 -0.8132404441353607 0.3845069351084088
Ni 5.259650043650627 2.751577059435313 4.883959979693922 -0.05781485412593914 0.480573633626695 -0.17291902889165056
Ni 0.48743860292191044 7.155540019135186 6.59515328520807 0.7160607150585538 0.620970264410608 0.25720107607018283
Ni 5.044649880678314 4.672136664555559 7.175305565137649 1.3260811653258775 -0.38800234985617693 -1.5422996283361117
Ni 8.345325148133767 7.111183518635535 9.33052507473607 -0.4322870307061652 0.20893889862968534 -0.693894977594792
Ni 4.716267087071012 0.14287676445346195 10.449971916979027 -0.4646338224679869 0.6993845399544536 0.07811551335650417
Ni 8.069292972547357 7.1715372972970375 4.452085015104326 -0.6702562551299295 0.10506684513436744 1.3770118907374738
Ni 7.311859380529063 6.014008975083829 6.740743889783845 -0.44343430557223634 0.41827117604304737 0.04953461639501792
Ni 2.2001638128569847 5.41919779865885 2.5329867780739352 0.8039937287261121 -1.336733245723085 -0.17672091913624405
Ni 2.3642240844298006 5.168857125196703 11.465387618325362 -1.8319783653190258 -0.05079985626068671 -0.5315436969166588
Ni 1.2518480572206203 3.365731468188274 3.77476984343806 0.12535207774596477 -0.17339442586617235 -0.34617307252521673
Ni 3.726108818119279 3.054819981199795 2.800530177509678 -0.8529724726176601 -1.28584494351365 -0.25956520542698525
Ni 1.238771706614607 3.2561921632846516 8.333744529471208 -0.7630512248754794 0.5249773565530508 -0.014918568983045274
Ni 3.7196610740099514 2.8377851163697 7.284777046646012 -0.4587745354737325 -1.6797533744416169 -0.21981723610508594
Ni 4.121654859272128 6.770438780852286 5.963726518462381 0.44233233075730916 0.12240970728818917 -0.03268823426164048
Ni 0.9034474145804895 7.467401033657297 11.400295245115071 -1.356184412469161 -0.404816078979406 0.5885206285223348
P 0.16785838170734266 5.499835294062599 7.993380507013349 0.015689642821114916 0.002139414940505993 -0.3860164297743997
P 8.556653804642703 1.8402476620137438 8.14486089523345 0.2284818537586194 -0.12671887618650435 -0.7888789845718607
P 1.786441101774616 3.1123794359766097 10.547305723671768 -0.3224780429011221 0.8527207616181701 -0.15100191710358513
P 4.066989202693047 6.137972055379286 3.772811103782968 -0.7470517641234294 0.6245042457057954 0.14620552415620627
P 6.975274477655057 4.010867603895732 10.283045880878518 -0.39927946543189297 0.8491001341464472 1.1777683650186812
P 6.355856973429965 7.755749937822814 10.072362903092449 -0.539072401193536 -2.087581243664153 -0.47814419824959586
P 2.479713761877515 8.316558985424411 5.999224379229216 -1.3553583170234398 0.33604524006259545 -0.009675575416551077
P 7.066157827302659 3.9240717442024295 1.5168168805723155 -1.0406447485590853 -0.23704157040317242 0.6035983487910637
Ni 5.491190071946866 2.898735740909485 0.44431196665629696 -1.4851208651322747 0.4475840660745517 -0.7829435929240323
Ni 1.4720299275907518 0.8835760640814206 7.247571844942514 0.025425124941323953 0.8474577134470179 -0.7067103841919055
Ni 6.833704443950259 0.7843477238811012 8.994448395170542 0.3659194019142085 -0.4452181369455364 1.4765374943386378
Ni 2.770784644972776 1.5394915980754396 9.35805504302783 0.8583134252145992 -0.46337063948484714 -0.19531642275024427
Ni 6.266483824716806 1.9976793270898738 2.4715080353630636 0.9581480754157498 0.35757385816299064 0.775213057048994
Ni 3.884924080458701 6.886000803254944 10.392436878624506 0.603225024612045 -0.11519853425173063 -0.28928792930239855
Ni 8.103367446325683 7.58468124873986 0.030450895847599125 -0.2179670702702246 -0.7431128340803396 0.5579934064677552
Ni 7.528053235257941 4.01292039199225 8.037282138608793 1.1438673413958622 -1.397906989018928 -0.32802134131685445
Ni 3.0391572984545565 8.290189249347556 12.65465186364835 1.000359418676477 0.557285067546821 -0.47530184370479434
Ni -0.08394727709240717 4.903468701106338 10.211190158692956 1.420291013141083 -0.7560953623829365 0.18842895160179163
Ni 8.611916307100067 2.381939555271557 5.622501591040694 0.34365133454462754 -0.4050510778083476 1.6282212680005956
Ni 3.7506608872031832 2.7031601983394657 11.50067387009899 -0.6866832903377011 -0.28755140622726605 -0.48355842728663173
Ni 0.977072875226352 3.1225710315042563 12.742641415098218 -0.011449636597838346 0.921640210297703 -1.0789870957827092
Ni 3.1756450990745826 8.352216005092123 8.219178154510958 0.3932641124757485 -0.37274105282173225 -0.39113935282326184
Ni 5.730290148034688 7.883113231000608 3.711835158508953 -0.7560058879929238 0.0970923115693231 -0.13179217694435366
Ni 3.070998121749005 8.423430570114498 3.849484999967757 0.9061925082840652 -0.6243839180778473 -0.2572671534214279
Ni 3.398838328194232 4.274275584844523 9.413564422643937 0.007216058132464992 -0.03360354698705825 -0.6420052307040363
Ni 7.265314445142375 6.130068369051723 11.383790647956678 -0.12746783853738694 0.23982710356810957 0.035735762838712645
Ni 0.8602430074883118 0.06044330554324468 0.3250006669636994 -0.7910420536614505 0.047345322053182974 -0.004821846868675567
Ni 4.529653275794602 0.32553692394221706 1.6192862747540975 -0.10101170122838733 -0.3463867311979196 0.05988896304614847
Ni 5.924473050222048 5.512197238238547 0.32990746353273315 -0.663808956842689 1.1878841132964444 0.0074767679930193825
Ni 7.4647785290406 9.032086762291764 11.257126387906023 1.4768923065748953 0.6206820437462278 0.23292189180784403
Ni 0.28484559972238466 4.6634100543655155 5.77035568839426 -1.1650187786624968 0.5573457455814271 0.13138234310044472
Ni 7.908822819363606 8.909453020543392 2.4927512270702463 -0.325723032200981 -0.3053915197324805 -0.6221023211325222
P 8.587527014164785 1.6333501339950878 3.5605663792820605 -0.4594281098973313 0.5175982904801603 0.32406158533815804
P 1.968026938682462 3.1698575026791134 1.4755883950620283 -0.9045984243240679 0.7291059782782863 1.8057037478932128
P 4.836558660903092 0.867357229495055 8.324413838907388 -1.5624534775761671 1.7861366243945627 -1.0097277472652546
P 8.49186889749092 1.4760541157094764 12.46548970133406 0.16860368934574832 0.0038998492750384455 -0.5225836595098935
P 6.309637590340523 7.766782543451677 1.4536434572918953 -0.022922413124128262 -0.10122407434950953 -0.4927277524907256
P 1.8979427635810773 3.1442021730323226 6.081774494379279 -0.17120847395844707 -0.9305683660252684 -0.7315094455134563
P 6.826840716350007 3.894166148452716 5.815263819175354 0.4611407217130639 0.31078440861327766 1.5872859632388148
P 2.3021159406109217 8.454792108082447 10.241207889122832 1.0498809224453727 0.9108351492623991 -0.06872301639801068
