# total energy = -381170.91396720643 ev
CRYSTAL
PRIMVEC
9.18471028013544 0.00000000000000 0.00000000000000

0.00000000000000 9.18471028013544 0.00000000000000

0.00000000000000 0.00000000000000 13.44275189971748

PRIMCOORD
 96 1
Ni 2.825630186462655 9.003018316936895 12.340298402173199 -0.30982718690633093 0.9703752136095609 -1.8215728537149853
Ni 7.022886633017169 0.13787995188011745 12.683814831957108 1.4724108737647739 -0.42598268575469217 -0.22050114954598798
Ni 4.416927161728261 0.9452903794657364 2.965821011442982 0.0003998065415799566 -0.7259887728055432 1.5027684030107087
Ni 3.3351979114214485 6.855219747308395 6.208199159496351 2.780719802708895 -0.3899383905366252 -0.08329860021934041
Ni 4.146051686881744 1.7722265825828962 6.094163633909773 0.6283755557357437 0.512533217252427 -0.5537433729421496
Ni 3.4995583014383493 3.1598709773598337 11.180982230456564 1.2268715503032357 -0.672430637073429 0.14845652497391207
Ni 5.826550568145905 8.72311427190951 10.81855172684411 -1.2359316036229746 -0.29979525659162565 -1.2147793950253918
Ni 8.562905370927965 4.310568216972983 12.795469680645537 -1.327485758982888 1.4434139723117916 -0.8233430797870014
Ni 1.0365680299819673 3.5756168870617047 6.04204683250866 0.45945742047336996 1.252523703653701 -0.4581245605945594
Ni 4.946995159976673 7.726573209219728 12.991881954040029 0.4294431334994669 -0.25719927629796996 -0.7891209253793378
Ni 7.69172641851148 3.296796637844435 4.235327070562341 -0.17965660472580025 0.4057303632635593 -0.01249864668764299
Ni 2.9410177013988 0.8175576954755699 1.1263256109509618 0.635078421677216 0.4837463749277217 -0.8927942326002882
Ni 5.642599191154652 3.8689122396411775 5.301163098243546 0.02669473568236693 -0.242591296576808 -0.6648191432747583
Ni 3.5768292688153913 0.41135378125783173 8.138470725324668 -0.5851072319654117 -2.2331905289972576 -0.10891218702238663
Ni 0.8193826974032792 3.345870544737998 0.7110472030010807 1.2094507837236268 0.9289904800151872 -0.9522119124369731
Ni 1.2522709503254652 6.416502877258256 5.898759841701303 -1.1424658330626454 -0.11486069129633768 0.026063272745955112
Ni 5.709757792540713 0.945005653447825 8.134263209556758 1.1291778577044873 0.839218099146045 -0.9035584130953277
Ni 2.9159526271123446 7.7430138405765465 0.6845373737914815 -0.21190749433970602 -2.092467111001545 1.5560627435584748
Ni 8.515521450721359 7.262699417780582 3.5503919988168087 -0.47600478330908996 0.5961763452953798 -0.7703253899393895
Ni 8.99545930039686 5.289988979747062 4.535302462910424 1.7779270920005765 -1.0344396481896379 -1.2026373603462193
Ni 1.7231434909790788 6.820749529720609 2.982959680779196 0.013698066312382861 0.13719355046558307 0.013181274576964396
Ni 8.9822057634986 1.9334641711130267 11.517992211495686 -0.16944444007948883 -0.367270002404832 0.45617515017767246
Ni 8.41194547317341 7.17207388169247 13.135652060606809 0.020858845726880206 0.6478308362468779 -2.810130394660528
Ni 9.022361316734356 1.6497668407502433 9.091602091935274 -1.5349992380199564 -2.1558897982325647 -0.9261974906510824
P 3.8094596101592333 2.90881610724405 4.17490178026437 0.7846214948470873 0.29620856768163184 1.7479007208418156
Ni 0.39230836607263786 1.3228462639264633 6.226090975073491 -0.17068576868575766 0.15774386381310898 0.029277151697562485
P 4.105464452263992 8.184642263777587 4.384406858127655 -0.16575413571209519 -0.15447650591574685 -0.9603209146973527
Ni 3.499255205999927 3.2683515901840643 13.531742690362542 -2.6487759306780254 1.0118337378646638 -0.3706273489128391
P 5.685565265728503 4.203244877640908 9.707253220341688 -0.17105909286477639 0.35874371010137573 1.5112733551579263
P 8.405993780928036 1.301500997293366 4.1243574012589495 0.09454152012301137 -2.5551291544551415 1.6571909157600686
P 1.0741518643462677 0.017476666673604774 7.817632263631885 0.8647848918715558 -0.30033133160075376 1.1827362505469179
Ni 0.3423361945161165 7.971033457372275 9.84969246239249 -0.00229496668176379 -0.7990903778872238 -2.969881775821969
Ni 5.840832792592749 6.071065924559981 6.596653621145905 0.7815361710535444 -0.2340927721874936 -0.750799918311952
Ni 7.171329920161798 8.322284331662093 8.13549947155711 0.9143426481950253 -0.6785521765901346 0.28232049684562993
Ni 0.4262927124879232 8.794782566030879 11.82612638196347 -0.4561021308478919 0.8713180650043834 3.469191552405587
Ni 1.871586778123708 5.478799068463319 0.6660439596926255 0.05896413723903393 0.7027632266186994 -0.6336242057291926
Ni 0.6237612275617621 1.1783707716120828 0.500765098650205 0.2559561479194882 -2.213605407776478 -0.926640491725772
Ni 1.7730256523750991 6.8360696264262915 11.560376893910384 -0.1307285115665297 0.5216086971911339 0.7613501830239726
Ni 8.85924086260191 6.12152672270208 1.5309681244253148 0.8743838484139006 -1.4401957224848099 1.8550434746686053
Ni 0.1381499823616205 2.317467722172908 2.594329791163767 0.8675984500609509 0.02880895381189232 0.3977794838475988
Ni 9.501215370599743 6.224689388288547 8.15739765774757 -1.292223593346484 -0.7188552470845556 0.014974876142277434
Ni 6.871439945619088 5.608413699584777 3.6855183745624154 0.48435444082536583 -0.28898145380557333 -0.7745376282485241
Ni 8.163434767798316 8.816394189261375 1.5789049641892827 -0.9186207067450889 0.3674337816762059 0.31164315706914714
Ni 7.69869761359518 3.695679419517749 10.654779158283542 0.5589012629940052 2.0107672227278917 -0.46448598403621294
Ni 6.9901523256676175 1.621404455482169 2.449847869552208 -0.5782477858414171 -0.13218915527245623 0.36070031960711424
Ni 9.14775098113842 3.759549894632447 8.203707885325342 -1.3267128853726053 -0.2579868051962719 0.19011816637875645
Ni 6.256431746930536 2.0120761061873296 10.122069637365733 -0.03304921714548502 -0.5140964479744888 0.6505870588357763
Ni 4.839139107449797 6.040333884046064 4.307756777163864 -2.154861099857734 0.4742448631951897 0.29429335293678993
Ni 3.5483382976037445 4.552897612346321 6.0604630950413725 -0.33784295539296655 -1.5399763795195736 0.24196934672209294
Ni 5.639706007424262 3.3693374794400475 12.415940920421992 1.1489660960750083 0.20798784757032568 -0.6714261070683146
Ni 1.4334944683709223 3.031404435020276 9.98955080086158 0.7916472913456173 0.9185929388309471 -0.6363174362906396
Ni 0.6111441910841864 8.56699256699153 4.745681006718979 0.32608632907767066 0.6921412281284789 0.4929964327710799
Ni 4.017989271793415 5.205333505324835 8.166122214018989 -0.12783627762039917 1.478223366681493 0.6396688692613758
Ni 1.1723180475539026 -0.0002883999020134485 2.560427188669753 0.33532790228059667 0.30118699473282967 0.16545923017949568
Ni 4.028799675763793 1.040939952063445 10.25570349769487 0.36889648226466143 0.25210309272198517 0.7516977475358732
Ni 5.004344490810175 7.341669556554837 8.331360662336287 -0.48545641564029296 1.1158929676701235 0.9499740242453898
P 1.8406618586944317 2.15814055337586 12.359575272056823 0.6245734083808341 -0.7538021954733857 -0.2853189173523215
Ni 6.129600083016406 1.3235902254571352 4.821444763143143 0.28168234904099876 0.890846107734982 -0.20820279179460918
P 3.648120989816296 8.078678261563281 10.073003078240374 -0.5370764538094299 -0.396594205290246 0.1064891794031908
Ni 4.039738665677742 3.0067159338542844 8.835248562473263 -1.2519768300112952 -1.3434299410169703 1.298687860914589
P 1.0551486988282477 4.496319797174256 2.5146680437072946 -0.6007372251931848 0.5787779473132743 0.1482554647066995
P 7.8195408464229175 0.021139529123380674 10.597862427303061 0.8987725616709101 0.9897492472607986 -0.8471787487540184
P 9.395040120049568 5.441206049388763 10.760143398918181 -1.1982065782683753 0.4532985999608257 -0.20166139113166562
Ni 6.677036368357411 6.872266569542057 1.1582828918129233 -0.04141610105294157 -1.1903809115763693 0.17269971379199292
Ni 7.8642979394965336 4.560686246642735 6.372737732892202 -1.0145693916282719 -0.38088682185731826 0.29326851121670133
Ni 2.429181353006971 2.152152122289466 7.487746862337725 -2.908581791360907 0.9982351732446227 -0.016079422060365854
Ni 7.231260154577013 5.281336982686659 8.62296051740265 -0.45430261574530795 0.1725369629618835 -0.16309304394016427
Ni 4.1236134397282775 5.441389743593867 12.497685760164346 -1.005727882077242 -0.8848456671771728 2.2482749341342054
Ni 6.700126729938997 5.934186187626656 12.326949344288284 -0.6831022578546623 -1.1549781065970433 0.15776134731460573
Ni 1.7208105745742568 0.5700444496341935 10.226384984089227 1.1346383665984265 0.8449390607902222 -0.9509914097663107
Ni 6.473916501063544 8.260902913026555 3.881701948671551 -1.0082143959445216 0.09319246229428467 -0.7373916153258462
Ni 1.6461572496199475 4.352349463923912 11.965715608422082 -0.4681888868090969 0.09267284234538878 1.41186345119902
Ni 5.215703043202962 8.555741296928904 6.133873728698153 0.04890572456176738 0.41191566613866476 1.0249214242865574
Ni 5.7491693842458 3.597246879712713 7.631194585574549 2.258113517491182 -0.8087464129197491 -1.9300340692428826
Ni 4.847148174792336 7.37377011889678 2.2152712881052885 -2.4149904053183056 -0.0971308781167424 1.5763708589882077
Ni 2.441139845759248 4.851676236948152 4.111801902340083 -0.7577604087901852 -0.7126694299888178 0.6737951215211235
Ni 2.5726097883522576 8.9693287997208 6.043309730168751 -0.23901154964534968 0.8782250765368617 -0.10455236739179415
Ni 4.834353873406835 0.998267788217761 12.509757224852763 0.14984877733574836 0.7550849188405512 0.42592946391925357
Ni 2.645132260527359 2.760519775463504 2.425247541604666 -0.03921806496035826 1.071223906897523 -1.177979966808855
Ni 5.025028458304898 6.482733822908541 10.849577678086193 0.33057984607265006 0.07326769834589962 -2.5509997056678
Ni 3.6006544072173945 5.216437820023378 2.1785186700190846 1.0383744644676698 0.6364030540259104 -1.268127471629229
Ni 5.022144459284763 2.2165093870476906 1.1240478028076708 1.8405666212086689 -0.4611520345669735 0.443683445468565
Ni 7.592871382034704 9.011137600802495 5.918184585420038 0.5968134646587464 -0.11454547404876401 -0.2799805358585436
Ni 2.319984332782834 7.314142979919987 8.310147655530866 0.840531932861462 0.7617150225625591 0.6740455469690327
Ni 7.449029634727933 6.992329101998101 10.120388835389031 -0.18855519276701074 -0.9663843472826132 1.3825734439856512
Ni 2.9218400263859317 5.338520988735567 10.358648485648288 0.6748477311553539 -0.19273426384536485 -2.2448620517979143
Ni 7.715073951980211 2.1720921282535173 0.19528163556207442 -0.8196849142091238 0.24148906465156472 0.27768608339741213
Ni 2.091303416848731 1.5348018224858377 4.259443364279433 -0.35633407221861857 -0.6024884035563366 1.4964648293901839
P 8.086742437167352 6.8090665782759885 6.046777876761117 0.09315261019528474 0.16797222640933654 0.27475296891101714
Ni 5.788277880512464 -0.04119709937869815 1.1515964227471338 -0.08213003383253596 0.8904010497777634 0.6318169773171248
P 7.683423440440774 2.1754169933659018 6.987932381198934 -1.0499230885372177 0.49216056713334594 0.6660579007778659
Ni 7.776345154092686 3.9630922585980533 1.7200941671743508 -1.1646552246754909 0.6180289223940969 0.31716511532864083
P 1.8809459978737624 4.511603155038918 8.037448097227665 1.6627678956272136 0.21440634950215978 -0.24904245151879045
P 0.7980328384150542 7.9784455185482255 0.7793006218495628 1.4743602841816608 -0.09928777655874513 -0.1165733031120702
P 5.530215076471959 4.49694435747161 0.8360345770959664 0.2041751586924548 1.002558226100009 -0.4475961502594098
Ni 5.355935199379437 3.7990808875708515 2.8697856810145552 0.9832685246324615 -0.3147750178299095 0.7834796679331604
