# total energy = -340871.29597054585 ev
CRYSTAL
PRIMVEC
9.22848627260423 0.00000000000000 0.00000000000000

0.00000000000000 9.22848627260423 0.00000000000000

0.00000000000000 0.00000000000000 13.50682248964627

PRIMCOORD
 96 1
Ni 8.375072927762576 2.9101293708888205 10.196610961065193 1.3198992048848814 0.29135715312660143 -2.89180380057162
Ni 4.4485918882894 0.4525945061627522 3.5910052547174987 -0.7500005623391084 -0.33046748886450183 -0.8249114527153858
Ni 2.9751532863434145 5.025907542988307 12.12127917602949 -2.4113070429294474 -1.262232960521665 -1.240838554006289
Ni 1.525431894547629 7.930462908067509 5.709293575128601 1.8151934325512027 0.8006857473988017 1.612566077961842
Ni 2.852977354367347 9.282196230845853 13.079710095171938 0.7320864010628488 -0.32394408592368723 -0.5960063953764188
Ni 5.918957404250943 3.952265430585882 8.656468859132577 -0.7415030663910585 0.38740251148864896 0.2871675405252861
Ni 0.27633041516321366 1.2000446911679052 8.453690403742945 -0.5758381479586598 -0.36298320210402 -0.6516242418510391
Ni 6.887154830592596 6.284857663101241 2.7504617899025576 2.5316135878317043 -1.479531029749323 1.2688417240874341
Ni 1.561395306203399 1.9229950903727662 3.3492872007952728 0.16453697547554244 0.009714656184602625 0.059294523995259175
Ni 4.704128677806532 5.411815160440019 3.0841887764778986 -0.14024622124897781 -0.4990786344094179 -0.05260425645927715
Ni 3.777210271309954 7.622997425353811 2.430715037434819 0.8709755940632999 -0.2731241750583425 -0.9616460612666793
Ni 0.22816233019085289 6.1652749358147485 6.051502463590732 -0.5422279161033824 -2.0344877062732833 0.8380256214998406
Ni 1.8780985038433027 8.577444406900213 3.5434748581581257 -0.5241332633852006 0.36072165976335296 0.38453136058844095
Ni 5.56701984538401 1.1501462649880883 11.827343577285133 1.6152263984028248 1.4137640106558427 0.9551501691296904
Ni 6.471466887399758 1.8174212055018384 9.310685491334057 -0.07301315913293233 -1.5585474576535416 0.8608850425965173
Ni 4.086973647147153 6.8155971467386465 10.286310003562436 -0.2014212500964015 0.378115172649452 -0.2552321252692701
Ni 3.1420135496608315 4.5308177024677185 4.746635086348095 0.29094937616522154 0.08183512829993649 0.17343659195801744
Ni 1.5102971767864122 3.913884155482894 10.576220136521766 -1.0505200986912684 -1.2165969078501047 -0.29815000767871874
Ni 0.46544055928690703 4.892380572691327 8.375837046439788 1.300922663782379 0.015943667813449962 0.2844869083693294
Ni 5.0867140401399284 0.40025422247097303 1.2886723063894898 0.5733297797145094 -0.1754597930356333 -0.48800412176281116
Ni 8.910638909807979 5.06765721564181 1.3134111099885715 0.2210642211383096 -0.07882950870439326 0.7586944905686804
Ni 5.423120056328733 5.000095466416281 11.460971742777762 -2.307932755006154 0.7421934075898637 -1.3961383271542793
Ni 7.349815769763845 4.186281389725479 4.248692720668975 -0.9736446283894522 2.727140326820542 -1.5849933105498961
Ni 1.9415166626573772 6.1065079341663155 3.1337715884214754 -0.3776688291406528 -0.07282983947753263 -0.604144708212837
P 4.713753989163208 8.593298946603731 11.779043524956684 -3.2066652074677484 -2.9513940014304265 -0.8513161679611596
P 5.301313263810257 3.6932956441131575 5.255004718855508 -0.6392577498658862 -1.9842205825876151 -0.8183677380595971
P 2.7064566751631753 0.4300548508822667 1.8804065483018881 1.1031845189645195 0.7776712887814993 0.15056174424237295
P 9.133285373653784 7.854272524020797 7.4914508882468045 0.6402152286831491 0.8343085776595696 0.46264430284178387
P 1.6537816839519004 3.1119379123536324 12.770592713385522 0.5495136511315182 1.2940485623703648 1.8516820143955401
P 5.505253585642654 6.584857300285167 1.2579036097506646 -3.956433599191392 0.7510979091683451 0.8895803536486808
P 4.952614903683682 6.014684494090639 8.32534891997647 -2.162415258055908 -0.6422132329497843 -0.5220457847285526
P 6.598820000268534 9.27130661684693 3.28287347528285 -0.12097374617261102 -0.8706115258556619 -1.479227382465975
Ni 2.7314843303878225 0.5102014870657061 8.060682388824477 -0.15948372932235114 -0.8514681201579917 -1.0468511344801132
Ni 7.838288785507121 0.5153620566828234 6.66132177037914 0.3757867816265915 0.28037442886285263 0.9074081258587211
Ni 8.534965683817967 3.0021558376661712 0.5691059931620911 -0.3793102213988177 0.31381805323327894 -0.9685206768993255
Ni 4.185515425350978 6.677049879818434 12.909065229565572 1.0349641532345402 3.351599064000383 0.6787318967011085
Ni 6.353692943455458 3.928031425195056 1.7287114567509398 0.6680458777421721 0.47763126316891935 0.00862913642990772
Ni 3.9678892581284066 1.727360406336158 9.644641344373104 -0.47461921581547295 0.7168788400844751 -0.4275492589108637
Ni 1.513351805797975 7.158703044082723 12.110122858772456 0.17392047357297144 -0.05631204432816753 -0.17399966355033905
Ni 0.14558675637646698 8.884808376263074 10.563915795551624 0.5039087088082096 -0.1409548172802282 0.8640999499893892
Ni 7.279716186767379 1.6679843245827009 1.9119984259311404 -0.5198006974481177 -0.7156256844036644 1.3381242125333406
Ni 6.723662964825695 7.867395431738145 12.091726793903424 -0.4250619737126357 -0.4204296171469469 -0.8882824607728637
Ni 7.118180760125709 7.255186869810481 6.787138340255695 -0.587017304503931 1.0050244282523144 1.459190518419758
Ni 6.710281659488033 5.6662260746115 13.49039804441171 2.0884986132720997 -1.1668236930817195 -1.2292043122014702
Ni 7.629051312458298 8.712429478054677 8.944514837831074 -0.33490032782487483 -0.5942351624086089 -0.6284056376427306
Ni 6.682153232819625 6.345488819010507 9.348652407395901 -1.160209015978679 1.1123183629449875 0.08959857429543924
Ni 5.396901926353356 5.573027590056299 6.203062819239659 1.218136741533399 -0.12114498164315267 -0.17929665028322025
Ni 0.14814027857435036 1.9267049419215523 11.93923436112408 -0.09885634544828137 -1.1453914913498726 0.1159626661112648
Ni 5.844298948953233 7.465965500094746 4.62106214851355 -1.4516911247189193 1.5307265787865314 -0.26697306785528213
Ni 1.606624118244694 7.869554897565051 1.1009870405720963 -1.3540838211863906 1.36140118078341 0.6512123511246011
Ni 1.9524062766563017 2.9823791912257516 8.320431982401361 0.18140649753737145 0.6751230963039276 -1.3713757754976188
Ni 7.3991604867572764 2.8849725168540172 5.9049393333489375 -0.19921498647370206 -0.9820444224173732 1.8689526285505296
Ni 8.539902924063243 1.1761982822075487 4.393459064600947 -0.33569659847392513 0.5306769780409892 0.33420253042690184
Ni 3.413626362556036 2.1843273693740715 11.943813536095494 -0.7473852362034483 0.8645822889424465 -0.20524139517344006
Ni -0.4740350487082615 8.896593153446654 2.7608078460501804 0.6865084553227339 0.1600182616695825 -1.4175833844019328
Ni 3.7601837138285843 8.850478406707142 5.74790925378716 3.150631613611948 -1.438180234716678 0.037891889949767
P 1.857537436055503 1.5756717747257174 9.848405402114501 -0.9669147658647864 -0.6451206364045664 1.987761762971654
P 5.691807439022532 9.009079174660966 6.99691198836667 0.6409479930841154 -0.7071700974371434 -0.13677703175345474
P 3.576047723895925 6.801099194541774 4.565427295162775 -0.09279599818681439 0.37725128198726 -1.093940374658432
P 1.8314761903496026 6.076626095074352 10.218208387880178 0.26176761239494273 -0.7619083695202878 0.45214674574456976
P 0.5451765278237768 9.0108971864896 12.845920233950114 -0.5508174575446062 -0.8022795742484827 -0.8467367761205934
P 5.132838015365881 2.9949114758109547 10.760116185806991 0.863043483700417 2.219102169224991 -0.16378878445560824
P 2.291617752722796 6.08653748951066 0.43923073494932646 0.667943804946669 -2.8303953155571513 0.2758989095900023
P 2.1686666278857882 0.7706967423469245 5.96495033496945 -3.135646453057025 2.2887142730961743 0.003270443221155658
Ni 4.660699420620991 2.7899375634973023 3.013858481320439 -0.2237191422626534 0.6334244310135607 0.34360402624645986
Ni 7.619970481801568 0.5013356801430224 13.268157633969256 0.6582247778866922 1.0558996178356266 -0.6646206541107069
Ni 0.787902332465225 1.288702760394741 0.799044806992599 1.4397190399587076 -0.24328369465814234 0.8078966633249441
Ni 3.9091591704257334 3.7344270081751962 7.14411003847552 -0.34020605630850437 1.5132070818455294 -0.3655026260917641
Ni 8.759393245546647 6.394907363895456 10.061286281609748 3.5717595423775004 1.1049328691141937 -0.04058100674615592
Ni 3.637371016288173 2.1419409311562245 5.118234858423595 -0.04302946828664847 0.025160301315711505 0.3994928669942797
Ni 0.5915459807890272 2.4785315170738245 5.827126581386115 1.349068113139354 -0.19254348799079743 1.1750908181865183
Ni 7.009838329322851 8.100174773694812 1.336386349829014 -0.631437739600835 1.1211436745461014 0.10571810556512115
Ni -0.0295200824235248 4.629857818939292 12.285738187175278 0.7940947244448453 1.105994734719805 0.40461373316061283
Ni 3.5840211361798833 2.118602088950055 0.8362651385014649 -0.21251967400240823 0.9106448876284639 -0.14105611874478288
Ni 4.636179332150531 4.540175387717642 0.05211326292536094 0.072416663199514 -2.250102217150931 2.4469510173853015
Ni 8.557557018622516 7.113631116310904 -0.02360000837241465 1.9771587906448271 0.22279354512459051 -0.4421950338484965
Ni 7.198533191556755 3.6705843389848924 11.852453366039093 -1.0626569911641182 -1.7829787954918714 1.2438647424271223
Ni 7.625166119667156 5.082219767243762 7.569655850883317 -0.07030964415884021 -1.0308131071806441 -1.1360766417068497
Ni 3.355163900960116 6.613493293707763 6.66440131630409 -0.1622677198253915 -0.952773698477714 0.6274219335732226
Ni 0.8000913173548685 4.370823433061489 4.326977971137514 -0.6368810221035935 -0.29546963263307824 -0.05592200797860047
Ni 2.485397510985011 8.749546450515416 10.28350085229017 1.2417063013232228 0.29783273354861606 0.8287539663899276
Ni 3.617843538981627 4.393516281216874 9.696602337272209 0.8289537411055594 0.017279355905737984 -0.690277692557179
Ni 6.239684221978584 1.078680865998537 5.028724999898368 -1.5666091516157534 0.3663732016221755 1.3459478223428176
Ni 2.0122622397046266 7.265624287973856 8.462146465867702 -1.1989208307265804 0.40999453785655193 -0.4609334907982642
Ni 5.142620210992033 9.005729234083333 9.363821270556945 -0.12820214560025017 -1.3885767127569375 -0.2983600668069958
Ni 8.69568900365294 8.150626909061016 4.968498051695164 -1.0541021596155717 0.39098122997884277 -0.2954626906545428
Ni 2.2376957064552405 3.823121991347791 1.8448298102279448 -0.297630644840139 1.0297098468141364 -0.5949296173724721
Ni 4.961686505853973 1.6621242356934491 7.5122112913417025 -0.04900728313663818 -0.07399583476117579 -0.9698157415616654
P 1.7668398713254787 4.618931290994608 6.565125873428303 0.21687383720604583 -0.7482239300546598 -0.07320753453192554
P 7.869674867888768 2.649830682368769 7.958098533560033 0.6564540591395145 1.0825275048358 -0.10470791913305193
P 9.15118863734693 6.887357857294271 2.279209129855886 0.10843730426849711 0.1837847679615609 0.3156329949548306
P 6.3051049623500885 2.5269441569368394 0.00475359336512368 -0.38494222287361446 -0.28371223498683396 1.6206339425716414
P 7.320247699210834 5.749725419918506 11.312909906338149 1.1795881918362394 0.5716158823471962 1.4600176423067437
P 7.465882443716787 0.5870406337091331 10.839508854648301 0.5108851401260427 0.20074684973719623 0.3849599634854273
P 8.708848825316046 2.9071024273365773 3.230535037288359 1.026956195328399 0.4945606919344063 -1.8355097755110517
P 7.602796268537163 6.3245493832786766 4.924195779692421 -0.08536936670544007 -2.13133936258671 -0.6904921225608301
