# total energy = -381167.94999252545 ev
CRYSTAL
PRIMVEC
9.24450537832316 0.00000000000000 0.00000000000000
0.00000000000000 9.24450537832316 0.00000000000000
0.00000000000000 0.00000000000000 13.53026807009847
PRIMCOORD
 96 1
Ni 6.009640182873868 0.9650893610007742 6.445264377419242 -1.1587170048141853 -0.9073507902582245 -0.04521567730468987
Ni 4.763702755019924 2.6938395600048337 4.832132431137782 1.252380236097301 -1.4819393820804994 -0.29108204508834384
Ni 4.02294055630549 4.798286448834858 11.333520199401843 -0.1841938304745215 -0.7891427797562087 0.17118199159588585
Ni 7.529399853657071 8.092454929622377 12.396647537656664 1.4299799582940729 -1.048336203666072 2.197131835601487
Ni 3.56647462487004 0.9187642211782621 2.6310961790127614 -0.19882906388919305 1.0227647829548707 0.16952003051243064
Ni 2.028475545400158 5.828244502564687 12.582634963680324 0.5022179513693479 -2.9775277224030012 -0.031272327750720336
Ni 7.207718807498751 7.563650745286136 8.342005724246073 -1.4374119890920858 0.07596272867955951 -1.2090257803710662
Ni 0.7839562246382242 8.61660912786161 8.579962060494285 -0.29291447031139234 0.33863382672537806 0.22073614837492955
Ni 4.973257198055726 7.771864735073297 6.578321464681401 1.8616442678145746 2.838980229012685 -0.7139043308371834
Ni 5.1116936628722565 0.03759278024550412 4.279299004531249 1.5176915999794443 0.5429748215717358 -0.30030999144451503
Ni 6.955713596754268 0.733751165998784 8.865870569473703 -0.9061747676722522 0.26868645100196303 -0.2050591039593049
Ni 6.869924588841252 4.757527425571013 2.3768214422507516 0.19021895362267885 0.5923515722326508 -1.149433008409098
Ni 1.1039603175599684 0.851353289529371 6.371349011937636 0.23417324771644188 -1.5754560604834222 -0.8109624467344615
Ni 1.8620189854344509 7.07940507583575 10.743154081833367 0.09753634108527719 1.8350104672771301 -1.9329746399284453
Ni 2.770078994084429 2.28956810471991 7.197168978206689 0.23649881052582494 0.8426662055956454 -0.390273919499173
Ni 6.3360081931498495 0.6903731744222491 2.1237383222042574 0.5293932262325592 -2.423657336964684 2.353046102405025
Ni 4.004479279494898 7.086181298120258 11.644499806383427 0.5416098229034091 0.4184089871724923 0.2667612089547922
Ni 4.647074077883006 1.6882685108951052 8.356969804753488 0.2724096654898212 -1.5183940253631074 0.25427618911390404
Ni 9.070412641810105 1.6992232495133082 8.222776567806791 -0.6521112087897867 -0.18927047366648048 -0.8208516808237153
Ni 1.3027449120808279 0.36395709271942006 13.59088322148527 3.426403767816099 2.028865474990499 0.5357559352257935
Ni 8.518774529721153 9.21400754050761 0.7609540468915469 -1.0187266083297553 -1.2637563391447268 0.8810946847751728
Ni 3.988939266315827 0.8133445065515299 0.3803781072405289 0.3412504384126187 -0.881158705243889 1.0314779944581527
Ni 1.9327394499317108 5.134906615336652 9.520126386674468 0.6144386339396773 -0.34890769784756037 0.7328998981030797
Ni 5.885828525225267 8.583291931254013 11.139590818992612 -1.3917584529190288 0.13347830639752495 -0.1574569287003095
P 5.099583361108674 8.249787162992163 13.372775762272623 0.7917213391166623 0.060951085762075675 -0.867454725394235
Ni 6.48930982226855 2.9124721071107413 7.804068893259264 2.6274159769450107 -1.7138958246512805 -0.12193302476208677
P 7.207774274529729 6.294361697390352 9.99834001650597 -0.17719400211792063 -0.27658796523722684 0.0893967426972783
Ni 8.143262729998447 2.4955634132679414 1.5957328631141023 -0.5265141049125512 -0.9843170205016337 0.5959560017544575
P 4.134780579767954 2.144965554959631 10.357068417105177 0.3460265196450234 1.0739778154935762 1.3432913585565769
P 3.702082271106681 0.6823017969643985 5.953940190365516 0.4655313945815918 0.37745722735047893 0.011919377145405278
P 0.42373298755415617 6.379743947076193 0.9537038284419735 -0.15728312212660656 0.28656847348870645 0.9285852741569685
Ni 8.722430978462935 3.2169213956451532 3.9677240514171657 0.01791647526910463 -0.2611078673237568 0.18215571699857014
Ni 3.8732812622210275 2.7168676223659673 12.763236540996 0.7944238256494899 0.43001340418064005 -2.6541983872451773
Ni 7.430724005546777 3.57477619050645 12.353946243858063 0.27299613412091045 -0.25336087638848626 -0.08617772153934836
Ni 2.1953296190878753 6.436070717034599 5.53129528106905 1.4338574389716081 1.8434028051058835 0.7852282751931509
Ni 3.6214794305901306 0.39865079614579474 11.650575295176578 0.35822640414532503 -0.7005775318212901 0.4228557100899363
Ni 6.334390404746316 7.095869539531124 2.806069701585178 -1.4327688338931195 0.7248556876423645 -0.2150969478112812
Ni 6.606206590055197 0.8520678897784738 13.40147347965025 -1.0234646372353728 -0.00820233330513426 -0.6571539134200167
Ni 1.4702553456351213 2.8500254747344025 9.29384586044718 0.3907081788231142 1.2000048078193786 0.15543064229890005
Ni 3.0269098365240192 7.7018745864839175 0.24131394052342725 -0.2273755080683181 0.25629373376456505 -0.08261442966812224
Ni 8.681450087075175 4.475782641717028 0.8147801782033501 0.740160436320235 0.7919352548996812 -0.8842165182336063
Ni 4.134059508365237 5.9406484408420965 7.105582741105931 -1.8681378459587183 -1.24636334047926 1.7860360942609566
Ni 5.678270895304681 2.590920484024704 1.403075526615306 -0.5103814610167468 1.9782530521502706 -0.1891876841446871
Ni 6.37830180427076 1.6950077551589615 11.221354769357642 -2.92786249396739 -0.25977037945925585 -0.05246387422667094
Ni 6.544129737885379 3.7903488064033914 9.997677185485783 -0.42927446913208644 0.5120547349541117 1.1866576970885114
Ni 3.461438557207574 3.3696036429179297 1.263221879157281 -0.5939662250179384 -0.509857984413109 1.8087898430177043
Ni 8.904335106556083 1.7802051147415425 13.00372402275785 -0.5166482678620651 1.1525358157041377 -0.9991592277207888
Ni 7.824068455728987 5.958342423724156 4.2242174694183054 0.29191868205702626 -0.16199775399345648 0.8809216495324182
Ni 0.6449262625902258 4.875006597182931 5.22513206127741 -1.8924823362413536 -2.5453931581143 -0.813960867241153
Ni 4.643404009333278 4.509774687201528 3.147938898118545 -0.8471054723139219 -0.17167590051316883 -0.31117110252873503
Ni 6.249461135813465 5.861746589275546 11.805145270403647 -0.14778495282818419 -0.2262084843434104 0.8667317311852815
Ni 5.134453634583662 6.077883119987433 0.600107052658773 -0.5131618519753613 -0.3244163975744155 0.3272615803326945
Ni 9.177722857742678 6.379013631168314 8.93243932670224 0.0013153763773138638 -0.9481030324749219 0.5105485827222304
Ni 8.15360733127589 9.081737160634828 6.931137079778324 0.4422348859474964 -1.061167036882153 -0.5884725488932188
Ni 2.5604043724815075 0.8599247947165419 9.61100911693232 -0.46517401124217306 -1.1024674382928368 -0.7791378460246969
Ni 2.3473924845147285 2.254466718615846 4.28253273243728 -0.43320902829980235 -0.08451241802178348 0.5029502015496822
P 5.010207485192398 4.00165970542017 7.00079072837977 -1.8372748378312744 -0.279267568951919 -2.2029031908676253
Ni 3.9955121094867487 7.73323194799695 2.304840951699769 1.4759422839568 0.8740832864543462 -0.26261659065879933
P 3.0014042467791904 6.336951132676479 3.416880042321719 1.4005572821575816 -1.3273356065582689 0.5235107993098533
Ni 1.3511861191351602 3.9473667265976338 2.750906814826799 0.10494008974851604 -1.8950729797866654 -0.3416826408540309
P 5.686239658755223 4.036585445926137 13.266549002345156 -1.983159231202636 0.9976021676463144 0.31849334722176115
P 1.4019476969854154 1.6912729750730933 1.7848726653983618 0.2609014077399055 0.7553080905949507 1.10284976133292
P 1.1723326777458158 -0.12229648325237885 11.37325862929569 -0.22021035777844658 1.698488746067591 -2.18461287719887
Ni 8.57030340149994 4.364256931430107 7.155617700850372 -0.3754767065853405 -0.29140703252793043 1.511050697624159
Ni 1.6826386072508135 4.7004056281685855 7.108369959412587 1.7493778196079743 0.8757506468544402 3.4378798867764986
Ni 1.7112503507304238 2.0436735118881963 11.575901880271601 0.7438479124741513 -1.0885474857776352 -0.04806394538676239
Ni 0.29365817765759505 3.8164645334889804 11.51846576969363 -0.006769714623665761 1.1280049204423088 -1.4375192040939113
Ni 4.164057927619303 3.9872382773658277 9.004041716992056 -0.6212070630117623 0.0836025046130044 0.40932733658619824
Ni 1.5824096822731284 8.573807068956732 2.3678912502632543 0.20619141779153521 -0.11846126416340243 -0.6148512959970637
Ni 6.819523546692356 4.148425469388601 5.595360626299437 -0.7427657351535659 -0.0015403479039263793 -0.16832421043211657
Ni 8.514808637006208 7.749428321042597 2.641988054995856 0.8141117909967206 -1.5658751016632064 -1.081461268354815
Ni 1.4482072008212699 3.460236771536379 -0.10464225174252044 0.6965591546905165 -0.05538876118294977 1.5287833390172316
Ni 8.427503530246453 1.6865675219451055 10.620488742824984 2.3885900609479056 0.11764802423348769 0.3278519056185257
Ni 0.6254684281230581 8.254030390861999 4.5582658145837405 -0.4505002112800822 0.4861141038289499 1.1118308817856077
Ni 3.1199280474745326 8.50958549158909 4.402005019362351 -2.5972175989847592 -0.6709195997455413 0.5693929065539484
Ni 8.038393063428916 1.7424043331298702 5.823441057681972 0.7646051996261606 1.7080745899838132 -1.099076667443733
Ni 0.8618069759677371 7.659349862733931 12.807643445997181 -2.3677669535549675 -0.9991563995073114 0.5663574621617343
Ni 2.346874792225598 5.405252924324607 1.3246811983822067 0.585061980549773 1.6089264243267258 0.5024632346109348
Ni -0.033878338070994454 6.825356829450234 6.672546083555691 -0.3891184657384911 0.1568617183184718 -0.9163041427967703
Ni 3.1293574427408335 8.62484598196188 7.747309480459229 -0.9388141509738284 0.5963336968088503 -0.687868311784738
Ni 8.816096304774861 0.6954188253402367 2.9821655070843867 0.9309810280826547 1.6408932070413094 0.9204773003378535
Ni 0.9720597178937067 6.106439396436065 3.5560653120564565 -1.2829447391477196 1.85952002238272 -2.8771906786441352
Ni 4.970844382208171 6.305020611843338 4.635740314553117 -0.19684982867563516 0.4058848865635526 0.476450869707573
Ni 4.9806528021861585 8.609694237999657 9.094315234359662 -0.22883152378855426 0.3169416864639251 -0.6354661440339379
Ni 7.326584654885125 8.80517854417731 4.391789841157191 0.4266408881639814 -0.08669734148824423 1.2009545733271576
Ni 3.354562833017663 4.296337551997249 5.54943947135255 -0.08698119127725021 0.23116428568678898 -0.866930477459649
Ni 8.94267206946721 6.146357169730073 11.310370109572558 -0.6586544092249431 -0.09806007479923112 0.7332480254711178
Ni 4.984868296540504 6.3423684127020215 9.567441612999943 -0.16429349200616866 -0.20326910193841768 0.4284422030387783
P 8.572503593728744 3.470590617318984 9.486422769751057 0.525841504325559 0.8469146964593544 -0.9882947742024594
Ni 7.441170296381013 6.583788665034824 0.798093846384062 0.5446429533027781 0.4444504055415765 -0.8502964684473937
P 6.909518804454554 7.139817917076219 5.828758497051753 0.7209093014001068 0.28428250566800717 0.5734354520544382
Ni 6.431383752916938 5.1720695260920735 8.1058206351871 0.8838429369442714 1.9116370547929333 -0.5419492085206988
P 2.024186095004507 6.800544577592634 8.143056577533311 0.04241471752078502 -0.17015869253769403 -0.5845022513915611
P 6.647390860556542 3.144989900971535 3.639709594771647 -1.1926146860028946 -1.4764585614715862 -0.1513348749629716
P 0.8014542240108272 2.947878561885186 6.431111964465144 -0.8248422900403473 -1.1985912153013036 -1.192225678094592
Ni 8.143059350884862 8.63734455294231 10.31911602560883 1.8086592309771108 -0.8844877696171218 -0.3477026217958657
