# total energy = -340868.458498187 ev
CRYSTAL
PRIMVEC
9.28451304994118 0.00000000000000 0.00000000000000

0.00000000000000 9.28451304994118 0.00000000000000

0.00000000000000 0.00000000000000 13.58882334154839

PRIMCOORD
 96 1
Ni 2.6763166014374784 6.407780975989701 8.4639208858941 -1.3601981616142447 -0.4457678388014194 -1.0487298395600648
Ni 4.712874544811808 3.3949471980872006 2.8699729751913043 0.025335650551311206 -0.4043954465022197 0.3587375394537886
Ni 3.220389067732148 4.470056674316852 1.1616680631924252 0.13016158331946617 0.22644039784855838 1.197682073223473
Ni 4.915564749789265 6.3030795220237446 8.375131230438994 2.218603118101386 -0.521834697159011 0.11128043014424707
Ni 1.6560785974911294 0.38901924101115 7.135776860979891 0.14109185707872474 -0.3122514800771074 0.058435261318757425
Ni 5.296471183273994 8.783994261248978 4.695115128198695 -0.06267243932855658 -0.08212360607463276 -1.1575186136307098
Ni 1.0069982882989734 2.2632578991681345 9.695965558207918 1.8024924400447666 -2.142358853625665 -0.4283578708550881
Ni 8.805265080707699 3.034977341590432 2.281767504437845 -0.5026380696259021 -0.32699624248644976 0.9261866920178049
Ni 2.2283388454866624 0.4328022193269481 11.651817871663026 0.36120939803304886 0.8937013177955898 -1.4143787614217063
Ni 6.1613699989340605 8.62340932307436 2.144153380066293 -0.8157647532191112 -1.528006351641891 0.48148277570452563
Ni 0.5834220896163429 8.811857084992157 9.350741365379566 -1.30831098582665 0.14754429757228782 0.10817967973173628
Ni 4.309573865786077 0.8523368694672908 6.751443513718551 -0.27309409315135547 -1.4564978020789432 0.12540504247108725
Ni 8.766882903648618 3.2787793704715193 10.830563695073915 -1.5598875166212038 1.189232656904539 1.837903729664525
Ni 2.7839333925095175 7.631786188430404 10.303045515595002 0.873420970279999 1.9849806006820914 0.334266808005934
Ni 1.7152952218943274 4.417218510397347 10.563298773196696 0.0405043878719496 0.1831705314163297 -1.0034956503126136
Ni 6.770805437288703 4.505504945243695 12.740160564380899 0.3615698666962612 0.2589160018787605 1.0550334131805894
Ni 3.973706605236424 0.6355425606750185 2.22757473006045 0.46464256421873523 0.6535155453364809 1.123308286297588
Ni 7.880165482258304 0.5307733297636031 1.044298819584619 -1.0641307474961674 3.508794511509189 -0.5843716393509678
Ni 8.060693554521675 0.8734758488403234 10.897733433378614 0.6238036200943451 -1.0106371464534014 -1.3586562710484213
Ni 0.5454484311326365 4.070089135485655 4.389299051124399 0.05588961207876826 -0.6439818948144329 0.8549306247852954
Ni 3.1167089102046295 2.5542345389919388 5.445625957399884 -1.1097547159828693 0.5224329928646422 1.5313706401284335
Ni 8.379876545072497 7.146549681502787 9.976193517242825 -0.22084490603865192 0.8294484213537909 1.9643914636768298
Ni 8.923187681294877 5.388824234847936 1.3796869992595144 0.01741459593202162 -1.4526205785117239 -1.7558027492977115
Ni 7.97796854300827 5.481734357206482 5.680305023731806 -0.23049862707833205 1.1923285222210431 -0.4026609803096162
P 5.440668955868234 0.5501538223599085 0.6299885649525361 0.5331375237663399 1.277182896963278 -2.203323052013863
P 0.22748542560009338 4.623334700700106 12.657499616007723 -0.750977581540397 1.2609828901646476 -1.6912413204765582
P 1.2298080331136403 3.5565812862394854 6.552775359805922 1.1953799074528573 -0.8076007293510802 -1.1335510470715187
P 5.23394927221549 8.539978688567126 8.399265393730571 -0.3828742846009922 0.4337633581413755 -1.9971791996308121
P 5.50658899871281 4.637410022524383 1.141437109198294 0.4917203942721338 -0.4899100805362724 -0.5437456382994894
P 0.8666145936766414 7.035293361304681 1.6752297626144403 0.09983387887020226 2.2551377226923095 -0.1477787821805971
P 5.772803842161053 6.628018910682122 11.216432700798139 2.869573271308193 -0.32288967651724393 1.0666779393980532
P 7.979621186335923 2.1347323846473647 4.4285428309969985 1.2536912415992407 1.880427976179981 0.5026997761017729
Ni 0.22685872096741608 3.992786279609044 8.307799013155453 0.34127512100296714 1.1066130850300941 2.3525244255736
Ni 8.102130336382992 3.4338400233655 6.737610517685575 0.33767994745254104 -1.9379396972432046 -2.4068801175063452
Ni 4.475014604299809 5.848639744971546 2.700792434810277 0.6843214749737441 -0.8604818936208277 1.9591875508783871
Ni 4.857592250138344 1.224543714199151 12.098822610643403 -0.9364307383433162 -0.5672712322252553 0.4855237785431186
Ni 4.223487860538907 7.5547061608676325 6.4809308691671035 -2.438777480435574 0.8787506100230285 0.5893197273848625
Ni 9.283965290429318 7.726386092168908 6.998148809838724 -0.04192749347172134 -0.14401648692468744 0.10251605368805572
Ni 7.632900329999607 6.46547494024832 8.137150591256999 -1.0634694597630845 -2.3711582386247034 -1.907479323870818
Ni 5.404542915486791 5.858824855816687 5.600103542872649 1.616695012528551 -0.897090545982797 -0.21606008305549887
Ni 1.1905809653645794 3.2690584852802136 0.35950284548901035 0.09920164460284206 -0.19654026785501635 0.3576869867020872
Ni 8.483473141982325 8.511298827673198 2.6993923302383105 1.344359651920091 -0.6593555490570258 0.624031676944751
Ni 0.7229488236816954 8.065790752200783 4.610647413580794 -0.8347222681582204 1.7015072211789408 -0.05465214012724136
Ni 6.352798089549478 1.682251639854349 6.870305707029091 1.4157967248151553 -0.7358029306824876 -0.6123352144434293
Ni 4.279269215103725 1.5095596966277136 9.799172205568524 0.25405713112456246 -0.6176867085633297 0.13160577196516043
Ni 6.496169540479893 1.408488487274748 3.1557187203476955 -0.5027535121578438 0.36239827613482745 0.10524502258344454
Ni 2.672472813023724 5.0383060126632495 12.663777803750188 0.5411164282067584 -0.7611936028414503 -0.5178721129668371
Ni 1.65528941387961 9.05645758199784 2.5648355960229163 0.14373855067295246 -1.0382682779071088 -0.2961954550555092
Ni 1.205204073460383 5.777381107107868 6.667954386778935 -0.18031043625971527 -1.2164727235674146 -0.5826572277630223
Ni 8.090886791047106 6.434418244006755 12.077977021883594 -0.6194116616742364 -0.9558420529903927 1.5276481969715239
Ni 1.7727477888129521 8.145776832356562 -0.2746219700391959 -2.605496808274416 1.9218183662013093 3.3580787581874554
Ni 5.188993659898104 8.500157411981156 10.458325282997594 -0.7029815132770925 0.57264303806013 0.025890494613516703
Ni 2.7855488977848637 0.17283956698455524 4.746576398828925 1.7629959246120415 -0.7437201286470353 -0.07854848712886472
Ni 8.100737659421487 1.8954983362000142 8.62421429035811 0.3407308184637229 0.7075421360645815 0.16616936887264286
Ni 7.335582367744416 8.932230797031584 8.78204915575941 -0.172018114343936 -0.14903528029551755 -0.5520189340518751
Ni 2.386324119999804 6.086601815127388 4.328217168044092 0.6767143520504474 -0.22845794249921947 0.01025124541436299
P 4.577543482205817 1.5827495132113463 4.251820480643767 0.39495204170113274 -0.4396817805083395 0.19295126495217738
P 2.379054346260747 0.41675486692517844 9.35036070034342 1.9368747463137996 1.1047482639072135 -0.14662384264054748
P 7.0024633230654665 7.42185406325312 3.791771000790625 0.1443946961997126 -1.440481372046029 1.1563281928670344
P 6.523373163794626 4.618506753900221 7.284152664458647 -0.8538160515648779 2.0946240094435478 -0.361055646064004
P 2.6103408515144424 2.57260859037073 12.324559762431154 1.0221664872492395 0.057384451456739885 -0.2935572461017138
P 8.645227928804607 0.40290980102520213 7.060969682218297 -0.34487672231129635 1.3459784184704369 0.4169802251457657
P 9.198566339149824 8.415036996093963 11.617818913227454 0.23994665986510932 0.6766852985847249 1.0293542632469306
P 6.6231445413168535 2.5114143646821945 10.238485653916165 0.15782382512142495 0.04374809162022788 0.7666656816996151
Ni 0.14439831807669753 1.2172739404600943 12.865313943752211 0.4411516801856467 -0.23024563052726155 0.05481283407482173
Ni 4.098982540180349 5.670989871761952 10.567062714797991 -1.6834277379694107 -1.1591288955406231 -0.3571704520769849
Ni 7.028729210559453 5.053161233585971 10.253365014572886 -0.7966704555918215 -0.40218686888667504 -0.2865805576735645
Ni 9.306145992169556 6.297388115507728 3.6182685195723936 -0.7285341649352163 -0.976357656445241 -0.8851860812357273
Ni 6.664247080707408 2.6978566717754244 1.1540101968067624 0.518931664579603 1.0046390198884376 0.19231877357450103
Ni 5.224831880374169 6.501953792126677 13.40287425257488 -0.8244154869155738 -0.42717979138658696 -1.7902534747764136
Ni 6.449765544122542 7.859442449071108 6.65163406969271 1.4874636543328383 0.43959744832464936 -0.02012530999496534
Ni 2.4894472067427205 1.1444183663472227 0.4065289042225001 -0.3518834926464327 -0.3566037809402375 0.43186896933214014
Ni 3.5601836773132454 4.686200138742446 6.772329954335898 -0.5508817351236384 -0.018955715166896387 2.1674569342448735
Ni 6.006012241621626 3.460690835183319 4.9676257999642495 0.9367595824376447 -0.4835944227308897 0.563931626329061
Ni 2.9550098304608072 2.316226046270713 8.01695699877126 -2.049533801973128 -1.2092147564534206 -2.522565104476191
Ni 8.615898151995308 8.005747806133758 0.2161072548245965 0.7757858988333284 -1.8232073039946148 -0.2969899259323466
Ni 5.046485668683823 3.5847412144011193 11.347292341906392 -0.5058100395959805 -0.45291422003821347 -0.525617561240211
Ni 4.455749239665655 2.5572334367157135 0.5027257442101976 -0.4584420918349782 0.30836988563451406 -0.7265726703334712
Ni 1.3183822878653666 6.6512673314261805 11.670216991227123 -2.3775080921021314 -1.2087884675492795 -0.9495194532064744
Ni 7.54232990493639 4.832941867919703 3.2568744187696588 -1.631176493974178 -0.3717614625172823 0.5255622825222432
Ni 6.570547774737343 8.749901529231332 12.29511300075709 0.6119364363431138 -0.38463857559026665 1.3650824862897395
Ni 7.0343370564577805 2.1016609490681564 12.463315881911141 -0.5195793254659311 0.3181400776474005 0.5098435862354057
Ni 6.822705865387461 6.438429153655891 1.3916584504206124 0.3220052170297616 -0.13553955980192786 0.8738498302873016
Ni 7.763524144475712 0.07321488476893985 5.073944616108166 0.2125808662576468 -0.46288881475242216 -0.12310956156869121
Ni 0.825660606495314 1.2228260792799612 4.932974140259386 -2.263684069600424 1.5345202415010089 0.14353466219226246
Ni 2.3906135650412397 2.300785901024159 3.2686286123247625 -0.914186068012503 -0.09499634827224285 -1.6777638548154135
Ni 3.9452959952217195 7.6234394111744495 1.4553223565875502 -0.7180736317235246 1.2590597050000056 -4.404983628723639
Ni 5.476516460857376 3.1617016605743213 8.457765253724247 0.4980792466106261 0.5162214647372916 0.12070095212719859
P 3.5750760362882734 3.6918380727408633 9.241052270988806 -0.13950522931789522 3.3634909303419622 3.008833731605134
P 3.5200838653349744 7.797951118964118 3.3382578181434805 -0.1556926377110351 0.6964871638020005 3.0170792594433786
P 0.632046013050333 1.3820369095192273 1.628987316784624 -0.2793686133061576 -0.8567527655956986 -1.029349378150924
P 0.5655076216348487 5.999318107693323 9.132925760148856 1.2527450756358878 -0.617591320636046 -0.8581578734733414
P 3.94912121460932 4.459500182948642 4.789149605090829 0.4530106364067617 0.5758872560290405 -2.6889723003912533
P 2.1325319550481865 7.654319701667556 5.968944751614205 0.7642789266349934 -0.3165552496587839 2.480011033164064
P 1.428570889059652 4.260003850469571 2.3607861383310307 -0.056669941888218535 0.4315658362694245 0.8832230439720853
P 3.2868197587959425 7.225022386027062 12.548911664867862 2.6546375316651245 -1.8229501936784864 -1.2943956612971388
