# total energy = -340865.6598053156 ev
CRYSTAL
PRIMVEC
9.30975486963118 0.00000000000000 0.00000000000000
0.00000000000000 9.30975486963118 0.00000000000000
0.00000000000000 0.00000000000000 13.62576729614399
PRIMCOORD
 96 1
Ni 5.105441619254869 7.476263784145348 4.109313679077372 0.19558767413375994 0.23988006829323208 -0.8631262732222102
Ni 3.1361305606527594 4.243432800078165 11.907421273532792 0.10664781646824215 -0.6513007970733493 -1.186941546877517
Ni 7.225561396340685 8.792467612190787 2.837415905241195 -0.36822979521494004 -0.5474305433502443 0.25435255087779424
Ni 4.520937972037072 1.378337131777783 4.518127357054034 0.9557775183010443 -0.18544107261806128 1.0435110143632869
Ni 1.9049620332203332 3.641640938141914 9.373533166950033 1.139010527524193 -0.7106056054812536 0.6604791211385077
Ni 0.04780186714775253 5.2949509885649695 1.19256842195819 -0.4809574993286749 -1.4248089556160946 -0.601033416277365
Ni 4.1751457484034935 7.585094818102663 1.6517832506310117 0.9223526629836953 -1.1431556600408184 -0.041350280812012655
Ni 1.3681057112201196 8.922441099365985 11.62863880321127 -3.0671566357157434 1.0726452127250818 1.8487540421154678
Ni 2.523139063656573 2.0044274538191313 5.893703215549376 -0.035681255451693386 0.5171540038538901 0.7516355268393701
Ni 7.471329614085692 4.353753394808205 2.3683895259535213 -0.6678494454606498 1.0507363284671325 0.9443970443782446
Ni 1.2182000389548775 4.218203364490113 13.030158155490092 -1.5717580428065445 -2.19617795632865 1.2957678590543167
Ni 0.6951165682494843 4.92028921520499 10.891934629162751 1.4089876723131218 2.4040107663783497 -1.3297907529669808
Ni 0.16883798968659308 6.423432920227578 5.829961186182486 1.709417991385585 -2.709089125745786 -3.5624300374464584
Ni 0.09191614040752454 5.505435235506025 8.528394554499938 1.3375066335539998 0.9561341303095147 -0.15910783404017115
Ni 8.843243015031094 7.465483088052742 1.4263587091395127 -0.6213469310237364 0.8860630845240417 0.5807342997086967
Ni 3.315790209353209 8.61357136338636 5.740058745744592 0.02586735468506513 -0.8834037925243237 -1.1497929628516779
Ni 5.292865603483153 8.699081461495677 11.42983829858129 1.2861038536019915 0.8275082669082845 -0.28974764254763646
Ni 4.770169418578669 0.44370943200422414 7.078995133132798 -0.5546116344797157 2.0115634933769417 -0.8308720411741949
Ni 1.928227110539352 6.267680721929385 12.762602318517512 -2.5601816292773845 2.859221238649908 -1.1803962895598314
Ni 3.326822268826213 3.3845148195048678 4.002909698204118 1.3194091526223404 1.3228644581607927 -0.47915644156419407
Ni 0.45373603795563794 0.35695089577226435 2.0823575495462388 -0.46136697879125704 0.33371530637783814 0.21024219082214113
Ni 2.9158617613858593 0.3188004514562952 0.7181898646190145 -1.5558179745375205 0.6189154387641083 1.3841634141805903
Ni 4.422980731720659 3.9601276508604535 9.323853522253163 -0.05052371978116459 -1.1640805831189436 -1.1895211346792354
Ni 1.2557928289565574 2.159732783885506 3.53500048949599 1.7362294551514745 0.8119448652523887 -1.0577405276991074
P 1.693146491338655 3.6715531804092234 1.501614112304094 -0.198814922821806 0.8986226663566073 0.9683913504103129
P 8.530342155210278 0.48325820149559 7.163092941434476 0.5986008955764723 0.7469044399122878 -0.036080804882957215
P 8.422963443006372 4.346724529911903 4.379839327840575 0.39174330495584797 0.041630531056592826 -0.0033367776827168336
P 4.623010123988141 2.6790774570513562 10.861153786769846 0.0930209697134269 -1.1038992856433567 3.2952237705344474
P 6.811966228283571 6.74083970138589 1.9468084502036294 -0.5398591587608896 -0.36150764599975804 0.8953067146094968
P 6.572286590197081 3.0546422766298016 8.887433628280467 0.28536031211321816 0.120651844056818 -1.092384600135538
P 9.185274097713538 0.7959002501321449 4.291122019192479 1.5908163449895765 -1.7621819133511782 -0.6577686641858801
P 4.314624495259651 8.584375972240924 13.348414917264341 1.435469263543418 -1.1612186881901163 -2.0167990307442687
Ni 8.119279240466799 1.1396070886839067 12.803820327049815 0.6087780932197903 -0.13967286524401107 0.3580471982549834
Ni 1.8024709423019352 6.7928067528443785 1.53859432043799 -0.832082259432212 2.714747609583144 1.3573468082083784
Ni 1.4598254158007409 -0.097403309904055 6.811316407396468 -1.0939732847788968 0.6795819034062297 0.754224627722785
Ni 6.629727777495338 8.401541697143601 13.647432139707865 -0.4230737396380133 0.4587071725709068 0.581672752362566
Ni 7.6625426685296 5.137839566061665 10.05220498426862 -1.1638787515207827 -0.908619629668319 0.35050949511704155
Ni 9.084551860212752 7.627249387970816 7.389184992347253 -1.278152717075715 2.9946211875501776 4.369619390291732
Ni 5.118372868713098 0.47381438619650534 1.3556576380375425 0.7512760866174223 0.2725608463557048 1.9627868381938711
Ni 1.3886709596385718 1.959489267256945 0.2193015157401109 -0.6788481105639986 -1.1645477525633492 -1.932224134915666
Ni 6.152844896107018 5.247973965695114 8.22940433034542 0.42510902490048724 -0.2526404532826939 -1.4724062457790836
Ni 7.5249538019038384 6.645451953402431 4.204476130993957 -0.14727356040940442 -1.5980293177982479 -0.6288792348450395
Ni 5.749983875368363 2.456118138638719 2.5279065891047803 -1.5469214433788392 0.9663617215747938 -1.430990401836458
Ni 5.331445227496764 7.462718090868369 6.71811645179795 1.8724246462595302 -1.015946731591773 0.21403122555092818
Ni 4.524270864266047 6.040206172424422 9.69733574967624 1.0389941003295395 1.9768646564431762 2.607878678243031
Ni 5.3546823755512944 4.583899843949246 12.032370286026488 0.9551167447885938 -1.6200801269507004 -1.324432831089177
Ni 8.621214672101411 3.4108893549369523 11.61152468090813 -1.2070555440185728 -2.1566575296365245 0.5974930072242742
Ni 4.079059768807818 6.619961844679152 12.145286440403003 1.4073673631008794 0.4164091831336441 0.7421265589076703
Ni 6.61998977394364 6.551646863739993 11.48562234951989 -0.12251049453211159 1.5881315990685616 -0.6069585235125483
Ni 3.186040156293919 8.378164902766628 10.743331391598163 0.9682620239213002 -1.1164089880745935 -2.822733428136519
Ni 3.2313600428041167 5.483138372689278 0.683178669631566 2.7588656829482807 -3.01804676556297 0.38555568808789725
Ni 3.628439705793627 2.886098475195822 0.7312253833313355 0.19516704165657356 -0.2524872155342813 0.03230128323586695
Ni 8.036040722535887 8.650884860743153 5.232840028244215 -0.656194891940857 -0.15632667175060821 1.209447441289517
Ni 5.090303957902037 4.951970310889913 2.4101940490400846 -0.38289691030881157 1.1088034078131936 -0.0965714060688466
Ni 6.231354058584523 5.973706593677022 -0.025729369422397785 -0.07553772532699893 -0.3382021385045982 2.4532080540386074
Ni 8.17786552760909 4.162670676931911 7.169755932965977 0.24006055973515433 0.7442968270861117 -1.0241035563709524
P 7.30811099241421 1.0001562710922374 1.3375799561095432 0.22784113485082697 1.1076993761157374 -0.5121516655432922
P 7.48046248357347 8.819000413454972 11.126651236949614 -0.6407718725175674 0.82561979163632 0.011567907343257498
P 3.5367479304774943 1.7160671077289806 2.623995361626904 -0.18804714278234066 -0.9622716106658201 -0.18518884739793914
P 2.4056685772174458 6.667348496761508 6.330123109522071 -1.0597009938595878 -0.634876590079055 -1.55966794441123
P 8.507952194845235 5.519390557995504 12.336278853657452 -0.7042069010437614 0.055905038697735984 0.7023469650168872
P 1.1951770152614267 7.670288384547777 9.444304992188709 1.0729827985701585 1.7562832884785557 -1.2494154970420224
P 5.824164001850132 9.13290672679738 5.33267597708523 0.5186025633749585 -0.05816838081061595 -0.8100489337812565
P 4.815386897785741 8.521525817386703 8.794042822707944 0.18238274540771168 -0.7425837010497469 0.9696051682127558
Ni 3.205544092661804 1.3621847071485325 12.000526269632049 -0.4297388103630147 0.12218370732031215 -0.45071104173930765
Ni 8.963860198602605 2.7741207441061233 1.570301483436435 -0.29427355544244804 -1.0079084346683285 0.26306756215328886
Ni 8.739178575546504 7.169228069867142 10.340199456993968 -0.0588630928847954 -0.10570653560089537 -0.2311807407470212
Ni 1.7805557794331996 4.504459705988788 5.328764949081339 -0.2685398981217698 -0.20770322645037131 1.3614081227619457
Ni 7.504006853537375 1.8656562483300183 3.7089337080007896 0.6779649366280969 0.5674661218448808 0.39578739311823447
Ni 3.052947901250825 8.917041441564852 3.371150666447064 -0.10712655587687356 0.15749240992393523 -0.5307975627792537
Ni 6.746257978696682 7.533704971443606 8.981628796670263 -0.15683266485274927 0.15510514063868125 0.010716872196871865
Ni 8.775104919433696 0.23685692042217318 9.47932363498002 -0.3267355326258954 -0.38075518137546044 -0.2611909139558663
Ni 0.7924835701097042 7.995412952459778 3.85227693408669 -0.37029953325977516 0.38127531554498856 0.3992347282368866
Ni 6.866884472023023 1.7232076896832373 10.752256653553243 -0.6427683341223059 0.1943985389216652 -0.3484407855134709
Ni 7.488031314249885 3.7312287088665705 13.540033877018816 1.1691245733007543 0.2395082867761101 0.013935893354801807
Ni 6.7348349095208375 0.8022383312200955 8.314252504886358 -0.18170757371755802 0.1811499014418751 0.7107321037567889
Ni 4.331531010030095 5.7005304577138505 5.475473651538119 -0.7695890259939973 -0.5899234224071325 -1.3135904890580343
Ni 8.758803538727172 3.324494830118828 9.348053298957067 0.6577267552043512 -2.2174682331659943 -0.9714051975359723
Ni 4.481557709108121 1.3057024245977173 9.237493443527907 -0.5518052753791722 0.2561885756452684 1.2921678004078845
Ni 8.609139920087499 7.721864426303425 12.587238190695412 1.3696981306848799 -0.20783409560128077 1.400114538193208
Ni 0.8502059120038137 5.623510856009072 3.618363758141617 -0.2587367959884189 -0.2672512612173333 -1.4368558594782996
Ni 9.32753646126373 2.5740727323289825 5.484943534150725 0.14456567455993813 0.8859371004691386 1.5418715396597575
Ni 3.4286337476420545 6.954545123497966 8.086102998156251 -1.2263035936149076 1.3274165963078495 0.0156832150632117
Ni 6.257570328184505 3.7946653782750515 4.67275214404237 0.11339464827377246 0.7319876707014554 -0.6934463200931477
Ni 3.2803293532074935 4.6021842024344615 7.269905620544746 0.13097173792558733 -0.026841545672876353 0.8666558836420236
Ni 7.137193203498697 2.3341603503717545 6.428364297360784 -1.4206897912413985 -1.481530576677855 0.08694211050919864
Ni 5.487085708737002 1.5937927877978113 12.97006834294283 0.5658285862414577 1.0089952399746043 -1.0595166457629235
Ni 1.6780553787599717 0.7910517298169208 9.49996708533904 1.150267331384935 0.5010236739509306 0.09725094863437445
P 3.174328484718359 6.413238738689231 3.304316867501284 0.04349560928978961 -0.20430217118862232 0.09842311456560468
P 5.538540723679866 3.743852736415426 0.42448851218315725 -1.1497153155362072 0.6104660224451744 1.2788276316555525
P 1.053110156562657 8.653631238417866 0.2927443096393806 -0.5421788080330017 -0.7492109765582774 -1.3625700042805309
P 7.458975569426894 6.3151790910696946 6.596369994965617 -1.1602429545404083 -0.169822649354514 0.8178707438185205
P 0.8772768170971481 1.9807434375327833 11.408868075827753 0.7908700468599605 -0.7811093679287708 -0.2809814663192322
P 2.527393621613672 6.104564507561027 10.59040935876815 0.5793942407410344 -0.4329786574565511 -0.007866290121954193
P 4.676913604451173 3.484399179070995 6.036746667529765 -0.6545051629432599 -0.9222896709562438 -0.5456433695428344
P 1.4225770867277538 3.4807497551778157 7.395820985589747 -1.6485070148328254 -0.8148502118246418 -1.5660733337169417
