# total energy = -381166.0790140988 ev
CRYSTAL
PRIMVEC
9.34055369783606 0.00000000000000 0.00000000000000
0.00000000000000 9.34055369783606 0.00000000000000
0.00000000000000 0.00000000000000 13.67084449441813
PRIMCOORD
 96 1
Ni 8.512130444236016 3.376348544718511 11.790966412870356 -0.022652961512825504 -1.3231372522062053 -0.2678989221036612
Ni 2.5885008809952565 7.494365056793508 8.77684639991611 -0.8779319707764751 0.3054856221081836 0.6356736320590536
Ni 5.550474452024664 8.356899786080815 4.615645706972893 0.6715770308238822 -0.2961982832689867 0.5658494121770642
Ni 7.368491758201565 1.5831210674569418 3.289013435697694 0.3467451429786028 -0.4067824586771575 1.3581261095765642
Ni 5.284091207549775 2.4256950339740664 1.8620645541859557 0.3067012396828395 1.0355454796593069 1.617165010186434
Ni 6.197279758317054 6.204061000137902 4.001675248301479 0.3111420490630125 -1.364455908449334 -1.6970088190879549
Ni 2.3734906806177016 5.856256151045473 6.444517670339888 -1.1430474165977282 1.4429730281196311 -1.3691669407717582
Ni 3.2753211183627338 7.038723517864037 0.7891590774307573 -0.5222656140488424 1.0932870573451494 0.16461487990132942
Ni 5.370771543772188 6.6702200022771185 9.18503045476381 -0.20316188693659207 -0.2994016206976327 -0.21769041957007024
Ni 7.611308786265987 8.207208076134654 3.164595395336727 1.328421640533596 -0.6491670385597981 1.5765649772768848
Ni 2.40259584523721 9.128121264623477 6.984325068497043 -0.408723127343296 -0.47401603501383527 -0.3616212887594869
Ni 1.37699373343149 4.083092182642282 7.52939493448046 -0.6969923855731932 -0.7067738904399893 -0.660585821919701
Ni 4.187398143266816 7.1815312399011555 7.185108671881024 1.0154533368951222 0.65710454823932 -0.4999741496404938
Ni 3.088295216188018 5.507797463209988 10.0020411945381 -1.4116845024189946 0.9862859713025465 0.27331392247164543
Ni 8.257871238168098 8.422208935958736 6.147764550305348 -1.528218467652697 0.9659657716879557 -1.3557709790808266
Ni 2.533074036690968 1.2534742543145527 4.075346995703098 0.9620718359501884 -0.441612164761833 -1.4005858214026716
Ni 5.607190292708122 1.1576308351358704 11.216353310309582 1.378524213616942 -0.42120377630881006 0.934120859263217
Ni 7.843701756655385 5.019912333694335 10.190821252654903 0.38939537354896164 -0.21047230455507623 -0.4042206114872522
Ni 7.83731281808037 2.925283876990439 1.3563838021949866 -0.21335759652267125 0.38101923367012447 -0.3211557245452727
Ni 8.783622971460222 1.1818415497359234 9.469725854321032 -0.01570738343292779 -0.005929735220873659 -0.24061848912115336
Ni 9.26740759800156 9.11680051381512 12.432443867462178 -0.07250356648636545 0.37576826968383026 3.9515701004515047
Ni 0.30927693413012225 3.5519416094432015 9.501824666328394 -0.14623894849730298 -0.6796292117043974 0.5836278192064078
Ni 1.433139800353141 8.79694260071164 2.6712834042537015 0.20997299632115451 -0.5755825803044281 0.6673529654402055
Ni 8.70885184091492 6.5520246386393595 12.101745307998815 -1.1288981216805396 0.26619016694267056 -0.01000699061404083
P 6.567931601202589 3.2123097446389846 11.151540143821036 -1.6704583222929361 -0.8522116831922356 0.24883650615557143
Ni 8.417660086417753 4.84384290074256 2.9184381853506323 -0.6546820548407564 0.6800660421314997 -0.9208112866385045
P 3.656733278848292 7.457460530024677 2.9418698977910998 -0.17112619865728593 0.2896519975100367 -0.49523714917614065
Ni 7.451071591449662 1.1550435018240592 12.930376630347922 -0.5217948450600111 0.3278063970925709 0.5753496383580156
P 6.920546835333222 6.926366000146429 10.578786745456586 -0.08904553000544664 -0.535679059241271 0.6920108731982018
P 6.106937925133522 4.596477023137157 1.9730854387016852 0.6912539404275192 -0.007380865845103418 0.6375281687692891
P 1.9212958059194885 7.716165839545383 12.372223451115934 0.4638213538690205 1.5428876396290976 1.4187002716151953
Ni 3.654117923876064 4.275778460221176 12.02923552544914 0.16286755819291948 0.09597311036321536 -0.7686135494546054
Ni 5.133521485577222 3.765008974698529 3.9366696664114054 0.35406867322320956 -0.7058562637217263 0.017031758671306154
Ni 6.885491738151895 2.7847926122144364 9.145822547508724 0.8282564579282187 0.5347943426434725 -0.7772493707527324
Ni 1.2982622082139563 6.054556101261186 11.35580964176086 1.4539655225753927 -2.0055378560081523 0.23930105586131045
Ni 6.105163219973796 4.745402807698595 7.930675386256825 1.0670458642604332 1.2490092627425393 -1.0149977374149424
Ni 8.592543269078554 6.549726862485188 4.688894327302221 -0.6765824544582735 -0.3112361514387156 -1.2491632718219001
Ni 9.303602242706502 6.45973062978013 6.77224873596512 2.9047068817865327 -0.02118409027678287 -0.028595809359821717
Ni 4.4324288825041585 0.828911538953275 6.200123956849352 1.1045047804378398 -1.4895616745124474 -1.0786667363288132
Ni 5.078272111788908 1.0491309660022994 3.915930835536985 -0.6986450906852678 1.5995205576317937 -0.7013272655031211
Ni 6.7791775585308285 7.3997078879058 12.941176178272528 -1.1180568080906617 1.1334147786039706 -1.8069931561285977
Ni 6.469622275907234 6.574105707047741 6.2664278756720675 0.8241889727270644 -0.656160953379128 0.08963688373254239
Ni 2.838921119586083 3.0973462125026217 9.51456611531988 -1.3773790442689053 0.9613570692713508 -0.23696546574959837
Ni 4.46350490390631 8.724581332962178 12.830251501457562 -0.014550387010349134 0.717744787629196 0.411522287354988
Ni 6.284315035571412 0.21308604636227255 1.9811379298501057 -1.3938047939250964 -0.46102630762238667 -1.9753330502899977
Ni 0.45554626528405395 2.228553312388912 13.668001072106273 -0.2035084716427334 -0.556639463543022 0.5816321289326176
Ni 4.9443192344434745 5.340807048233233 13.959572053074414 -1.3589979706585562 -1.164407627441059 -0.39011553954443784
Ni 0.3467661795463155 4.428692661115261 4.881147203200003 1.3115634313256765 0.21422740072213428 0.9430664984922791
Ni 3.311160822035729 2.780505298170677 0.5017689281967941 -0.3716650461487341 -0.46815597668863246 -0.2867268534434416
Ni 6.532260027492094 0.6268492137989433 8.377562024416763 0.08611987171821942 -0.6070940206491481 0.03191716042357084
Ni 7.452762231628139 5.259021162030275 0.1215075238990163 -1.705589104557798 0.6825942078699921 1.6705177147759618
Ni 2.0934515469663935 0.7156162296670544 13.154838536784037 1.4138195464841266 -1.761175840684167 0.5080978071888927
Ni 7.765241107488546 6.276861273900561 8.231816698312624 -0.9806588549237562 1.7450239135146528 2.1319024341790316
Ni 0.39062381431988386 8.407264050403148 10.551445077332637 2.4459567717928326 -1.194487220435259 -3.5089426070512792
Ni 9.394074843638643 4.508909334334882 -0.19883049365293576 1.7528228407337814 1.4389489945619025 1.7754531765387875
Ni 1.0553517746148129 1.876171592095084 5.590964817271489 -1.0683069903610443 0.7775478758297577 1.936647460794342
P -0.1044815630298123 0.4242143127167631 4.489381973245811 -0.5261312676518358 -0.18577583024966068 -0.9497840197217707
Ni 2.3221082959668946 5.128692419432073 -0.014716041995518363 -0.44743931296657136 -0.18134607661308122 0.7678126508198647
P 7.783193651262197 7.886173253293672 1.0766734560259013 1.1696125686807664 0.27080683977907555 -0.3257258604144584
Ni 8.306918484450843 4.410076938045082 6.981111918102591 -0.023112931868379552 -1.9221466960750058 -0.012457766147378545
P 1.943442258202176 1.2756300471507123 1.680529963397572 -0.9414852700480884 1.1805662394787928 -0.1824148841972278
P 1.3657010042835487 3.6364736183669972 12.069728692862007 1.99344827183347 -0.4899188222870207 -0.9172104566611237
P 5.2224715762933895 1.1128055190225778 0.23954876840448333 0.9004052121783267 0.3481386808920198 -2.0481610899953178
Ni 6.027356409550015 3.2491769091939267 13.394160329739147 -0.3442979669896909 -0.8440983100564817 -1.0292519333411114
Ni 0.026585083292697154 2.7170268967733158 3.3006751167077892 1.5667053108739857 -1.2533096898901062 -0.31176811268278565
Ni 7.553359992524193 8.864586888957621 10.884821573476495 -1.381457585213653 0.9428425554069311 -0.28634812994778425
Ni 6.677402887897274 1.4467956895295597 5.789329217306159 0.4282136319677399 -0.9065493774028516 0.4825379564419174
Ni 1.3820282917530289 6.261197165727611 3.0668352945855406 0.14797187202800968 2.298597336537841 0.8316515996526967
Ni 4.590106765669088 8.740974004305961 9.569344725213195 1.253417933333196 0.6710982914152508 -1.1243511257398056
Ni 5.101016359493818 2.9318876482953145 7.289759298928685 -0.5566847149586607 -1.3018397762800094 -1.5920962401432646
Ni 5.666689618326308 7.248176088925606 1.2077270255735497 -0.506218844998625 0.8565326791650926 2.4316377840669996
Ni 0.13452918949466983 8.774674721233813 7.949459239289505 1.0063326055407764 -0.30307058490878774 1.1023573950775336
Ni 3.7184649967463437 9.424992075631765 1.3855263290283837 -0.040578692753310754 -0.4696749844363202 1.3158373761106823
Ni 4.65871313092271 1.8321308824734597 9.302872745480318 -0.2220515247522434 -0.6664916458811748 -0.5430090172437809
Ni 6.076945407934152 5.162234346950896 11.836422216343024 -0.09718795660692295 0.8443731609844232 0.4267735570871037
Ni 3.4447774394561606 4.458741221635466 2.4023231010758206 0.5338314645095709 0.12213408502929934 -1.4852566193791905
Ni 3.522191946634108 1.9902197499911674 11.515444370878223 -0.5799717105110592 -0.01921231126239272 0.6093985004126086
Ni 4.437323332523613 6.910440356476256 11.487501171110662 -0.26513164377116916 -0.6769076990081762 -0.3708438357990194
Ni 1.1260317427392732 1.5121702232817864 11.224760742489948 -0.4628109103266351 1.3817645749311107 -0.11006969766559753
Ni 2.970473474689149 3.583073674166186 5.650406231458147 0.5440261456543857 -0.42533605330962876 0.14334748588212085
Ni 4.999279051074151 4.4861557460764985 9.85305563043444 0.7050702774853211 -2.466983253445829 1.04902834463709
Ni 7.415493423273891 3.3206414838100553 4.7564835062827155 0.22101845550203872 1.8963063379731342 0.6158527406783846
Ni 3.312020152955175 7.833950218830363 5.098528036048813 0.10164444971637977 1.4043146923174847 -0.2531148218159512
Ni 1.9740886141446041 0.8430755542385837 9.134939868658215 -0.3627410041862269 -0.11898474076704024 -0.820480927747858
Ni 1.119287863132314 8.027972195555789 5.202863886444458 -1.1400723931298045 0.24843618539335924 -0.4342966049370262
Ni 3.765008974698529 5.766577497158471 4.3687646040927 0.20600449859170974 -0.9158855672021129 0.7388502021492437
Ni 0.6143580916405131 5.994150741956193 9.195966374769112 0.12153064711734551 0.06232379773988621 -1.1766805312711413
Ni 8.774207693560202 0.5361739228564528 1.5342653025203763 0.3648590789704942 -0.16023500566607887 -0.46449344023538064
P 1.4101620388114238 4.329972351467129 2.695617414159588 -1.2377959105252232 -2.1574612564847424 0.04348249666366705
Ni 2.9400419514765823 9.1083940156901 10.900665954331458 -1.2074311821904367 -1.051515886945634 1.645619151762069
P 9.138059613517944 2.2768346332869345 7.594946938748659 -0.14600497810962595 0.7815924782127764 0.3041612468698052
Ni 3.569987558751574 4.773583257524351 7.946109716814359 1.351505004715621 -0.030511538325295837 -0.55324457892886
P 5.382204381222213 4.726544230238137 5.851272031712685 -0.6489644356306887 -0.41441683529396367 -0.3701421817463044
P 3.165195992924992 1.7593119276038556 7.473098484647905 -1.3907312972060952 1.8978130044256478 1.2093188861314528
P 6.139116131845399 8.554340405377081 6.852442057801059 -1.0737410168924217 0.9407357934765733 -0.21899988241011312
Ni 0.5783708072226564 7.136556474932307 0.7098120097394028 -0.33228603013047936 -0.03474151724624339 -0.32855381678155676
