# total energy = -381174.84246979706 ev
CRYSTAL
PRIMVEC
9.17803784080764 0.00000000000000 0.00000000000000

0.00000000000000 9.17803784080764 0.00000000000000

0.00000000000000 0.00000000000000 13.43298611030447

PRIMCOORD
 96 1
Ni 8.161037840618153 6.529274489526936 9.49370912954226 0.20834111714468634 -0.09595151309666056 0.5339271095471707
Ni 6.303962838107069 1.6831603631060146 1.2415278661537246 2.450576529953031 0.9680663629707262 -0.05609581455230339
Ni 8.349187616743752 5.898651508181094 6.650430096098818 1.2418258576202228 0.8945230423659368 -0.08247687564899343
Ni 4.854860796501298 3.2413892748646322 7.404047044999857 -0.22617608844357823 -0.07676259887303555 0.016178152421759236
Ni 9.009391414111683 3.6279865855945057 5.639974017925763 0.2574497017458792 -0.9757125666620744 1.0949834712109658
Ni 7.95480732990878 7.8561067107646485 5.155781123810076 0.39640137255314956 -1.7290661046338158 -1.0369611290599108
Ni 9.01894575152372 5.256289816412584 1.2469245524152783 -1.7519049569052023 0.6500098461760676 -0.1677724516937046
Ni 5.987797789913188 6.328128611791884 8.532727264452378 -1.82162170467505 -1.0871945712941662 1.7594028079441442
Ni 2.0588541648584635 6.0461517546257015 8.880896130663332 0.9882695773914787 1.1996232561102438 -0.14299858718313438
Ni 6.755797641944297 4.53808081977081 7.300908844550521 -0.15942356550837705 -0.2422439405397183 0.368343695084985
Ni 6.051539262849396 3.731046772722035 2.9280015009271216 -0.8321655631746379 0.748796000508046 -1.4930907707116285
Ni 0.7922353788036579 4.903990833164728 12.549861737497993 -0.010068954200227822 0.007644146808819094 -0.7723545045542763
Ni 1.81796738319054 1.0122733296692932 10.188449883376565 0.2727714197046141 0.15552320201270634 0.1964821609235713
Ni 8.094139122658179 0.41770718785940175 3.4658712316619753 0.8841923498638902 -2.3659592109222674 -0.18936097649775777
Ni 4.227587798974276 4.945429674101659 1.4349651098903442 -0.39291958465213617 -0.2524725602462619 0.4893786335128346
Ni 6.095915075901457 6.7411219594065 11.33468677145107 -0.5982093165650084 -0.4121252110463096 -0.18156436327147438
Ni 0.2955410793191584 7.838705150982497 7.978454544454516 -0.6843872952146729 0.8887465448934757 -0.32358053193668146
Ni 2.016855463612086 3.2076875198435006 8.775514817761064 1.650665198826409 -2.1337173759005834 0.08468751014706705
Ni 2.834306583631718 4.021568383135676 3.636551530525258 0.5595409534605331 -0.6707203392505416 -0.13436816520164602
Ni 4.79324862834856 6.983954485100697 -0.05573547051111781 1.6609336706319524 -0.7013290652753341 0.4842045455110629
Ni 6.593502398469714 6.265424257133831 2.283661024196043 -0.7127563332756692 -1.9479587720421037 -1.0390684052109007
Ni 4.015565946375377 5.619244501615651 7.260703531901946 0.33688650501696815 -0.4411755914450467 -1.1946445719487295
Ni 9.185013168558674 3.990124425428052 8.22630653905423 -1.1977494361262986 1.3213881307255821 -2.5256884805965214
Ni 5.781558101165953 7.550487228071661 3.883005709958927 -0.028273393023396466 2.6113496675107672 0.21909629877866135
P 4.7324349494896225 5.753051115573461 3.5271933738183447 -0.5154447344722671 -1.4281771007573791 -0.5773617836920379
Ni 3.3568306350650112 5.623549001371891 11.10417667938742 -3.4477845474847197 0.1226786446788597 2.4196052783824973
P 1.9723052678406887 4.518623379508066 7.199368540492573 -0.16890039465056073 1.2762426445371955 -1.8436138926754249
Ni 1.31625912162324 8.558749755196228 1.769688150636712 0.466743412611822 0.6374106693548184 0.7548679177337387
P 4.693905546554244 1.7631744971676222 5.016280455164057 -1.005760020866758 0.9153965433808363 0.21820875396738548
P 2.7942628044494753 8.3111997180421 0.22939954948261612 -0.2274007048792987 0.1517377668283451 0.5671431912878232
P 0.7008872857890014 0.03191846226497511 5.958684136018163 1.3361457486507313 -0.40759261328327867 -0.0465163983939844
Ni 2.538663628092316 1.28976212632204 0.6947159731320819 -0.4293199776580413 0.783540860188399 1.073601920211396
Ni 5.247414653802172 4.7024594778395645 11.630305864092035 0.7894739378433824 -2.6874170400889907 1.2272155639062152
Ni 0.9691457297661622 1.8284395243885552 4.358278469078687 -0.5412812359193968 -0.8846474351234378 1.3326572758814985
Ni 3.5769291609805207 1.275995069532362 7.86955345403302 -1.140791530684016 0.44492528829546596 0.5509681241898575
Ni 8.196143835431831 0.21688162364565503 0.49654653307495694 -0.29549662921627173 0.10179408792036661 -0.6004960557166561
Ni 1.090653772991859 0.06538617732068198 12.525829963165931 0.5999949477105215 1.9651507104403576 -1.2967065688185022
Ni 5.865959337324538 0.8945897748197688 3.349609354876932 -0.7637456798393427 0.07549864455894739 1.3252573838730015
Ni 8.495714991175221 7.473575270806661 2.051861417813093 0.565065482823188 0.3256312438181231 1.7834907021312834
Ni 2.2114941125045515 7.012883660434741 6.812243492585761 -1.0083498930811217 0.4299159593708274 -0.9221541738196442
Ni 0.016758179328181865 1.8547437808946994 1.9450024408153994 -0.3320677434720862 0.5550731474971665 -1.0919757947328934
Ni 6.994518406677311 4.434938030302543 10.06835892919642 0.23069634491143495 0.22521860962631535 -1.448319637143525
Ni 3.5817935210462073 6.977199449235896 4.957429958603328 0.43030162484502016 -0.3267465883694889 -0.747108585503294
Ni 6.077687492711924 2.259476894435509 11.278455686895523 -0.42702269698343237 -0.05404895932560369 -1.3509000241417704
Ni 6.714147706136591 2.627653883180794 5.998083616942648 -0.6504081100557508 -0.36980948099723404 -0.5997843743616122
Ni 9.118261299204455 2.4253148605239683 10.257495344391943 -0.29690816485181765 -0.12715622083423905 0.9880428060926533
Ni 2.0844884246008437 5.993506529461974 2.8185093448674556 -0.9207122991667951 1.2821631237866886 -0.3491378115804955
Ni 4.855934626930893 4.10514359588688 5.019423015327247 0.46592837290969435 0.4296688763570278 0.6775697580722073
Ni 1.7160819849090643 4.062236268892385 1.349545111529323 2.4103181966536167 -0.8782703279525004 -1.8742714696602818
Ni 7.693646262608591 2.5128825197441795 3.7580926146872495 0.4912326560024379 0.9665105884478322 1.0767934305655003
Ni 2.8678798461228125 2.9095756721198165 5.795822607607632 -0.338501672022888 -0.4747223170522405 0.7917879306885396
Ni 6.340766769924808 4.73549123609693 0.3606491620926889 -0.338475703880959 0.7189899728902069 -0.16155578136003143
Ni 0.46940891073114394 1.472698776943279 7.518617409407343 1.652557530753115 0.6329048110646648 1.1998708533446756
Ni 7.922849402081008 0.6246444074839794 6.266635758131323 -0.3942370179119791 1.6944518569940559 0.4749544876677046
Ni 7.826856304105514 3.7629588103605083 12.124734106028955 0.38908889805213637 -0.7042272127587356 0.4131155999840369
Ni 5.907600095094383 6.539498823702738 5.898706576408252 -0.2565212763943388 -0.8886133617497212 0.717064730843036
P 8.071148137819417 5.926635345615579 11.82958492892641 0.9250075841080392 -0.9195015666881453 -0.8565843583386344
Ni 4.01071076434755 4.631705983978479 9.371253912809436 1.8833032408452468 -2.3379012763437865 -1.7019309389799206
P 6.369769369561729 8.603410087421942 1.8695360245133155 0.8448377593256676 -1.0943201265953542 -0.46844162624985125
Ni 0.3402739180439657 3.9578452662751875 3.131578640891232 -0.6169202627109505 0.5572303030494855 1.7881094318502173
P 4.105363868795516 7.06676792070954 9.790228587697275 0.9981768092028614 0.8877558988454323 -2.6811684880761177
P 7.884420957562086 1.2168701496396257 11.869614941051863 0.9459844434700224 -0.19063547233480715 0.3448713229946576
P 7.747319428012615 3.332261027714366 0.9572922938702497 1.1227038199443697 -0.38029418257864184 0.6209658935352338
Ni 0.9971938134656659 7.94495011724737 10.404814783490714 -0.0015172079754748064 -0.6694746397688986 0.4372484884764985
Ni 6.382508486111111 8.459581056121248 9.889323862469375 0.8173968895058956 0.3510818226807437 -1.5589950867139217
Ni 3.025595248705362 0.2727722029966032 3.4218515264788736 0.12931800437224825 0.6950956827711126 0.4174975311018165
Ni 2.40430633186292 8.526360459589046 8.624514067676733 0.2318397144872588 -0.07281826951330686 0.2845028492089294
Ni 0.7340502899877633 4.85177697578041 10.026999019385084 -1.370402355840756 0.1647884293647162 3.4885815268964238
Ni 5.962943663388889 0.920483773033581 8.139637409740493 -0.8290943804484817 0.07677236906504842 -0.6581378745998407
Ni 1.3017211096533403 5.401256924407892 5.15195296421876 1.2133909993182974 -0.23777716301761634 0.4397051775471072
Ni 3.8030117675806108 7.562969359560968 2.1256629380474124 0.22184275117554697 -0.5927233537497728 0.6114872646208372
Ni 0.415176802821459 7.376857107840244 13.286928848530266 0.633406947512064 -2.6335619419417484 0.12840809096346917
Ni 2.590290091053608 6.145513192495737 13.402224277928674 -0.44386008025574525 -0.4677001200981365 0.956752480619804
Ni 5.7351264076333 9.021616560540917 12.076052875416869 0.6963712070494265 0.6750948141691535 0.003571776511658365
Ni 4.237573504165722 0.30146091373871986 10.046181118512033 0.16715307294215084 -0.04524215966725112 -0.7813317683522221
Ni 3.4229675758826237 7.781929808781865 11.698921792935577 -0.687516584872274 1.7101708103912097 -0.5180541470706562
Ni 7.061664931659499 7.8609527147546165 7.451989443564231 0.4157849192860839 1.272454895359989 -0.046488887590158644
Ni 4.447218244958936 8.094267615188215 7.595574339057856 1.379440040562992 -0.8799436018898652 0.4711459125548918
Ni 2.2837252704610616 3.3578861094188865 11.040799574554246 0.039961370884286015 -0.7368521978826084 0.6740046664287682
Ni 3.494758188021864 1.0460485089933027 12.059987637947101 -1.0001627292846387 -0.1696321306102627 -0.7606467291990449
Ni 1.3504106004995007 7.953559116759848 4.460933904736599 -0.07981244144295287 -0.7008402985643737 -1.0032691361241044
Ni 4.2667780206355586 2.2145779332254394 2.3071421162565175 -1.3796549847872754 0.909053374771628 -0.03209482365201569
Ni 3.1540235324773365 -0.023676584266887974 6.067545760876861 -1.015319125310103 0.7828101526699615 -2.0322187077334486
Ni 5.844895740436331 9.265045658696 5.618547888542094 -1.0723346234631985 -1.0720921684350893 0.771608113306555
Ni 8.03818980386493 8.117001614966904 11.583170215055539 0.665706430975718 1.6789326783125345 -0.6989903898398284
Ni 7.642662262297484 2.494930277690439 8.453418921502188 -1.512806503973001 -0.40840456766161276 -0.12153373244113908
Ni 4.753388409923511 2.4714895689965477 -0.25378926729120943 -0.19588566499015295 1.8302505839946415 0.9223032978029986
Ni 7.348010534846939 7.05690153001027 0.11694013378288164 -1.9673803711018247 -0.3191044984431989 0.12621982506289875
P 7.995016313772498 0.3072293105335949 8.65886287436698 0.6550358386357493 -0.17412847581871946 0.0634324574230327
Ni 0.8020769888007055 2.4749680453454066 12.88870847065476 -0.824684167195928 -0.03322945147709116 -0.4796650057694965
P 9.01974424081752 6.1999114228906835 3.84433221182915 -0.7294888155390018 0.282334637913017 -0.575232653164177
Ni 7.323844761162124 4.82783147500423 4.6517352159998895 -0.05844863105519611 1.0246224049889 -0.42365480895246393
P 3.24405090584397 4.007112973506515 12.785502352725263 0.13115120092624508 0.6809435596404466 1.2020928006966587
P 2.0157173869174727 2.234347426775417 2.6022242936826867 1.406222707973475 -0.23813660323956407 -0.028276221236873882
P 4.611440876384074 2.4121719103087558 9.415489301882241 0.24548275919199014 0.45579334135822147 0.6878976223607766
Ni 4.715171060275367 0.19773072984742718 0.6854112783498315 -0.8048447638724978 -0.47762843495544194 0.397338025434806
