# total energy = -340860.4908249879 ev
CRYSTAL
PRIMVEC
9.35969015771694 0.00000000000000 0.00000000000000
0.00000000000000 9.35969015771694 0.00000000000000
0.00000000000000 0.00000000000000 13.69885263780112
PRIMCOORD
 96 1
Ni 7.893045387143229 3.4488492511687983 2.6061383207003477 -1.8417251602931444 0.8935928172421835 -0.4035212714273825
Ni 6.514756141274089 2.215260814363593 12.429832257507375 -2.528989519945296 1.369954212559744 1.329095526672169
Ni 4.50202030145936 8.83705437170852 3.571961934999488 -0.42164446339065453 -0.7794389222048834 0.05835632845170594
Ni 4.531344210566559 8.724915924529025 0.48227768814477834 -0.9210951364275104 -5.643345439054661 0.6986252931909259
Ni 7.448731538044002 8.068146469676742 8.971912530655272 -0.2598079175654106 1.2264959121313717 -0.11455035914477046
Ni 2.2996384206838627 6.883902319118953 0.49219427981381064 0.9863034548040434 -3.356871625253232 -0.9904113063248298
Ni 3.8074002598118266 3.2427956734493595 0.616512491730363 -1.0594647094790657 0.717124637546694 0.23132215142089194
Ni 3.6772724882454693 2.3678050437377203 12.00372955745056 0.8851323451796562 -0.5232272066311634 0.34330295006627326
Ni 0.7413604621070072 1.3592984346407622 1.8105365824816124 -0.15439937282090826 0.49146508372821807 3.237150006320167
Ni 0.68531650968055 1.0383172220897545 13.451547261284217 0.8440432884488301 0.5712021918485453 -2.9931847122139676
Ni 6.884239267962827 1.8764400324674455 5.833683315088337 0.6357872748187825 -1.297957667616784 0.10734304276305384
Ni -0.010250732605874602 6.115565358183739 1.211026903800767 1.190182422412318 1.512358874912621 0.4120367650975614
Ni 4.620270626279136 8.22861835657203 6.8762900831544185 -1.3095338024901577 0.5111273380438358 1.5745816282982688
Ni 3.801176065890253 8.063981407578847 11.699573323837024 -0.7248032371378743 0.21042422492596022 0.8587705673566758
Ni 6.621924593006433 7.5752651886090305 3.9244881111202363 -0.5653506181637747 -0.1695691385828112 0.9462055583418931
Ni 2.115673711618427 0.43883936635527504 6.393720372678281 -1.1498443849149036 -0.8074274369980093 -0.8690899470048129
Ni 4.614299143990469 2.9055379598011863 9.84080345032377 0.723001150932129 -0.18843486513906257 -0.7208172559069328
Ni 6.413765085012779 7.376222018780205 1.0291924602038276 0.455610535923454 0.4848036125476424 -0.06583309644472532
Ni 5.277611022227985 3.5665379945821174 6.320773755886459 -0.7833341434942316 1.1468649905716053 0.7647247559231605
Ni 3.305748949113268 1.4588200195551748 4.431934941933438 3.088639745290184 -0.015103431300341731 2.1108512699356874
Ni 1.5540829454706164 7.933189098014847 10.478444506503093 1.0323295438251705 0.008529120516933698 0.3039740705596636
Ni 6.532726746280736 3.126145855637987 8.322204026020184 -1.2669923295835213 0.20234787567572893 -1.7352382948827987
Ni 1.7333022916514846 2.716238227374402 3.6034142376371627 -1.1595353869504224 -0.282856571854758 0.3954302668891319
Ni 4.20266933274708 5.6914403606466655 10.347455643446835 -0.050232413792990906 0.8545447022007864 1.4458431505785745
P 3.18177985363773 5.135849155857845 6.972304592185502 -0.3465880485754482 -0.1719993452908586 -1.1636584079798604
P 8.96697623009251 2.624868932543734 12.643205112890978 0.03852849509250139 1.1276789045614577 -2.4178057632799135
P 2.4808513808576556 0.4789100716440537 12.236732490896893 0.7386463136685537 -0.9853390340082449 -0.003368145141284522
P 2.951615714201041 4.036984098461843 10.379634258036862 -1.9133064720755566 -1.1030348807605326 0.9720153203161453
P 7.761616618651911 6.136306431462243 13.554918486739897 0.1391496457506894 1.107334536577151 -0.9850137894583423
P -0.246129898822282 1.6459857426374194 6.03045395215903 0.797469297344033 1.2185118654846305 0.39913394099296423
P 0.7213634841920592 4.400870130466219 4.629253120875427 -0.4251447632344291 0.6894814219081287 0.8305820207376018
P 9.69617096699762 9.504578110494467 9.850255801363465 -1.66931109606237 1.9446268794553931 -0.7960132816237968
Ni 8.480028992553036 6.010362441373996 4.930943076145601 0.37061552183829716 -0.0724400602382817 0.2312074802198986
Ni 1.5179264625848479 6.754420366170022 2.9361572500192814 0.4665492943231449 0.8787151287994027 -0.37397389678756887
Ni 7.82310978265903 4.975358549582341 11.626476016034468 2.7322018005038493 0.6863130514824761 1.3742692949953301
Ni 8.554822276203094 4.132574613531052 0.3427658912765128 1.620265760598945 0.027545256608120305 -0.36370465365107685
Ni 7.136613952024919 3.2086702433169467 10.440511554434899 -0.21374686154128997 -0.35395580179442915 0.13362177395392472
Ni 2.8813150818026436 4.772365590528097 12.477326133020513 0.6290982928343811 1.0174497984998607 0.4634701411771889
Ni 8.09305260505314 1.1653656556107022 11.28416968554224 2.150129755820336 -1.7686235552114635 -1.2457048809596547
Ni 5.5765969630260654 2.5819828324705805 1.9384835462528927 0.7348968739284505 0.09509302175110719 -0.5560527378016165
Ni 0.8064131162620568 4.29178294226181 11.315896227100069 -0.053727314320126826 0.8610994726001686 1.2799514608473503
Ni 5.126395868849141 5.253537899271164 3.081625553672042 -0.2787474347823909 -0.7105685815957311 0.8003000819246088
Ni 8.40522634921287 3.655314655252973 6.603449500702986 0.2734771875223871 0.508092407872254 0.02764655807267497
Ni 0.6178022570271943 4.1556836884067865 2.4169977030053933 -0.006832963761433393 1.5222550509804107 -0.7150019347767363
Ni 5.898411187996652 3.0975707217393977 4.150999163507918 -0.18375237206172867 0.6527239026731211 -0.44266168907226994
Ni 6.827669300952321 9.272532673346147 13.037019689983508 0.12860452324499141 -0.35213623208718714 0.8873056986818912
Ni 4.844631757849096 7.974755481782825 9.517619902690438 2.5753930469105004 -0.6816269588607164 0.011591561492341328
Ni 4.535134885060148 5.836646592976413 0.8636204781688922 -1.9090258424223312 -0.1218396937173321 -2.400658819186982
Ni 4.938116342644088 5.3569063168198126 8.217886535894623 -0.5421279001904082 -0.1771117268167595 -0.6686107491067066
Ni 9.218751893987713 9.16852779687018 5.127782038954081 0.1626137903109006 -1.1007975067895817 0.4119814863795937
Ni 3.9806949221545658 1.5125727198432846 6.890098433970202 0.869433960607793 0.6564643435521597 0.968879860010957
Ni 1.2160109387830793 7.102020537387125 5.507870630503772 -1.0179740464344467 0.8266973409712151 -0.12494584344648159
Ni 6.783238852011409 8.69781962166744 6.31066435460121 -0.06601744454138954 0.3970377205855678 -0.9695069520719949
Ni 3.404456240988317 0.4392652322551721 9.919503468624752 -0.926502937706643 1.0916891167304101 0.4823515514627242
Ni 7.401614858042201 6.0176910787282685 2.626138106522328 1.2905050679934806 -2.031014403012702 0.012983299633545381
Ni 1.5524637190819965 1.5405301141947705 8.608166894002512 -0.456040424372021 -0.8332546824737584 -0.8845247935026445
P 2.029461606037062 9.69345665686641 3.3725069388059272 -1.926996053747507 -1.1613580419814578 -1.3958750461905638
P 1.7913323703187807 4.508834155857713 0.6063441243974357 0.2461838990240728 0.5166832348650586 0.39355824667739964
P 8.585082154321057 9.115860820634554 1.0032707984507507 -0.18384827420964467 -0.3548582590040405 0.6258885276478318
P 1.211658682883032 6.568480762491876 12.06099026959101 1.4870219388097292 -2.942193308767765 -0.17480750416361507
P 8.466981584543001 7.596202815379795 6.811233685123326 2.0599801941174327 -0.7162962281081277 -0.0722899078136626
P 3.7148610037177043 3.296679409398976 3.2132443238725448 2.247271946790988 0.7229165616381227 -0.8224082266775579
P 6.474481394740964 0.2752862694765552 4.053668682047701 0.7682826484777477 2.1224950248222028 1.1546634035701016
P 5.951396393695937 4.4022740839823635 12.222993401787905 -2.273150871440279 -0.9283479613351818 0.07507132721354168
Ni 0.9312433032274966 5.318540947068644 7.017799237891651 -0.10875946349460623 -0.5501399718616073 -0.1747396270401571
Ni 2.088502531235982 8.878171490351331 1.1173111346601166 -0.5658962062545996 1.2949024257302282 1.4867545440809558
Ni 2.02895618277125 5.634645761073577 9.130271935493269 1.5994603938178196 0.6148788068008895 -0.21787631032863122
Ni 2.052271170829352 3.0597669333946866 6.1092906219355845 -0.8213905840463208 0.07084751894018121 -0.6529732996797658
Ni 2.663281100745441 5.416621139706481 4.422647321439638 1.0046822144215473 -1.0408800044983428 0.8397680581122441
Ni 9.38112379797485 6.6464001826378825 9.241341506062474 -2.2312303199470924 -1.571508388689584 0.4257070634958023
Ni 0.4300159864908138 3.6290326454307524 9.1801216450065 0.12730945858265172 -0.03679865688558824 -1.1377488872029504
Ni 8.718279904242717 7.9481178037365146 3.1838736163148065 1.0609700903799986 0.6297850344887606 -1.7439340228845837
Ni 7.0433446401024025 6.060633336942068 7.505519585834016 0.5471217538605738 -0.36752762694159286 -0.5973292279529002
Ni 2.816386911526026 3.478856417653855 8.240955364102895 0.7224167391835687 -0.3924398168022402 0.8456412290635694
Ni 6.499733838651346 6.030504494485612 10.184630730458489 0.29724446514531394 0.9924231945485359 -1.8710596475912034
Ni 6.428300683749925 4.821204453509702 0.8218444373425038 -0.5263086737699645 -2.1031821834262034 0.252454562524133
Ni 4.912760942142524 6.654730306833672 5.1174115023148286 -0.35947338917854865 -0.6775635874246202 0.5172195669845029
Ni 8.29353716715854 1.7377107056921777 8.847266729584954 0.8091765584786322 -1.207293885281624 -0.5649803793085495
Ni 7.911109589050952 1.9160596006930366 0.6696268611531326 -0.4109093363613374 -0.22501343559404474 0.7930649976287503
Ni 5.597646906078122 6.571616258677932 12.34111830676024 0.20722602970363668 0.31519616452772814 0.817656056704553
Ni 5.766739067562537 0.8547924184593773 10.430278605240229 0.5181634189550108 0.03639705057179538 -0.758943373354693
Ni 8.433530052098337 1.5267526503563416 3.5315645765259536 -0.5908649603847953 -1.139977776533469 1.2788798250497266
Ni 3.6100418342023746 1.0136918774165842 1.8473313962327211 0.446688807953792 2.1052475505956645 1.27409191674278
Ni 1.5066854747655865 1.9757650638895978 11.043631265590255 -1.0839925194171007 -0.16005374289320823 -0.3665313244665946
Ni 6.610430893554266 0.42659501975647557 1.8930722017887012 -0.44174663345716825 -1.0874002595470693 0.26912919496633647
Ni 0.630996612171918 8.20627677628512 13.129678750111006 -0.33432902870243714 0.37615830603339734 1.0712725007472712
Ni 0.8445023751550506 8.350659355885396 7.9329785049874255 0.5094404372597162 0.5245608378409224 -0.13678423084230637
Ni 8.54122264647671 7.283785719277268 11.669340588820376 -1.522418058920836 -0.10374092723409231 -1.0635648476903685
P 6.575931075817548 5.216033621009897 5.3902932674027335 -1.1339423689726664 -1.3097970834538735 -0.5086472519344595
P 6.581434573600834 8.313988090043708 11.14245461762264 -0.7157221007722125 -0.8181247688108555 -1.16332570723079
P 3.1175536601191842 7.88348914354334 5.32381232453726 0.38451387708694423 1.0275056400739657 -0.21319741679572315
P 5.930131177771405 0.8917042283368313 7.61375410626962 0.016739938462500204 0.30136825750570034 1.0176932819692344
P 4.838267168575909 1.139355076801603 -0.03838221719336247 1.0857593815095365 5.481508379008785 -1.1005691928288595
P 8.010565656134611 4.779319840278065 9.060763132877979 -0.2834399551620538 0.021836379148801103 -0.3053382978970419
P 4.000209876028971 7.076730654716313 2.355422173725328 -1.2352417766448016 0.25226841465525585 1.0579266755679844
P 2.958204936036811 7.959443028766746 8.776224809730033 -0.7490045169744262 -0.494152143642078 -1.2545687591081878
