# total energy = -381177.9104466593 ev
CRYSTAL
PRIMVEC
9.13816323069345 0.00000000000000 0.00000000000000

0.00000000000000 9.13816323069345 0.00000000000000

0.00000000000000 0.00000000000000 13.37462558782437

PRIMCOORD
 96 1
Ni 4.768558616039789 6.239839459796786 3.6386868636559027 -1.7204387679761208 0.5870283602475245 -0.4119573180098776
Ni 1.750433456208171 0.4910035660231522 2.303886316398865 0.3883394214806215 -1.8255341523555788 -2.2856639163056247
Ni 5.515694847348155 4.632984825339069 11.015074417942664 -1.1556982725925193 -0.7356149830413976 -0.7204130784899786
Ni 4.318111132552959 3.885665830764727 4.636301064800196 0.6056909696540342 0.26573662434501977 0.2770134828104197
Ni 4.252901199252855 2.987494036454103 7.07802560876522 -2.4321962276736304 -0.44804840730547996 -0.24997499063538883
Ni 6.330060546045655 2.9149461580250775 9.02305716623727 -0.5008593804589245 -1.7782610783012278 0.6064913540681426
Ni 2.495166350568957 7.46398781530154 0.4311312339058665 0.550247186863433 0.2252353217968637 0.7120590500983285
Ni 2.940167488729714 4.984328927850615 6.350031088118812 0.5420456248892471 -0.17993017010216109 -0.010295725499053237
Ni 3.470628730060674 0.3937433525852324 6.706197399403125 -1.8074888648180936 -1.1972732678208282 -0.8248536028942568
Ni 7.861689820227805 5.584404697191692 11.4121669073769 -0.5389299620784008 -0.9249597615892392 0.848731695063435
Ni 4.26253282336977 0.8671687476868487 2.9974811351233406 -0.3309079188360301 1.363938345382967 0.6785665747678378
Ni 2.7474070721052195 4.399577858361595 10.636839442291794 -0.3173466352118276 -0.46734633630314354 -1.2939850561222812
Ni 2.0568452097796097 6.29807697449992 8.08159058184968 1.647660093451498 -0.968751561963209 0.8133425169308638
Ni 0.3489928530947701 0.4258018570700172 10.875536492002933 1.0547796452985705 -1.0221999115903362 -0.43601693006224257
Ni 8.68006717261347 3.960863776550399 13.255498017864154 0.05741556180499144 -0.7215122250914284 0.15960508539156384
Ni 6.263105223555484 2.255819577447275 4.050438794654044 -0.7736292575016419 0.7974106761919558 -1.4934250141225958
Ni 2.4775205572390107 8.497660295006495 9.478089266251098 -0.3195675541225464 0.48596986494160177 -0.061942760251383636
Ni 0.057596929455889165 1.0613611145002622 5.947174245275704 0.5853561147514241 0.3344269877328821 1.402814196512558
Ni 7.472531997985901 3.8255093017688493 2.1588782859084827 1.5012229129004597 0.09243192997917629 0.8744879780919327
Ni 5.843736633447809 0.6843360316701504 12.437907461338515 0.49862123515702517 0.41392832569331933 0.8204346478909548
Ni 3.914076380460638 8.429708912716757 11.665722610611857 -0.6658689246955113 -0.15767161581427686 0.867994399947789
Ni 8.369936186579427 7.804823030019488 11.982113238505566 0.34001065246824663 -0.8183834217888809 -0.3000613657688187
Ni 5.171259196290487 4.240007250838274 2.3269574372792987 -1.2887392343423096 -0.5372880555996037 -0.18199605149225428
Ni 5.927889979266287 8.635820185920771 3.0365349036133433 0.5862040645740162 -0.21895951609048098 -1.8539749241947747
P 3.946571689151105 7.384357860315959 7.752280418684155 0.5471824318951802 0.15881961337579098 -0.5935085686552295
Ni 7.705491194961734 5.370754439266183 6.089667453226263 -0.8777751334836367 0.6637431366017601 0.3807747217594861
P 7.8093738353422815 0.6808452532900159 1.9703762533812206 -0.0473823459387055 -0.02140134849391153 0.4266313750822846
Ni 0.24017743216554116 8.030846361051546 0.8210749381914656 0.06999468402158268 0.1858100259217058 0.06691424532404604
P 0.5655015285001376 1.9923023624003164 12.379741224309111 0.00999799175297633 2.1502058604739096 -0.6592503909377291
P 4.142055278438637 4.247875209438525 0.3681446157363561 0.1482922314819059 -0.696810094359058 -0.6010323878361004
P 1.6793659602335482 7.876987105589964 11.748739168915968 0.13896941141908326 -0.1352809068239025 -0.24788828330968923
Ni 5.351820164911108 8.50272283747402 5.886426477114396 0.6866205554205659 -1.6046925887510364 0.0014537017273910447
Ni 8.283653648712335 7.715853872142552 2.9207644265974113 0.7212222046548353 1.5059730259909354 -2.2080595382575843
Ni 7.69510110329102 4.671620979766317 9.294160884454879 0.761682626662727 0.4876637077042569 -1.1512906304431267
Ni 8.196174011453099 0.7387099309305594 12.881142192533616 -0.9238403032728153 1.427606830076206 1.2519832577691987
Ni 2.2401293510632674 3.4975771736287804 12.764301636595398 0.18520607378911974 0.9198100990674998 -0.18843589358032706
Ni 1.542823524223157 7.168030120543908 2.820908974782638 0.9582064394575109 -0.2666887038456439 -0.4566358918641749
Ni 8.355735480813122 3.2810575324274547 4.798240284250561 -0.17191269911432328 0.7091958696179205 0.7864274377075746
Ni 5.969203615540078 6.832476764212655 12.031679550054484 -0.4356124955349724 1.5944793956634604 -0.5271856770582791
Ni 4.697975442720002 4.853854232270615 8.378707909529927 0.19003203442285335 0.8829803318336599 0.7008446694397479
Ni 1.4439668736569398 8.206152885775369 6.900076327215391 -0.581366791086373 0.4468358750546175 -0.3020066624206476
Ni 0.09409383985489211 1.5448796109653828 3.5764550577748717 0.17566985216391037 0.13683745267774497 -1.404281267976388
Ni 1.0960313060558389 2.262481298492087 1.0672671094402646 -0.928502227524859 0.8046676148646851 1.2171838907018264
Ni 0.8296949676312061 5.74909267616233 5.990387705699312 0.9663367818741294 0.9580082074037759 -0.6007462240542493
Ni 1.7910982828877482 3.097517522571431 5.494751090883678 0.5518631252003012 -0.6409778178807863 -0.5982250002942923
Ni 6.000712002594276 1.5255889482416551 6.192652725970869 -0.20588879894945186 -0.6911413261090549 0.28066316374786504
Ni 4.637188380456508 9.046260790485537 0.780330609491189 -0.7934534913164206 -1.4557922913714865 0.35458726473084096
Ni 5.051741158505726 5.96625198879457 6.081361776604001 0.5648960471248594 0.05555665421938173 0.2615272142493625
Ni 7.143366217800497 0.2591400348268424 10.49710139057582 0.7378099338101874 2.487198809161755 1.0861573882789035
Ni 3.0530694962861578 7.248436819409886 5.210125632432864 -0.40240386999348765 0.11351960388741096 -0.010806089476568486
Ni 2.3883960505859956 4.717613355649083 1.583555973311145 1.7305894832568776 0.22314295804420925 -0.7386103182242957
Ni 0.33631273770138104 3.7811252426266684 7.2250796740182 -0.46749803138965934 -0.2575088371185888 0.7312798460011535
Ni 6.283711781794236 4.040557698679072 13.246991301649318 -0.12661088985373034 0.5725844169080526 0.6928647365580649
Ni 6.638702011461996 6.230637329354914 2.136877243950337 0.5491444407175575 -0.658514541212969 -0.692799173427452
Ni 0.5093091347432711 8.112084632777714 4.620103670353107 0.31582274236813357 -0.06722971968193582 1.227302981413699
Ni 3.707352850315606 6.531593599436979 10.019627789132842 0.6720503709158748 -0.368289701918598 -1.3128209578818615
P 0.6044301041529462 0.15330182750035642 8.558930766108494 -0.46448161316083875 -0.49372225519351093 0.12360449892723874
Ni 2.313718980108354 0.46458513592637524 4.379239962123827 0.3856243365423036 -0.08730103651051416 2.6108812125147813
P 7.6082611374627005 6.3287812031838255 0.16750344708299256 0.8934177251169001 -1.733953514633104 -0.2018519098759169
Ni 4.006728218146983 2.7216831424191503 9.678801712578192 -0.39968184307663424 1.8506576868960838 0.17868035685546
P 1.1882445119038418 4.441869278108355 9.144913660010191 -0.2501981623897885 -0.5715140666620092 -0.9808725135964592
P 5.198472646594258 1.1642111424280466 10.529053892366338 -0.5475642407146312 0.6657326562279632 -0.7719608686602835
P 7.791901667115011 2.2811871187646924 7.210634979291815 0.7845356200015005 -0.7139719508503252 0.1926710147075972
Ni 5.344390838149199 8.22749963524132 9.843109543955602 -0.7563388458523103 -0.20844113305766035 -1.973627380452801
Ni 8.97326514205487 6.413875779822078 8.036023130560306 -0.879185640677918 -0.7927513230430734 -1.5025956248782704
Ni 6.94604585768991 8.26936156131304 0.5398653251817362 -1.4218503872084027 0.2731568280684909 1.6282477503631572
Ni 4.6161614667060125 1.1267263965764456 8.351891969329653 1.3236733272153332 -2.0098688792833386 1.0265345344099481
Ni 2.761141731543288 2.5594716057024818 3.1492696827814193 -1.1801075546748192 1.5899105453458553 0.028195488597609505
Ni 5.995000650532536 2.0476065266845414 1.5584251104231663 0.5743409945878432 -1.1780468154910486 -0.6417758883020496
Ni 7.308154716567421 2.946216952833507 11.28873225280228 -0.94158477174043 -1.1075659358616667 0.4282632542587528
Ni 0.2529525844572375 5.505533209759911 1.4933970265727081 -1.6036559199564058 1.671316299417857 0.06699189263951688
Ni 6.7800237068776505 7.12789530733566 4.378705379570848 -0.49008234444807847 -1.9514755269461097 2.6123755376721203
Ni 3.5933999539798025 1.9330413734077194 0.8698041939822173 0.11464523285142192 1.7864839804316521 0.9889516910601679
Ni 3.3231661889082393 5.926564945587963 12.10897104905191 -0.24943711585404785 0.07735292415886678 1.400136906790711
Ni 4.759173722331941 6.347295122027156 0.4226738637728444 0.04412372979209175 0.10780018490513048 2.7728414284020824
Ni 0.9115409272167415 5.871553202529299 12.495818743611881 0.3238870074335067 0.14442477810669965 1.1629428699700746
Ni 2.2760880236439722 5.139878743522472 3.8963364640487144 -0.1343573665683686 -0.08620394679159346 1.1188798182125892
Ni 2.2687957693315446 0.7405448741209547 12.833421789971048 -0.1747108306847507 -1.383823000122036 -0.046663979715442214
Ni 4.545870714611786 2.6644142730256872 12.054938003282544 -0.6311304927730614 0.16978511124835924 0.2903567368865451
Ni 8.342741012602254 7.835664331152874 9.589566634149264 -0.36799993859232105 -0.024602629040028596 -1.1220494741898224
Ni 8.799576072234933 2.0064573773501286 9.156817031523182 -0.27063791830137907 1.000992938495418 -0.14661844332390878
Ni 6.311711114141702 3.7037067231593923 6.898043085881412 0.7136431067559967 2.4902072569707756 -1.0714144256417744
Ni 6.596328348245547 6.781248220759687 7.856255354514019 -1.0386832539573403 -0.013279490717725516 0.581405100523476
Ni 8.748539430211238 5.646078161295168 4.021803446140983 0.4706448045487571 -0.5469728869875353 -1.666150181835885
Ni 0.22721129226090025 3.7921001767485047 11.015127419289797 1.6473032243327115 0.18459080880262402 -0.7422653984783797
Ni 6.8309324146151615 0.26456353474466915 8.135116459555961 1.0490136893490707 0.028437429405086506 -0.6534574384050359
Ni 2.062300693268982 1.7334547487990353 8.215845735586386 0.1955704477425793 0.5996712458225156 -0.012183943660701597
Ni 2.018336989638545 2.0674272028795984 10.75228916977594 0.6414773832250242 0.3051390374020422 -0.7369082479315244
P 3.5610782703920125 8.03876914863159 2.4894723610174867 0.09456671693399198 -0.9618090692071048 0.12164480409770664
Ni 0.7013823614876972 6.245450292062238 10.231080318784993 1.4428370167623992 0.16407751934062065 0.2657566789496778
P 3.9215331217124443 1.8090182211166583 5.202488869364072 -0.005480820608913141 0.3601953549462377 -1.5377382342176742
Ni 7.898818177710753 7.884187978269404 6.21964229127382 0.943696161656478 -0.020582966357674228 1.475470229416388
P 6.541883171311407 4.806070776381286 4.215535249524137 -0.2630570206303276 -0.5518353572861593 -0.08223879149625837
P 6.2151115899102845 6.28638012547748 9.966958157327658 0.5883663623326577 -0.364216817400805 -1.1659433473592953
P 0.7886289755828124 3.8882976217947762 2.7954171544443573 -0.8972316995463515 -1.2502853012414856 1.2950554063683246
Ni 7.483680557210414 0.30601607110060125 4.6124266993658 -0.4891732023702479 0.39760696282547653 -0.4235643061211867
