# total energy = -340861.989797266 ev
CRYSTAL
PRIMVEC
9.38467880977313 0.00000000000000 0.00000000000000
0.00000000000000 9.38467880977313 0.00000000000000
0.00000000000000 0.00000000000000 13.73542605597730
PRIMCOORD
 96 1
Ni 6.295758772691306 0.6029402815760934 5.133011132294657 -0.3694898928742863 -0.7505682619171202 0.3070113147240906
Ni 9.052085893057555 8.667163902730724 0.37368008345603704 -0.09824853666095337 1.9724996946062614 -0.28861327183287716
Ni 1.3628806105720643 5.095139260538174 0.23669943309499497 0.9410152723902052 1.4826970861821305 -1.201527158001176
Ni 5.94817841976233 8.650055633070938 9.177255925005628 2.176809579104367 -0.1461463887834967 -1.513645969155161
Ni 5.499224765206907 5.065990447832032 6.123212066182892 -1.1765028680426965 1.2526208913531975 -0.7211026483578356
Ni 2.9466108700216727 5.177959051952117 7.300323896124944 0.6357898459219437 -1.289690028291353 -0.12996437970699554
Ni 6.330669778250498 7.412760795722826 6.67349397590598 -0.1134985208414884 0.24645155086316267 0.294323434843777
Ni 1.9656209984872948 4.8012017322802585 3.0714608844187863 -0.7973795658437042 -1.042249888262676 -1.6125339391723261
Ni 8.535628243075447 6.538897033989033 3.2680013995060144 -0.5762320409629689 -1.054172864952507 2.158708755738598
Ni 8.251676013181772 1.4910753245340431 3.8825101747791013 2.332894567157814 -0.07973505123779817 0.7828469194451679
Ni 4.200310126111038 0.1218750711814519 10.159874976799436 -1.5050065483126083 0.6715073539282111 1.007617128680155
Ni 5.87988611130689 7.744180731562304 3.993410802438801 1.0375740800535613 -1.7482172236409699 0.5695572000459544
Ni 1.7711329126785065 7.241377789399718 6.86551576809623 -0.3811480459385049 -0.7425343358690503 0.8929065898084365
Ni 7.50246894145947 1.3697408108580238 8.44162848367154 0.4135485737563975 0.08701410139771466 0.2879568691958008
Ni 5.248015680043345 5.322924187132987 1.3132835209807276 -0.2551786463235154 -1.2694307638216848 1.0786171140378005
Ni 5.630919964403717 1.8975726916836118 11.979818542976306 -0.3389498153039001 0.16249937622022337 1.3218164765122526
Ni 1.4372823450003638 7.819783704891566 9.885262379360737 2.523972269236363 -0.7002695136625683 -2.4379480425557434
Ni 3.9279855133915142 8.852004538616166 5.423226696895377 0.3507771469561314 -0.653539713706197 0.37260195614070674
Ni 0.8420816081244491 8.510467918907652 11.885154348305305 -0.699515409105363 -0.10355760757869263 2.6994773136876344
Ni 7.065856139675641 6.034620697236985 10.932547499677707 -0.17550324467905903 0.7618482057063138 0.3701843478381496
Ni 0.8859878284224811 1.5608222582211166 8.313599878526334 -1.1882679789984243 2.1720370974163887 -1.974698502029793
Ni 8.904877819616296 9.006701585830607 10.216698269154369 -3.3030705202723762 0.9708806924910699 -1.2086228885056927
Ni 1.9264681180590826 5.524385089374699 5.241864023015374 -0.6611985158030355 -0.751987253751834 -0.4395843356985268
Ni 7.024751246033367 2.864551237599744 5.616635544629082 -2.3157494228370954 1.4567006621183687 -0.38839341464700855
P 0.05545876004087213 1.7929053677584326 10.27232689188358 -2.544184996738812 2.399251140206178 0.22708111675635084
P 1.836759972322439 6.550656036667975 1.7141397576352344 0.7290836096807831 1.4611209026732515 0.7061126027069065
P 3.5407173533362424 4.0125227010466755 1.6963529756899827 0.4100292477492293 -0.01564670539832144 -0.07796998891757541
P 7.717415627300258 7.248829224457244 9.135995245693387 -0.29137052286304016 0.06638999738945986 -0.4193829210499874
P 5.613257998688019 4.038790417326293 4.249850907628893 -0.5297220703268877 -0.5205427178204648 -1.0245054197950616
P 0.5936428801762301 6.156011518986487 12.071310716174457 0.4783208330367762 0.1140893603479519 0.8645362661958594
P 2.9891516195377523 8.402853805803552 11.710096301719569 -0.24131937184291985 0.6797297418380035 -2.7344515157699747
P 1.4750275235915116 0.6336084737983738 3.394696441777574 0.09356810046614854 -3.0287047594974483 -0.10199103442252114
Ni 8.79969433835086 3.990778400003491 13.54958627713802 0.24215472326002166 -1.7682175780222966 0.49469233241626415
Ni 4.878897489007287 0.7399134241940044 1.0651892107486438 -0.3642389288879921 0.4053989480660695 1.6016856836039124
Ni 1.4092033856903898 2.3989210086145656 4.368922775218804 -1.603195692490536 1.6018615470601443 2.124657322580844
Ni 2.5100168375956713 7.5484350987790725 3.601511303339588 -1.0212979686013572 0.436023872040778 0.41717537187570736
Ni 8.011165461979898 5.529265122409856 5.917386349778388 -0.15520335677944236 -0.2549189649042255 0.5810551733832251
Ni 2.478428008371951 4.8002163409943135 11.768210925893033 0.6873628329032292 0.8662193103252372 0.2515557048589474
Ni 7.6795578325621445 4.706604168829544 2.1459410345399776 -0.4505246367601144 -1.8722608669881562 -0.1401390062471522
Ni 2.512306699250629 8.695252246719612 1.5252777868352458 -1.0834579870698695 1.627051673172527 0.46031282649512983
Ni 9.091351389632733 3.5731789576989423 8.63160253892281 -2.4247659966478308 -1.0886449305874477 0.2292174463730633
Ni 5.5681833858652245 2.1090282769684805 9.786820851426945 -0.5366943878796628 0.1369932615293189 -2.208642407344248
Ni 9.435262333106428 5.971339807321494 9.91289838182598 -1.0300476897695292 0.9703708427341868 0.019692336222604793
Ni 7.009848375918314 5.268023815487484 13.596794965945804 -0.7571934805431217 -0.2601431894176423 -0.9430814108906146
Ni 4.146836225660427 1.6005288347052407 4.549448335739698 1.8422465800142531 -2.043517934796352 -0.5922782957925542
Ni 4.599027594441099 8.693760082772323 12.909762330495061 1.722468653921956 0.23919589774201389 0.4192615649807747
Ni 8.965390229252229 1.5248977073392387 12.388694926230512 -2.7964140735157 -1.573040251953078 0.36118651521491346
Ni 3.113930310375122 2.3789316425282543 9.115433414193335 1.3944452557225726 -0.6177836391525102 -0.5434417339058253
Ni 7.18836373821588 -0.06684237556326454 2.0312086424797893 -1.5536785595970146 -1.0999037913307186 0.958290257420569
Ni 9.1159486330657 3.2306006386310018 6.09766415477596 2.427041680055885 -0.2178256595963539 0.8945850059521239
Ni 2.2553354212340184 7.36768618290003 13.328857690618463 0.0035918311163163946 -1.68023597050499 1.1767782331912702
Ni 3.953971689303719 7.447953341649431 8.105728302118631 -0.492390423755965 0.6240884983246154 -0.5805165272709357
Ni 3.4291898291251033 3.5290334280886095 4.895264369032886 -0.2681686308252801 3.030111152926672 1.0065066692247955
Ni 1.2555292684775492 9.093678790003345 5.722494722776308 -0.7296191704692789 0.8017797517939289 -2.1440426690859913
Ni 8.275081402392692 8.465111765717444 5.246204437012989 -0.6754113169683077 0.07147898187659302 0.3750167362297864
Ni 5.059064554793676 4.471114420846533 11.346176284333843 0.022730094607664078 0.033707676665090336 -0.061256018597004185
P 3.689351897972393 6.783020686572704 5.504773925848613 0.3736255123092146 0.25445796610740695 2.6566046826938248
P 5.045972927708979 0.010545563695393521 3.2347477282429926 -0.5969564179945139 1.8376103667938224 -1.3667742721698655
P 3.5628745802516324 2.7445868870451338 11.307346236860264 -0.45198965134141517 -0.24144509878750678 -1.1384906504649812
P 3.250073847377056 5.491003786478451 9.335103408931419 0.9489723224537527 0.9004046979576945 1.787710653749902
P 1.7921170547296765 9.217669167811959 7.94587531230897 1.4636387839990987 -3.0988323695524698 0.15791098551859253
P 7.135237070885077 3.61164675656645 12.030859934652469 -0.8328373924306818 0.12009262911923833 0.44899431615851704
P 6.540417351973062 3.980962025859697 7.547822279246003 1.1392331850579607 -0.2687031631725114 1.8944811118389369
P 9.410017546828408 3.60096699196259 3.017673535692455 -0.5475542134123023 -0.5744443529349268 -0.36761812977287006
Ni 4.519745826977644 6.327563449530043 13.035949661637387 0.20110808973135688 -0.6972145288863283 -0.607266027450638
Ni 9.119580503805325 8.533150687842213 7.688583078273509 -1.2776816909765671 0.19923941195373426 0.39125068159014553
Ni 6.255292037215168 2.24308841525156 3.137102959548981 -1.154287765398238 0.2591304318824118 -0.6961439215299687
Ni 6.414174651225146 2.620192968043228 0.3899512397567163 -0.21677330707243958 1.3253810539350592 -0.07608228497655929
Ni 1.6856760264897965 3.075368664718477 0.9504052029544298 -0.781519458882996 -1.088235868074487 0.5179759855345532
Ni 1.6160510936286017 3.932321235049672 9.798331160114675 0.7770655368767004 1.0523563805690583 -0.770478370577486
Ni 2.904558123809108 2.0927927824476735 2.7124856543527223 1.6483470922161936 -0.08004306939652021 -1.6250019897323495
Ni 2.893268355075853 0.9378775950724498 13.46875322225012 -0.8044878947537113 -0.04171820567439267 -0.5718187423866217
Ni 3.995480124139285 3.1323712044406626 13.371121592106586 0.021828665839317245 0.8026891509820757 1.0686952269383982
Ni 9.131226890337304 6.577252216709574 1.1203833228441478 0.8875080445006843 -1.1888727024619592 -2.10961714041827
Ni 4.8780434832261355 2.6886354313612895 6.8941953468566854 -0.23951265765148433 1.1010433042518004 -0.6419244980647718
Ni 4.0183224326153795 5.784115462991957 3.7909222778560308 2.3293577576491495 -1.6724090182614035 -1.6152454245662184
Ni 6.789252113371441 0.3741652713558784 13.500069895785341 1.0401955768368085 -0.028392435099764003 -1.152384634838254
Ni 6.907179988601766 4.099640675403122 9.782273974493227 0.858543024726902 -1.243794551310819 -0.8791378181591182
Ni 8.278976044141903 1.8749837695381886 1.50033424875036 1.8788786294149897 0.8762520119708909 -0.19206449147184987
Ni 4.536591325627845 7.5040174134802395 1.567459103148929 0.7666206873942926 0.9635473920544503 0.5265300457521512
Ni 5.4566746310119125 5.717240241052494 8.789450022848598 0.26433948688717696 -0.5193844358463056 -0.9226154297267787
Ni 2.807332850262542 1.2540652585670027 6.545246707742084 0.9756338909053391 -0.23598304723167102 0.6107041065979095
Ni 4.5892206049762185 7.084935191907318 10.456752724961031 -0.9296306847023474 -0.36349510874343205 1.609298462954164
Ni 1.4182126774476007 2.6238905315352503 12.106872079982372 2.2221725806201986 0.8819058678225586 0.11992884984786444
Ni 9.243711651797646 8.664235882909631 3.025557604447906 1.2143785600425472 1.0784800742393041 -0.5106300866924431
Ni 9.09149215981644 4.164948655963986 11.174785770267604 -0.6247076199658531 -1.3339651960596446 0.8420717665447561
Ni 6.816157987817196 7.4211506986717275 12.997641402311414 -0.10945314712752117 1.2213066546209481 0.31321435821100896
Ni 1.7456722787854724 0.7610477211077948 10.320895420665968 3.012127314754742 -1.0671021714196653 0.9742925463860964
P 7.148938702099169 6.8712272836831465 1.648662852853922 -2.9424874429694166 0.8747476595112225 -0.5147649347964232
P 4.642647582032262 0.9545438463553985 7.887609594804991 0.2998945011736513 -2.282392444643205 1.9924296007609685
P 6.525026478554494 0.09692777922500037 11.180527316827042 0.16484473652394838 -0.5025246839764894 0.51466286200092
P 8.063072121051912 1.1455783703239226 6.380064158777298 1.1001986968633182 -1.4172152024292368 -0.5301182773240419
P 1.992770874584806 3.1211752824965453 6.795781034491746 -0.7118183948424321 1.8764291394332329 -0.2666506515188569
P 0.3443539003184245 5.361786142514872 7.939034819848729 1.1014659936115156 1.5812477274645347 -2.4114476822723696
P 0.8110718135897078 1.186561263140318 0.4369018498943724 -0.07374283821010524 -0.7637688197677943 -0.37743434453234354
P 0.18125005773303662 6.734802206313799 5.070831065215749 0.6438764795848201 1.0754803681810317 1.0922614442941125
