# total energy = -340870.7921338141 ev
CRYSTAL
PRIMVEC
9.20427509213850 0.00000000000000 0.00000000000000
0.00000000000000 9.20427509213850 0.00000000000000
0.00000000000000 0.00000000000000 13.47138697973199
PRIMCOORD
 96 1
Ni 3.998806475832158 4.4925606036613965 2.181004503993994 0.8289082325796047 -0.24661970100991074 -0.6125972098555643
Ni 1.670704771433829 4.08582369163444 8.121359826833958 -0.24757923670970267 -0.1365921694361583 -2.6051062577042168
Ni 6.483850273169425 5.949799829412284 7.1809903451346315 0.8931367035413715 -0.38071378661456373 0.33363843039331575
Ni 5.517327764499441 8.165793464372092 3.6867548611057797 0.1182836009349576 -2.1250321894217596 0.5101968558097665
Ni 2.5609698617706305 3.6646452721404037 5.845167472124662 1.0914818858156106 -0.9906879570249841 2.1293269601423717
Ni 8.744263739254873 1.9619004194491447 13.416019611510503 0.015036582618148298 0.6288293554437105 -0.4946370536982965
Ni 8.657163684977636 4.424191248998889 1.0867248175390682 -1.0293563201294595 1.557556554495182 -0.31981155181255244
Ni 0.6801793544320073 2.7085235942147157 4.99700917860727 -0.7333238730143757 -0.12580947699835754 -0.4225734029628271
Ni 4.592169267656773 2.516844567444828 9.785561777983851 -0.04408259214151118 0.5702161737861922 0.6369923508704772
Ni 4.249972731894426 0.7474929787525944 8.44983278857883 1.1576343132729676 0.7068533375276731 -3.748675608243686
Ni 6.605549197152688 1.0042048104993202 6.7701400426124305 -1.034910160068153 -0.4736383399594423 1.20480300053897
Ni 1.4226863774198357 5.638299550758102 5.45461811853133 0.42202575798947317 0.49473655539063827 -0.17935424299403305
Ni 0.2018948515867861 5.021511879071333 3.5861097957459704 -0.713371598262165 -1.839939272037315 -0.4212292302301068
Ni 1.8173840977533935 4.707121458068737 1.4785517245017006 -0.0943520298200246 -0.6777240242618845 0.9341326863377589
Ni 4.678063561909671 2.3463813945383056 6.3168138518435235 -1.4629710685081128 -0.7748839558443493 0.33746448900762527
Ni 0.4500181743357217 2.7658662274332704 2.27683941524144 -0.35636312568434114 -0.5628093397991598 0.6569919339208556
Ni 2.2136189320111086 6.48467865791897 3.236056490847931 0.44925939689444566 -1.1208220295406246 -0.4974295288417691
Ni 7.825529826358682 9.114625356501776 9.806146218582564 -1.7403805012053704 -1.8953709706430582 0.014214600937485196
Ni 4.297522016518351 4.765182024736898 7.826242237243292 -0.3731812256829444 0.3314100552834292 0.27124778397123606
Ni 4.163719470916724 0.553288298924091 2.7827441064915153 -0.342966392662461 0.36772483055406346 -1.2986140702538602
Ni 1.2141819359591741 6.219181345689562 11.458007077819225 0.07047625164369152 -1.6434100599258923 -0.43708573764638914
Ni 5.739528167152592 5.754595565319329 0.8921979880857418 -0.5282071763442581 0.07448357303087172 -0.3414101039189346
Ni 2.168527188810836 8.41726346150919 7.748889510185711 1.0341092614334126 -2.030259270014233 -0.6159794960642359
Ni 1.5568755025712497 1.3665771170506045 7.6190530866794095 -0.32037385207392566 1.25995933399614 -1.8221716636412488
P 8.265190430042583 3.228500701504574 11.565629904052708 0.5716680757413704 0.42223067491142774 0.8488918747903832
P 1.1894868661477165 8.63392289061538 5.548608493069787 0.031418366410281375 1.1599809591282733 0.83651278439974
P 6.49263115151461 2.1356034971538906 8.757856612567418 0.54842967403872 -0.3301905810540313 0.26621922040839313
P 5.632638921636207 5.223564123760533 9.62255774953324 -0.12644788191330483 0.8387810116086265 -1.100668694521201
P 6.978791752473011 8.142884023909653 7.859597609397501 -0.6165541376207834 -0.35839326874049243 -0.4168143889918628
P 3.1275850304599135 2.7383454451983624 7.93405375111417 2.99014155451227 -0.9786518517960564 0.21647814442952398
P 8.014650064679973 9.192373867384141 0.4448647007660477 0.6319560739981503 -1.2528183520759844 0.32913102944126543
P 2.9391735213132337 6.371116313031245 6.847007704377779 0.5206537894770323 -0.34963017783588174 0.44930259142755524
Ni 7.620661073521028 6.427648970050244 9.198788326628124 1.470430095889319 0.8763959937479229 0.529852682367481
Ni 5.854977388414282 3.8243118304778467 11.18211353698302 -0.14797367180022258 0.5408120095924621 0.6902134149781468
Ni 2.8925906855637784 8.213600468695875 11.943502209695493 -0.45430750084131444 0.9949189643871963 -1.0987694206159593
Ni 7.6078855398280325 5.269916852635115 11.925329289145457 0.8620152995462186 -0.894023477021699 -0.4959701706874233
Ni 6.218721131939814 6.95959163483354 10.975273228441445 -1.3749298113974644 -0.24794124803481168 0.7050365960339083
Ni 0.5852740749590508 8.211345421322111 12.831347496136122 -0.4210914191006619 -0.23376469942411354 0.9398654750564782
Ni 0.9555970342509753 8.122220426545985 10.283099783263514 0.8039088823217897 -0.3950718551084486 -1.4238656178662188
Ni 0.6903491578739305 7.681749846662528 2.0157638367196076 -0.0852428684299048 0.8400981877581531 -2.814778177845185
Ni 8.489747127094443 0.7026221381522003 5.680614364192398 1.5278276599721816 0.4373425908522017 -3.031135994646761
Ni 7.004388841233975 1.713624305735293 11.008898285853006 -0.963303137254128 -0.09469270098889498 0.1913965188705478
Ni 2.3074565155846503 1.461031387048808 9.791597021098042 1.6760363306013457 -0.3149470246313995 1.5595915826473399
Ni 2.9608956103013218 4.316446005907973 10.14050531418671 0.9292928417469545 -1.37241372984383 1.1271659694807814
Ni 2.6091266285442227 6.2879833012768325 9.22182478608549 -0.5686742832203691 1.935575824996718 -1.4941734622528462
Ni 0.6932291755198511 6.086602968662264 7.604597772799836 -1.518933185696029 1.6189930645341084 0.1945846867905423
Ni 2.8540984075348867 2.4123760462521155 1.5659812918237563 -0.11818975566957064 0.1783988210592992 0.2064446714529219
Ni 7.418700871581777 7.712961543170413 5.672841353959161 -0.3830812584054757 -0.5234352088769114 0.13520017418463812
Ni 7.820163734036625 4.124444829513262 8.919095261074 -0.4039917833058978 -1.0450343929863486 0.7570489845454574
Ni 6.34200319122221 3.5691325105177802 7.053200952387208 1.3582181550697383 0.8786683347218673 1.3991745428774418
Ni 4.976097986246237 6.7756165862344275 5.752955363515229 -1.4288119061279005 0.9409602507825537 -0.2842205420818202
Ni 3.8829798792956747 0.04707618488918464 0.4297347135293446 1.0030572772236144 0.11970156432840674 -0.047394430123563536
Ni 7.685707684910357 6.838693482774837 0.04868417173080287 1.5413202951419775 0.99497450021548 1.1821634087625834
Ni 0.4785569493850718 0.8789815696204893 11.34654514848535 -1.2587766265419482 1.5029128990083729 0.505131268361401
Ni 3.5508988417527796 4.808966760887888 13.147009027515521 -0.064152880528825 -0.7091310778182561 -0.5877040461583104
Ni 6.052832483705783 8.186052073635981 1.2052040861290974 -1.1872099700475554 0.322885819862502 1.7836637373740378
P 8.085357305191199 6.485847600843329 2.7316870726670137 -1.210035195472187 -0.736391456196106 -2.0782545669465886
P 4.654169264022775 7.332852598703854 12.961090956464973 1.1281432457923861 -0.36330561844044523 0.04331614628913185
P 1.0569084891204188 6.084228265713567 0.13526326404332514 -1.1927733230679458 0.2247110738622775 -0.07360091331560228
P 5.570638925270206 3.8538483489366495 5.003164997723895 -0.35423733759058995 1.390495012825573 -0.9883076297182657
P 4.368229257029577 6.610381441525038 2.7660935730256457 -0.5140419405874694 0.15189023324580936 -0.1948525957399483
P 4.986627676840462 2.325782227099601 1.399205351480212 0.7298397711205172 0.2154954688012805 0.10968660329456593
P 4.615474491943994 0.14017926731812932 6.022814581664745 0.29379713002666175 -1.0767512644736552 -0.8417848314319568
P 3.326737928525703 8.61366428135149 9.607470101961512 -1.643223397836383 -1.8319256577042191 3.5002106264949204
Ni 8.7952738312769 2.450868324281007 7.301585676546 -1.1502323643819417 0.7163800460711856 0.6833742805691263
Ni 3.7070033456671756 5.065351840872292 4.45143130084645 1.6483470922161936 0.8470365667491992 0.4907418324089484
Ni 2.740517654097171 1.1945584216699352 5.606724285387918 0.13661222404081635 -0.8329770033323396 0.8639464551306605
Ni 0.8761945151520176 3.9757405626948072 12.639542370798804 0.5191404381562995 -0.36937265057013163 0.06353324466695509
Ni 7.116082718297725 1.4944797223804662 1.6412326828999906 -1.1954953499847993 0.5396259597041609 0.29792426482115786
Ni 6.344727656620717 8.849118839997372 12.545269425017999 0.1512230319754557 0.7340167853163424 -1.0521527491986846
Ni 7.587617726289148 3.190385798750475 5.169604061602623 0.7895287023407177 0.0589116867345437 -1.0931186500880852
Ni 6.143881171955854 1.0027689436001075 4.041658818926159 0.44767096936140327 2.1662809116589017 1.4585058336479075
Ni 1.7646620105823052 1.136902843101552 3.6099138917379165 -0.5989400240834459 -0.7562131189077234 -0.9067216413146578
Ni 4.548706681130607 2.105210981120557 12.694559083726134 0.0014544730583394305 0.346909436470609 -0.3279136120943966
Ni 0.8111764370151718 3.1742138875843433 10.103647715396923 -1.6620775544284085 -2.038059739895258 1.6652788349745256
Ni 4.150584970498927 2.501022418728504 4.002779961347479 -0.172913886685328 1.0225161572791746 -0.7655588217886815
Ni 3.17298051473502 8.23569072868376 4.381959274039548 0.004565764993811491 0.16805013083512352 1.0749386367449487
Ni 6.255280512219767 5.722040044662181 3.5679773740059137 -0.6414616994957405 0.16058647546822666 1.0490327155124641
Ni 7.711912255820987 8.65615121472819 2.9173096864902233 0.6254462979040906 0.14827963307641562 -0.00822598745421809
Ni 6.652435773976977 3.5607750288223636 0.014270307952174533 -0.2294655578281274 -0.7690298110564175 -0.849123274074899
Ni 4.925548107973957 7.579803296818433 8.738969440277776 1.0569676540888249 -2.155330840405301 -1.1442859169905197
Ni 3.8975962679876597 6.240802187652706 11.196257746367763 0.9761529966336028 -0.37151257973126983 -0.21581428559327992
Ni 0.1623707743309601 7.306914951768078 4.149173955142201 0.7362973538204028 0.9628043432408386 2.93799572574665
Ni 6.412526346233538 3.834629822747188 2.2660087448548794 0.2678333589730484 -1.1713295513718731 1.2419829520233772
Ni 1.9718502407186886 1.1741525440061253 13.082414346028443 0.0830512600952247 0.48833605118093315 -0.23502891084851782
Ni 5.55927164565144 9.10484121218214 10.41435182426404 -1.8551519752220116 1.1348728512067359 -0.27370832969658665
Ni 9.087178208466828 8.740333513832027 7.562715560290303 -1.1287299715337915 -1.6183410327724064 -0.6188082237622826
Ni 2.9244190684963245 7.033630822892939 0.8177887881715459 0.08849582814956372 0.06037027355794119 0.7787871475534974
P 8.251190727775262 7.409238876886965 11.341075968283347 0.9131229168553112 0.16222401107164963 -0.12854564498259796
P 2.666929475512525 2.8758389050729645 11.719285150390949 0.22860038161435473 -0.3587984745987111 0.5971088844119781
P 0.5343505031219761 5.062397268598913 9.502904935881354 -1.0207593224890679 3.8985102445120474 1.3018960834392417
P 8.436822545873465 5.416356867804811 5.968888575324316 -0.22524971997456691 0.12345023273756159 -0.5772867074797284
P 0.33947575207384034 0.7076881711094221 9.201778795573983 1.4147150617152022 2.39217803540948 0.114337471803016
P 2.2170337180342363 3.6674617802888587 3.6653889775599957 -1.0990049336655332 -0.18237503209822784 -1.3269327146928953
P 8.186981705410473 1.5545744338225116 3.539647535998949 1.334061612428193 1.021185354282893 0.9287320841474778
P 2.090585388153577 0.28243870078511796 1.7063124296793026 -0.0849091392395699 -0.9743524530897543 -0.7712121634197169
