# total energy = -340855.7614893293 ev
CRYSTAL
PRIMVEC
9.39695823308475 0.00000000000000 0.00000000000000
0.00000000000000 9.39695823308475 0.00000000000000
0.00000000000000 0.00000000000000 13.75339823321708
PRIMCOORD
 96 1
Ni 4.749551437265104 7.3165748199480065 6.818618742267588 0.5088089743233044 -0.9103751789068452 -0.14943894349183942
Ni 4.834340188773099 8.01374452660096 2.1694888357422952 -1.4851815431668811 -1.7568224488114776 -0.6422116902878876
Ni 1.0790150926140907 4.57193953520896 12.093445093341233 0.03964846762955752 -1.0359568561651125 -1.3409673384090905
Ni 8.767831607506814 9.081408094021471 2.1287511436734206 0.8649998360958394 1.0310815303506824 1.873778074963631
Ni 8.016093766086385 1.9225518161670236 0.6831832744525211 2.0456041279014188 0.13905142960992825 -0.9118350512818232
Ni 2.0488657248194073 6.524166944555884 1.7227508773231333 0.9956090484756853 2.070781141387679 -1.0256274492146464
Ni 5.8999176315305535 0.8840310344111175 5.569658725581988 0.4792934813626907 -0.06521783145822961 0.199148909122457
Ni 7.259535285241864 4.097966373587357 0.28677730216071345 0.48425776734650156 1.0307611708967859 0.1106088579985192
Ni 1.4037457682055519 7.9838622003463415 13.559213603049415 -0.17344044861275937 -0.7563810119441554 -0.5113068010444936
Ni 5.201507526429295 1.6708167098667182 0.1362746840705898 0.630931746498694 -0.336268154706679 0.26404201025141627
Ni 2.5056800412394584 4.461685027678948 5.302869692659073 -0.6484540716531735 -0.9369264470328122 -1.245431829803926
Ni 1.523547585004335 4.601784273631811 9.291286330562047 -0.5074552885088873 0.5804247388880778 0.9893612677937605
Ni 3.6614588832793284 5.433884899369691 3.111981164596135 -0.6131672234264214 -1.022629028707955 2.5333776217106627
Ni 2.9451193824252995 5.832475664382945 12.79613363339335 0.8878625996266257 0.42711037160123216 1.1761673390801488
Ni 6.459515873916962 8.809356764651202 3.457108877095859 1.4454029777173623 0.4402358532395967 0.7979318388027483
Ni 3.8017554653489674 7.938944741384996 9.136850145877524 -0.786232290977633 -0.6656722353036729 -0.2191847447274096
Ni 1.4497156864563674 8.978689946760706 4.648290758181099 -0.31538745460292783 1.522705508254268 0.862252098147373
Ni 5.880409546843575 5.6190049708212575 4.314578470188956 0.09242010290463439 0.21497970550712653 0.2510224580632967
Ni 6.6576413351598465 3.773442431070613 5.93097363783209 -1.3612219748930687 1.6444176752548 -0.6854805282788518
Ni 7.4420617963015205 9.131503276808695 0.38868731103849213 -2.124851697979837 -1.3437047919449117 -1.2357824796396202
Ni 3.4758125821830266 3.6690234344224 1.260272074655823 -0.20359486070895258 -0.6026686378879427 -0.5557976843680169
Ni 7.889732872644294 3.9441757599134317 2.704372139046228 -0.7453458371759163 1.0812244697536604 -0.15021078866085744
Ni 5.636323564307817 4.739524883141307 1.9221064003605868 0.4051544361554313 -2.6743455516170136 1.450002938383219
Ni 2.54021386167522 2.150042770977733 8.329938065902383 -1.5351972129633753 1.010162777920144 -2.151451559955553
P 4.146341913071249 5.99199842240131 1.2257232190873544 -0.003940472704986762 0.836860654657462 -3.1644168403214987
P 5.17026264127313 8.642081516330933 0.050900502082827453 0.08169628872922703 1.3828639786428767 0.37516380333061194
P 2.1629447942316924 3.570289597328917 3.021993076258996 1.075870918751231 1.4650030113364767 0.004386301993153736
P 9.159186714904955 2.8400519956791084 12.133577621318661 0.48743256553005737 -0.6662036823271107 0.8629213563002559
P 7.252027115846443 7.360176704797513 7.696112313038661 -1.0735504981481707 -0.4117775978989037 1.1016287444416255
P 6.70360185645272 5.006285725190397 11.897583359266504 4.66629975540346 3.703445275650977 3.0679580485711164
P 6.07373316257825 1.2658172195372221 10.226902905289942 -0.16359980837325372 0.10104666823138081 -0.3302952249526957
P 4.125931720421868 1.1518133257884708 4.374667317747181 0.3467883375117124 -0.06983424718431844 -0.10579626710122424
Ni 5.554851938953245 2.771266263545835 3.8061288095750365 0.29354978990254604 0.43399578586715576 0.17968694374310346
Ni 6.251194713307329 2.3161058117235243 7.514485090854026 0.6489364106062308 -1.5106084678804177 1.5215274287857667
Ni 7.111072746720884 8.12547435652782 11.627232879283683 0.6813685629930072 1.4371461370252088 -1.4855217001151189
Ni 2.6923694046672897 5.535315663392442 7.323092549976373 0.28117687015948994 -0.4962252241210228 0.6252807188605037
Ni 1.170278348143919 2.201650863993571 6.022888102547278 1.5438278920551798 -0.9004864590382233 -0.052822800227986445
Ni 0.5600953414615244 9.349747625004769 10.832395890263632 1.759924227665253 -0.3500284417155649 -1.5782937870425333
Ni 7.155416991247785 3.4654289436574435 9.639715194386689 0.9867348859145071 -2.051465214667886 0.05929760931905271
Ni 5.026348230395935 4.372122621536568 13.06487535417655 -1.229547554473502 -0.3699820020193564 1.5944431431088861
Ni 5.9516384880416915 6.80617904934436 9.938040418161965 0.40044546071553616 0.2566706574880096 -0.4602207810019558
Ni 4.7561011169504726 0.9043801468338774 2.2225901053750694 0.1110577726104797 0.7726620084923661 2.5770789192533554
Ni 5.368754583875741 4.34973906771943 10.755143499024884 -3.4784179560998614 -1.0940491323221546 -1.5448488771205264
Ni 8.851483327103862 8.799283225737696 7.0218664852844945 0.32827150965444757 -0.4450340459591884 0.26091580591760877
Ni 0.4395333107652577 3.4167714954353006 4.122814749472605 -1.303841894311703 -0.9012217945423511 1.0199931337470045
Ni 6.253290234928328 4.889895004124453 8.288333974311282 0.09152175946008108 1.670648326816555 -1.4156532572587555
Ni 8.006161181542003 0.948134262402039 11.613520838255148 -0.5646348230436726 1.1508687124143602 -0.04312665598614508
Ni 8.806255768530441 2.5443673170854533 7.472495723987316 -2.905060922691842 -0.9345556328077905 -0.7448285312198656
Ni 2.4089947409772674 7.660428304950835 6.622109557790676 -0.33310106983260696 2.1235298938446205 -0.2140816191728894
Ni 8.335787672221093 6.6047270649901115 12.738094262362209 0.6860849946320701 -1.1852029669198556 0.054573721480822145
Ni 5.393600140673605 7.002556676410088 12.359532173505904 -0.6024670634000979 -3.9710652330616387 2.0222651960651623
Ni 8.256336392823988 1.7890398377312948 3.2176076703398575 -0.22912540087988928 -1.4978869065486915 1.0176081784545958
Ni 6.550967068605624 6.50412323326623 1.0029128890274077 -0.17828414985830587 1.7204403106380175 -0.9016282859521505
Ni 4.759361861356244 8.7432679594472 11.273303036279966 1.8469303586431676 4.950698732044673 -1.3960650507141827
Ni 0.8773798675799794 0.8892472857645574 13.600019892911263 -0.5289664231077859 1.2979072739948228 -0.015464671294502401
Ni 9.312554465471504 2.552664830947978 9.628932185148585 0.6429043454795379 0.3527116449746829 1.1074216969743185
P 3.151673914941892 3.778563773148842 10.420907800475389 1.6247528498360213 0.774769284643356 -1.2957447191258653
P 6.383720011159178 2.277869589858731 1.8250762317419351 -0.23720200724043664 1.573641632982503 1.1062220202392625
P 1.468706938456551 9.040042685162092 2.5425631011606464 0.8892659077320555 -3.1885993511049726 -1.3201763698056683
P 2.9475813854060258 0.5058767735294813 6.279085824174099 -0.11773004242433273 0.5733158957574385 -0.1618010646016181
P 0.9399025272451064 3.890096266958926 7.396508163287522 1.440927972665144 1.069452673929713 -0.7148003602888915
P 7.834187454250882 6.160504672211943 2.889864330032286 -0.9950225798445961 -0.5303964706860931 0.8014825322684842
P 4.131259795574814 7.2932139825049305 4.367790623925443 0.9899899025166952 -0.3818003348105231 0.27806532111370175
P 2.9614137074962135 3.2871028727977287 12.709528449915224 0.8706817169719651 0.058508794869170204 1.3588503893370985
Ni 1.9651858143485343 6.687720997531241 4.461368350196313 2.726798370100091 -0.18084394016568212 -2.6181818599412523
Ni 7.090690744945329 2.893689831610354 12.021267059391006 -2.283281017895745 0.38401122641891283 0.08378710981998473
Ni 8.80410386516179 7.05529240437893 1.1921337929247338 1.6889137007846462 -0.7895459287318983 0.07916735165978624
Ni 1.423235058976646 1.6201483126450509 2.4131989399603855 -0.6412570396841021 1.79639686866999 -0.3277819716125387
Ni 6.808124219638293 7.679898801806045 5.633144573436139 0.731692765168856 0.25577128560219176 -0.1390565718162508
Ni 1.4438519847007443 6.64668448219982 10.743508185701467 -0.5892760186311207 -0.7163864738290888 3.383386640824625
Ni 8.37128937932485 7.257242427504088 9.555049543027732 0.4594998436755312 0.8479976451108879 -0.1358015552140629
Ni 5.404171718358023 9.334552744013033 8.301096922587705 1.1300425196976278 0.6219850788283675 0.2449981062460877
Ni 0.5739859246909511 5.313688410337356 2.789986883157298 -0.9598313766554437 -0.5036500558301842 0.00909939119810691
Ni 1.4932423956423397 7.367252614127616 8.836241461322418 -0.5730521005730905 1.0874388260944885 -2.8377075329478485
Ni 4.597997299581305 1.827905655778182 11.834922564319633 0.13903677432190892 1.3063340646059374 -2.7866654787693683
Ni 8.618918015004631 5.2153962302671335 10.739257941624434 -0.28140364145831537 -0.6257175492876063 -0.4787419797345949
Ni 8.521612515518289 5.234415673141142 8.180081018822854 1.102951834128423 -0.0024749439030538026 -0.5573141210125434
Ni 0.9339044489909168 3.472937113052865 0.8658216093116837 -0.3739517853003818 -0.008752292271333314 -0.24921831497502242
Ni 4.198156739161805 5.445151851941793 9.15138723981334 -2.38787452293812 1.7598586645346401 -0.41300452832746937
Ni 1.6656295890828976 2.4906449085327322 11.013074959391949 -0.09031076987111543 -1.2683102770639962 1.426211492390576
Ni 9.172661952593359 7.254047461803909 4.319171703230861 -2.1244356934883415 0.9170610755674529 -0.8014257108886197
Ni 7.999442356613686 0.6332995232189861 9.344938261930205 -0.4425873841909087 -0.9742069286508254 -1.5686680910273114
Ni 8.291988451254811 5.121097757322135 5.229674907859552 1.0424946572836304 0.7815379708257572 -0.445741099328542
Ni 4.671801007255447 3.268440514325505 8.8888897975824 -0.5917828442133743 -2.459566135046151 -0.09307367732823325
Ni 2.901846391103753 0.3838582143522505 12.248390593146194 -1.3723389107418364 -0.6744605230192643 1.0071471310222717
Ni 2.9807620438981823 0.9390041780658794 10.00240582127946 1.3929876973404396 -2.2696045488499172 0.4369918923810022
Ni 4.05264484543452 2.9565554802403526 6.5553920961003715 -0.026757984820134563 -0.8542125156723482 -0.8658364730645217
Ni 3.040263581585051 0.22635486259555745 0.9125367063272762 -0.47549107689746495 -0.7891556352720152 -0.029615765983903836
P 7.856740153310971 2.24019718547044 5.437103357464724 1.5532116472629252 -1.3437320456384214 -0.8166574402367097
P 8.309269456909606 9.297763653671263 4.96181368203549 -0.6600618310954309 0.07913058488457984 -1.2671573944064758
P 3.474863489430914 7.292142729299576 11.224932195275045 -2.5864225652517843 -2.0195048597112057 -0.5306337835078797
P 4.956538229847016 4.944472535849869 6.591535615431548 -1.7836053733322768 1.0458018672799925 -0.5207869726207871
P 0.7463759372188914 6.253825861531005 5.990745807907681 -0.8908810747379755 -0.9776318951719744 2.1981391938200785
P 8.94512401299294 8.856275775654131 12.58756345339826 1.2181475401666761 -2.803816022406726 1.886684241502338
P 0.7150464794412508 0.7273414592121761 8.263013871137362 -0.21434695701913406 0.20358226230346227 1.106810545752881
P 0.8996703915134953 5.548527786258478 0.08594927581379462 -1.0492394322066316 2.3389328029320944 1.8864965509715639
