# total energy = -340895.04205909924 ev
CRYSTAL
PRIMVEC
9.05863651983018 0.00000000000000 0.00000000000000
0.00000000000000 9.05863651983018 0.00000000000000
0.00000000000000 0.00000000000000 13.25823020778835
PRIMCOORD
 96 1
Ni 6.3861122180860495 1.8096256825881964 11.579459283457549 -0.3350548511248681 1.1241701200772511 -0.3640442963786827
Ni 4.4815248497895706 0.3983308904709937 6.043684890622927 0.034681610542585437 -0.11738422904913977 -0.17590459388253576
Ni 2.588813353854397 1.553030747037992 4.824815465304586 0.23294657439819236 0.035905712757673645 0.3560602497319416
Ni 3.509062111627262 4.2983229866049575 4.761136874647814 -0.6854658729908324 0.02657980737105745 0.38002113142291327
Ni 4.913549338466417 4.62254064311408 2.644433381541972 0.5159353009554405 -0.36459219846235275 -0.25360564540944064
Ni 7.212984551526093 6.095384340463078 2.648834972983893 0.7702274309089445 -0.4130739481128241 -1.4408575244385249
Ni 4.7735662296950645 4.501607846757544 11.423091818973084 1.1298556004978024 -0.12280822827818849 0.004839073259856182
Ni 5.74698012468265 7.9116681208282085 12.314602052667965 -0.8572248201361108 0.03847527325706277 0.5508452254587481
Ni 1.852953140638632 6.436623174826427 0.2826747498356327 0.5201822491572524 0.2802697849641883 1.0424422067791401
Ni 2.879776756024579 1.5415172201339353 0.41181285907155046 -0.33511604338010675 0.16567931661010177 0.4925305488782549
Ni 0.3960743841359815 -0.1782947998298309 4.510463569732686 1.8344895617766535 2.097583092071871 0.434918040571109
Ni 8.637446071696047 2.325080212796406 1.4776429629302497 0.09227020759033142 0.7521435768240401 -0.366532095797543
Ni 6.947240393180375 0.7405054819776851 4.8299598649338655 -1.1793084558122915 -0.32560244746271666 -0.6503859985685637
Ni 1.0135980061963932 7.312176620447745 2.5230277243637276 -0.6467293756525829 0.18813918827551468 0.20510435537494354
Ni 7.638948812430465 3.8459890350493584 3.6740144458575763 0.6783050935763351 -0.37170309847552113 0.002388554836834596
Ni 7.60285920488856 4.056511745710473 12.761007126679342 0.25626082364410063 -0.830190441726138 -0.9344846703605388
Ni 7.980713047706823 8.889774389487155 6.816719030161412 0.4028661543418868 0.5528028634057511 0.8524189141070352
Ni 6.860956881173184 0.7226880499811555 0.39445651166936896 -0.1772189418185851 -0.4345853398220386 0.40940087013661103
Ni 1.8560240183888088 6.359244302431106 9.223671199023014 0.5304898017308477 0.0948708784379721 -0.7232214944730512
Ni 0.18346909295933303 4.782742628399872 1.303566770086429 -0.29040790183945475 0.4737884923840614 1.0002280353049355
Ni 6.288931166452122 1.9189271897670699 7.038794219863239 1.2422513751934154 0.9904511584238298 -0.19942221738850172
Ni 3.5465920423617283 4.40376551466414 0.46591647102054257 -0.44777124238469335 -0.1461340474883225 0.23023123234955833
Ni 6.2193155454783415 5.5104410101911245 4.706432675103433 -1.6684500336136556 1.3955788551063835 0.4617066215188629
Ni 5.198488747409851 2.7659187547208113 9.394079549975842 -0.0743853568901106 0.2327894799950378 0.4018629098883531
P 0.1733451608838226 5.640930667982578 12.477532499246834 0.45309959657614224 -0.9487257536605854 0.6577995174238155
P 4.049192367474063 6.265876936734716 12.570313771166127 -0.47237952785167675 -0.12302857181911069 0.5923785688158443
P 2.5576788204403584 8.460594312649706 1.4640396086015146 -0.2062667511141609 0.6477830137280779 0.3326197593208142
P 6.390079900842915 7.750505920080708 5.836418759758828 -0.24043362680385688 -0.5336342608971003 -0.9970684066300313
P 4.688188581330995 0.8725767776900258 12.64558016954569 0.37023705545295593 0.5681343515564989 0.3017397819125061
P 3.9390755830163817 6.209278576312571 8.151106904841361 -0.12253594845340833 -0.040556067045491445 -0.44920617505900695
P 4.692563902727264 1.0213521989815013 3.97652760947754 0.9890463076565031 -0.2760500904558859 -0.9262471129420952
P 0.11717708569215969 5.562319821032614 3.7447071387030277 0.7635520757712979 -0.5752120843388868 -1.1618262398671282
Ni 1.5073027503332883 1.0776516244014167 2.6749274693603247 0.2576361067250724 -0.12229503608719584 -0.8939982802107185
Ni 1.8034929857242732 6.495830422540758 4.964252338299136 0.37008407481485944 -0.14801378100953863 -0.9018239469027244
Ni 5.938298526109619 5.981200228247787 9.005294650576047 0.40615125285106185 -0.802343851827515 1.1436822219682496
Ni 8.494129384718013 2.407858032504722 10.462891756947691 0.6814325834617232 -0.04885121717474812 -0.4561221854525499
Ni 2.265972610082818 5.118446635903756 7.029407660793227 0.9361232344052265 0.7595822924902725 0.012118380530088808
Ni 0.6010903497105696 9.06506806306733 9.071015963748057 0.33344739742843216 0.36648401616842685 0.4205311757218177
Ni 1.386098194883817 1.071727276175411 11.471245718514064 0.20322076519898546 0.15539978906096463 -0.6136940424641688
Ni 4.237467067060148 7.006393289076119 1.7593674618042492 -0.14732935334800434 -0.971606772023817 -0.7151220052943683
Ni 5.713354466250032 8.076906707969748 7.827593104382943 -0.2641829067046547 0.05840595074271877 0.9095357137246852
Ni 5.449422035190554 2.9257312186400624 4.805246998885905 -0.052662620501038336 -0.01766784959340828 0.1451534287426081
Ni 0.7349724668455074 7.364037314016373 6.984329168320642 -0.04571010044260515 -0.07795250541607865 0.4057763860101464
Ni 5.058813632277158 4.621933714473189 6.8647796257471505 0.8794242390512854 1.2031659791561793 0.0806022843340999
Ni 8.275363314904505 7.227523662998171 9.088609647424734 -0.5397226331830253 -0.0805050966346033 -0.21342650208739372
Ni 4.501779960849737 0.30672090024225623 10.536435202678042 0.13473454740212926 -0.36740189999700595 -0.699035384145151
Ni 8.224843299527695 7.190818068178943 4.7776960620440505 -1.4841507879095215 -1.5337710220398102 0.3759978691961331
Ni 7.397264392446019 5.881011709318702 6.917560676777187 0.09110395519637213 0.9230620303458942 0.5968818560028366
Ni 2.3465129465926275 5.313950127361941 2.64159621661172 -0.1733923689836433 -0.6078540387436242 0.041599934928973514
Ni 2.426627527190171 5.1253402582279 11.548329279361726 -1.1374676085171056 -0.06013733161152869 -0.6066661890831101
Ni 1.0196401166960043 3.251180849703827 3.7229510115862117 0.453176986781297 0.7280410273488817 -0.3132256710649186
Ni 3.707708949927073 2.4890143562918534 2.771301396488231 -0.38756217699496476 0.7468383625610429 -0.7718222861998901
Ni 1.0378479759227188 3.374858412899017 8.142595410050603 -0.7996377657502616 0.056438799714018925 0.9818413052676316
Ni 3.711024410860892 2.9704718239737646 7.340339921112349 -1.096711509645666 -1.9142793775117868 -0.8229108773455892
Ni 4.105038861072418 7.0584442140098 6.06444728532324 0.14719822708677874 -1.0714951582810386 -0.6791692413488433
Ni 0.8350930460013585 7.174494405329918 11.112703982703477 -0.51834545305883 0.9262463416111468 0.7679160091669484
P 0.18200884076662338 5.540687797234906 8.125942918699128 -0.11885875671213723 -1.3157098493938824 -0.4697215214035394
P 8.519937439910505 1.6778768743328065 8.079949503946988 -0.5022804291761672 0.05261634064413519 0.27749710731505756
P 1.7705014318418388 3.2990648018791564 10.396719323681411 -0.7338324372196781 -0.7786601350573299 -0.5709779916528811
P 4.053096639775911 6.224950017338549 3.826643411086885 -0.21795292920283754 0.32193579724440685 0.7783066083726532
P 6.7442272921207245 4.3615975620768985 10.659166138366173 0.1302582567983305 -0.45406890246794707 -0.2770903587949421
P 6.511211987200937 7.89177535522529 10.214750340915085 -1.6579409065522155 0.8506895901207543 -1.310124127775989
P 2.2636264232471373 8.530889331355826 5.8643673707400135 -0.317811233553072 0.20032981680443565 0.5222216481847846
P 6.7735682155213865 3.9527903585732207 1.5687139642913306 0.5823216988004746 0.4486731853736724 0.2575489463279048
Ni 5.281556443483965 2.7613079087773293 0.4258002995849682 -0.32563381492128435 0.14720851149942388 -0.21822006682129516
Ni 1.4660497200255984 1.2078514058270713 7.049798651399861 0.03241338333369902 -0.5506554780454452 -0.46748131921911107
Ni 6.735422297509597 0.9102570817892502 9.35690290606219 0.5341497670809382 -0.8173724640258634 -0.9002460608926431
Ni 2.6957052637425707 1.458476699969114 9.0873631790518 0.21021545134926378 0.6887144618351172 1.5155138756018351
Ni 6.309276863876601 2.0603325044581204 2.587277009115665 0.23641422123181866 -0.6463033438587579 0.3549387345329887
Ni 3.9832454942549185 6.789049425182308 10.387160650519206 0.5253244554798243 0.6758900563769391 0.1857298075030737
Ni 8.324651355726669 7.508749031004811 -0.02966794017582697 -0.07476639437861317 -0.07105295008276796 1.4124036399732063
Ni 7.353819172121978 3.8533718237407877 8.686686101745126 0.5255514838889658 -0.3637568470452509 -1.4647021922666066
Ni 2.9191365313181477 8.29110722502193 12.494980338876971 1.153744234189942 0.3252370937034979 -0.23504125214369198
Ni 0.007511421328752015 4.763909723259404 10.422188585871377 0.443485727635462 0.2590520132359926 -0.3258898967961484
Ni 8.71492458909211 2.1737738084860525 5.725685988023825 -0.5352746247140008 0.41425099914006075 0.24303326921023302
Ni 3.4678815504110214 2.5375142957445047 11.391034210506707 0.6106539700862644 -0.2821070952832431 0.5956947776732708
Ni 1.0236168580893017 3.2901692209037163 12.679348954433921 0.15433149569745033 0.16520006298083809 -0.14736740567479137
Ni 3.0105381729089675 8.373495523363706 8.060420895528607 0.5706267789610495 -0.5903000890202609 -0.15322463578651674
Ni 5.907082464967699 7.922638129546392 3.4936760176488666 -0.7245450983804811 0.20974879612549038 0.887665138903839
Ni 3.1172126755227927 8.420691019170263 3.881558676860113 0.7950406332978824 -0.7670408056508468 -1.0645868611969795
Ni 3.4452893111516056 4.344322742402597 9.257903786096524 -0.3415767114037859 0.4254152432869964 0.4349357811829219
Ni 7.462830802935052 6.442040239412285 11.375097351433293 -0.576984088637645 -2.186766947427395 -0.2515302509376507
Ni 0.6844732863324902 0.22969440880410952 0.4621444548105904 0.6033479233431545 -0.31570627139492724 -0.061065756963069026
Ni 4.748962973147923 0.2552895860404684 1.7440275668716532 -0.3407573008262841 0.7038284346584202 -0.34369298641584034
Ni 5.8718896624324834 5.542798459523375 0.32913830781854975 0.05692576665276647 1.1954758096007734 0.08576608792322649
Ni 8.134265993852114 8.962614885030444 11.240022211880367 0.2435724295431547 0.2901819018715776 0.061230050455075194
Ni 0.251613591376687 4.5550085085194745 5.785771923471982 -1.6675581179270054 1.6096558462935826 0.10185913683034717
Ni 8.173879410965757 -0.2396996727423712 2.2894045849394065 -0.2548384893752772 0.14300038695534728 0.8665113876443592
P 8.47269665092179 1.6482279572934853 3.524183693421866 0.0004959657998120491 -0.6773388730083237 0.5368316847884755
P 1.9070603760421962 3.3276719757288897 1.5530959692202966 0.07435604631407194 -0.5817123473512498 0.2130567774528008
P 4.699865163690813 0.9904894246603989 8.133141817071003 -0.7067162977291764 0.7100607887213771 1.2096240760766974
P 8.51221948167112 1.6745795306718494 12.601735463355034 -0.22354482146831825 0.10955084904765003 -0.8876635962419421
P 6.546078678824631 7.748331847337219 1.2543059051735572 -0.8141583279639398 -0.5593833448367462 0.481495374110016
P 1.818965136748765 3.2116489603180653 5.943319728283434 1.3180613803451946 -0.7128645767187595 0.3226765320651733
P 7.01696471779133 3.972012785080229 5.977022385125718 0.3486665283710318 -1.286239093628275 0.48687052237900025
P 2.42262360988758 8.429967062875814 10.318350342324159 -0.3397342588784084 0.8689701335974969 -0.9441335063042128
