# total energy = -340857.95142014144 ev
CRYSTAL
PRIMVEC
9.40292159187738 0.00000000000000 0.00000000000000
0.00000000000000 9.40292159187738 0.00000000000000
0.00000000000000 0.00000000000000 13.76212621159439
PRIMCOORD
 96 1
Ni 9.443260303230364 5.5210477545585945 8.59491553715496 -0.9923473470052782 -1.1817530606980422 0.1766335016287603
Ni 6.097174174257314 7.767264721308424 7.0969774430165184 0.7856630487377243 -0.11694199930539859 -0.07706136106037696
Ni 1.9133347302892834 4.128775934089693 2.6680226343783136 0.49886806106050857 -0.5207206381592258 -0.39329959369937423
Ni 3.8152072989423487 5.307601430405881 9.377994623232834 -0.8792463187125245 -0.7055287051789785 0.5099700845109412
Ni 3.219137282171914 7.133460779479626 11.388421102830648 0.27334940369527116 -1.6035767299790384 -2.4585428359879593
Ni 8.966353514036465 2.4955542432942135 12.253921499673305 -1.4477694210670098 -0.2534714338244215 0.3340325805079408
Ni 2.1081068518090773 8.32376724327557 5.0124963724438345 -0.09914636588487441 -0.17232407562012905 0.7501946806277855
Ni 7.653461159140129 8.799902992884425 0.7568411731740953 -0.4498373808851027 2.1186008319741187 3.91290302289861
Ni 7.713150906528738 8.38167983844987 9.967096134680379 0.4319993242624173 1.3461640521186815 0.010600658333981744
Ni 4.331531136191233 7.756300914525954 13.243459598737465 0.30797136464451474 0.4513396764622421 1.2694701017000525
Ni 1.5793899636688586 3.663397126984394 7.458453024283937 0.9786886185712628 0.5900062119289258 0.9822436829123729
Ni 1.0271187564976907 6.4296238763164935 6.818886031703016 0.9694323900803176 0.6542351971113249 -2.2983859918579834
Ni 3.3649671958848852 0.9156696859403136 12.653491137902831 2.4134107195360115 -0.5011373167106595 0.5760093834292016
Ni 7.175783330361185 1.9669689960587584 0.47669428316192325 0.7749392345623171 -0.5787239541468872 0.20051853577647402
Ni 6.052660742603617 8.127236775385002 2.713575088887469 1.5875597857254917 -0.11506663665955667 -1.9435565292093495
Ni 6.664424235806248 6.373215748625211 12.983506423516058 -0.9736927080185683 1.3853052410945175 -0.7783156072337176
Ni 3.7381785638119944 3.4577458249780495 1.2093549027152644 0.7562835671343426 -0.0275020620750107 -0.02110258630657011
Ni 3.5735334036395705 5.404583165529717 13.391126843364066 1.3985906453495138 -0.28332219863726693 0.2859814906369849
Ni 5.4930552564527515 5.128579202848897 11.251873753487878 -0.06655274821956926 -0.4654151807187017 0.3863966959319539
Ni 5.301705798456816 2.3976134101499547 13.041032558605655 1.2573355232200474 -0.6971469088731864 0.6091447325305896
Ni 0.06649746274925086 4.861536224613784 3.707572053454413 0.03645798571671786 0.6678695000653079 0.5252254680081149
Ni 5.8553686380497725 4.5880992595758565 0.07933339125589711 -0.3585845588156921 -1.5134950453995935 1.424208088807302
Ni 8.995342721849806 3.1074399744798398 6.512830331048977 -1.5005672815943318 0.9519159784631089 -0.28846234807730964
Ni 2.2911065152742807 1.7225494475994785 2.310330788830678 -0.28134219209276057 -1.3448401911009353 0.6512879415575429
P 2.393494930415202 1.1324314803087214 6.385558023738993 -2.9201496987041646 -0.8579069338047999 1.7255503781710733
P 0.11137948893628764 2.412310176874655 3.259917753883382 1.124592038106018 -1.177897691507694 0.4787918591359238
P 5.955848260071619 3.2009614343927426 1.8727366752601309 -0.5556105080578754 -0.8329263526000624 -1.4539912336070056
P 3.3948684871098025 3.19562057482804 12.751477105071581 -1.4202743009705348 0.7035103891973691 0.060631240528811706
P -0.15676551173013437 4.010750460047187 0.08993988701115092 1.749283460121955 -1.533248830987753 1.6838895080971776
P 3.111915765241809 -0.18755161789350008 0.653666673773299 -1.2696397945086972 -0.49289873085095115 1.7403997844790804
P 1.9880691525080398 8.81357484113632 10.546261578694788 0.7859669531313883 1.2774796022680903 0.11293184970474097
P 6.213225034728364 8.30161395958818 4.753176954149647 -0.2648141125307504 -0.6132677535600277 1.3761055768731203
Ni 9.23956480895194 1.1668837856697585 5.180312197836712 1.9441900490282902 -0.30009530433054765 -0.9432734722967625
Ni 3.1618452798343597 6.60115197522371 3.4998464669058627 -0.09172050573444848 -0.3903903904723793 0.26320305928988863
Ni 6.4387541133540385 8.88722792735166 12.710094846366907 -1.0885068623476868 -0.8115859392510733 -0.2992671520022975
Ni 5.974174554599092 1.830081260947956 9.040905519572908 0.0578117688021456 1.1819016704607646 0.4863331618182915
Ni 3.7549251674823023 2.986414968393074 3.7903506752464144 1.0269523386736572 1.9158420940132164 -0.8783824280503325
Ni 1.4915854801914117 1.3199633520665068 11.825079625685195 -2.407604397266879 -1.2808107235238524 -1.8617303997704777
Ni 4.686764117696317 6.173083961697176 5.545792483485479 -0.3454940441803211 3.0051339141560436 1.8899510851790675
Ni 1.2874950631986952 7.423108381647037 9.07192481819614 1.937928641499611 0.6154071685005337 -0.09447261455828891
Ni 1.5886800503764744 8.154646292341177 12.579313368652791 -0.5009506546211502 0.34497468134174136 0.5904690104979573
Ni 3.8241870892315926 4.183143627757137 7.020074707037868 -0.04697456897732555 1.6213032007245238 2.4778060550929455
Ni 2.70548387470538 4.797445909837355 5.060733361117994 -0.29089204056472484 1.0690857775085973 -0.0008988576651855487
Ni 3.966660159873087 8.823457311915375 2.977091971459267 -1.7410600437708985 0.4030361042608478 -0.5432069921871999
Ni 8.384068180579154 8.093677747592006 5.881864191010016 1.2347728074281832 -0.6452620470784372 -0.17186179127172982
Ni 4.521771049418445 2.621600409605541 10.93889468153544 1.2030582499337217 -0.4166053583048503 -0.5156028573166862
Ni 9.132117621899381 6.614447706604853 10.660294572154243 0.1601635289981951 -0.18728095404027745 1.3225857505781093
Ni 0.6478095938034873 9.427369365441022 0.5857775786022597 0.04879491001551597 -1.1129194868640961 0.3328722416512525
Ni 8.937571170502041 9.561643088300086 2.718996813579383 1.2029579769104315 -0.2109358744550561 0.42645036941973
Ni 8.582046698422124 7.507856915549609 13.155299684817155 2.958562237044092 -1.4883758817344626 -2.1243084238818577
Ni 2.7621552842061914 0.203930567322646 8.432743345407742 1.6431249245853055 -0.3508565940438151 0.8757203078371371
Ni 3.080933138013474 1.0766721542194881 4.5356525828257865 0.9375393980264628 -1.5625807471826507 -1.4419438155241682
Ni 2.2365037485626154 3.3049953608432108 10.815077007683328 1.780536761709282 0.5640406411030995 0.458185752849798
Ni 0.8380485667385225 9.078558579504058 7.292867571934629 -0.3190343073268957 0.9277339819002668 -1.0860010652066974
Ni -0.7981406861672032 1.3110775909949512 10.12765854622077 2.219239466133804 0.8034309142441066 -1.3429221481426163
Ni 0.2707543114572757 3.7776708352411306 10.143732840984606 -2.6108716994330843 -0.24509477972495208 -0.4583382192672622
P 5.496919857299746 7.373799459891228 11.32285829050522 0.31246359608791346 -0.6758301496732813 -0.6916210939589509
P 8.018586014346033 4.622513953249818 5.16299953827592 -0.31355760048304065 0.6963817485723877 3.786939536820891
P 3.646001721712036 3.0160811865737704 9.106137349052071 -0.22197953386372737 0.2963255528754703 -1.95827686613866
P 2.2780176481720527 5.871109129090814 1.4084570697096097 1.7793039177434453 0.16018461204411766 0.0457365828051664
P 5.645072292689621 5.323426547742842 8.11434254876339 -0.7479627059734731 -1.1017447011941994 -1.8259807529746939
P 7.499535329784185 6.558509725002011 1.2228499760379063 -1.3226595412388382 0.844386530720862 0.9156845069349004
P 3.0564949443362535 7.268007187069987 7.182866551329653 -0.18196314137178984 0.06210216864738337 -0.25419828468811706
P 4.728964430594879 5.012706997891457 3.838050757087573 -0.10927471256812792 -0.007647746353244894 -1.8747643501363003
Ni 4.285165328949073 8.836978713418969 6.045137464896365 0.13772808281281443 0.18093727121043676 -0.054386802280996654
Ni 6.715256430888608 2.887242352497097 7.057466365743846 0.22321752003588655 -1.096911541471614 -0.3231344455381983
Ni 1.5386941182533103 2.923076887358154 5.187096405892931 -0.2856089377889146 -0.9173503246730976 -1.1079068641408532
Ni 6.965947728167706 4.105701164068954 3.564638239646246 -2.953243910154972 0.4828107504873298 0.21003110325259955
Ni 1.5039221135521323 5.236026389901455 12.7454357278351 -1.9604941855049522 0.22221144736887538 -0.8492891102288018
Ni 7.517410284066752 5.933168412765172 6.932464864041036 0.5294824435122558 -1.3220949269846198 -0.0519185432461622
Ni 7.726850963545941 6.9015753257382135 3.951009936881026 0.5587482823559087 -1.4272463614129935 -0.9002910551979656
Ni 4.570863703973569 6.389896531843136 1.6205042391031204 0.3889279469942399 -0.2572800089372343 0.028014997155687234
Ni 6.71516240167092 6.451560892803203 9.439992787915692 0.7055690714986107 -0.4105892340177574 0.7462755480790374
Ni 8.27773053829532 3.5936932679119677 1.9651495306964875 1.4103503569886033 -0.2096258973943809 -2.216706158188989
Ni 1.2076642573812264 2.1416658796020744 0.36420524945691224 0.02172582171286581 2.42429651321058 -0.9102206556068518
Ni 7.234899499521894 0.5766304163055301 5.669734275904939 -3.546042083006738 1.7045069272372129 -1.7247242827253524
Ni 7.44767821622902 3.9808585717440383 8.926101486528406 0.11797326878339037 0.1770471921274112 0.7609753161830571
Ni 5.07480389325289 -0.10500618856136651 10.445563808887906 -2.7224601477360535 -0.23267198058056704 -0.8383812050670464
Ni 4.537643181364251 7.555905845788392 9.0172477684025 -0.6655012569434475 -0.019975157570346243 -0.961447572102628
Ni 7.109455120203773 1.4217593831359907 2.9279334964517605 -1.5740555805914698 0.8146357818209905 0.5211340715475606
Ni 5.5491060731168185 4.0653908384459285 5.6141498441606075 1.2100277392730194 -0.6949912959827644 -1.3410652974395356
Ni 5.220605598200554 0.30227948727167236 0.8634073064569125 0.2666478233053795 0.36140737297646786 0.4310780979997285
Ni 4.255480304924839 2.01413405165127 6.717486803932178 1.38081095276859 -1.3368101217076074 0.5750061389756678
Ni 7.8336305431529105 0.583330938358007 7.7988735831265625 0.5462786891339882 -0.06878472287388154 1.4862932881738211
Ni 6.751269621263273 0.9195126600672393 11.120169849148239 0.5899511903212743 3.9600819945772576 1.594902342133492
Ni 1.4174340391223232 7.905092748596109 2.6929037056708465 0.5483036899838171 1.5066687665063794 -1.1913486748062774
Ni 8.47447727338657 4.892565866450962 12.276504496885533 -1.4979018189470268 1.6075354575164702 -2.0970439317389498
Ni 0.20725732104446232 6.267724369300572 1.623421965727992 -1.0143392778953368 -0.9575166124793381 -0.763532278276956
P 9.633293352178661 2.2416753555354783 8.351753159336175 -0.9500200469919768 -0.8294090834754231 1.3063937141992792
P 0.5244131708466196 6.998199749834834 4.370121667422738 -0.42492879056888105 -0.47867821637619495 0.802134049809554
P 8.761012508448495 7.688383610589608 7.9727298454637445 -1.4873307282993997 -0.7753822356370066 1.4281506183948178
P 7.118143419918182 3.5353857500233783 11.161097946731477 -0.27781438144516024 -0.9589389467481616 -0.7309993386462572
P 1.7276834428852663 5.523548931749106 10.375418952784521 -0.40632583075571316 0.09544063489851305 0.31537459908712134
P 5.455904312544057 1.8804621157854116 4.797628326519671 0.5072938232303587 0.07906605019523157 0.09919778794810014
P 5.4277989793769885 0.1545981382624163 8.020127153223946 -0.7868930644900836 -0.5016345680620522 0.16659128690140987
P 8.595812575891708 9.430660388060117 12.103171036998699 0.6522109675924446 0.5986780286713109 0.015554402794831277
