# total energy = -340885.6866409699 ev
CRYSTAL
PRIMVEC
9.17483940342572 0.00000000000000 0.00000000000000

0.00000000000000 9.17483940342572 0.00000000000000

0.00000000000000 0.00000000000000 13.42830487389439

PRIMCOORD
 96 1
Ni 5.184628409932113 3.2184786520313957 9.65013014640397 0.8560020034726031 -0.025878153318342527 0.23709864889335294
Ni 4.6265412720512895 0.20637700503162487 6.206616535707846 -0.0009255971380629221 0.8371511893146872 -1.0334909111231234
Ni 2.506336783892189 1.5247023547453304 5.226659267223917 0.3621175116696151 1.4875320456769283 0.17877163101768567
Ni 3.3690377684354256 2.776994549517959 3.466704852532472 0.41899211336947195 0.2558088237083465 -1.1243642383659282
Ni 5.208024250689594 3.008723471091181 0.9820115150508322 0.014030767061453255 1.0828177823827094 0.366596116266259
Ni 5.1552872731703765 4.398482286283162 3.1601505273131156 0.12492038952518487 0.470688513302499 -0.8841239585198
Ni 5.066309679575844 5.195766665100576 11.568712948850898 -0.2756438561564027 -0.8154719045690406 0.8165808213625033
Ni 5.664912908744919 8.383803199628709 13.02235433660217 0.34726347737591806 -0.3072954216234127 -0.6126221495562288
Ni 2.063164510908408 5.5082892234229694 11.792952448929872 1.6763080962054937 0.7233986434808638 -0.6246248304440597
Ni 0.5576605078434816 7.895545765279333 11.528790469679121 0.38971624722349013 -0.8517589119255331 0.6937193712488763
Ni 7.866663370493233 9.096192788434758 7.407992958604536 0.052207021020858474 -0.6897698996828249 -0.37436059070302624
Ni 8.57525457574101 2.594699663239368 1.4762674594736356 -0.17322910393290167 1.6034124364870321 -0.8133959958766185
Ni 1.4299537870972856 1.5994222477370685 2.1691146401175545 -0.2250093218289867 -0.5011005499354532 1.4434787641114561
Ni 1.810654577838834 7.134832296759691 0.5194775782433201 0.07256321607970728 -2.107174335304732 -1.5862264116260487
Ni 7.789392872116955 4.09996970789672 4.042242535166524 0.585793716509475 -0.007154608766910259 0.8348148278720268
Ni 7.476163851152081 4.536857215814275 13.078510776807786 0.918662872836934 -0.22555053904443736 -0.022329516735135738
Ni 6.800280948767214 1.2989554285344134 9.414167953879572 0.23783809816253879 -1.094454338180373 -0.3687985232342164
Ni 7.286538268102813 0.8161597761469708 0.6021437997370404 -1.1854330806527908 0.051464229317562976 -1.3935993627825096
Ni 1.7616884593593516 6.870385897484045 9.711376787571254 -1.3920114494700995 -0.2602663452590679 -1.8386071834894528
Ni 0.2915085059024177 5.6327734459317975 1.8230002418871742 -0.17061017825281585 -2.7518689399154734 -0.21538568269629355
Ni 6.53674285860333 2.1944381146566627 7.1349690018684315 0.2075132219267523 0.06991343716168605 -0.45002147187145075
Ni 3.5258541253871427 4.951532437271492 0.7214772673434177 -0.4595746627775246 -0.9790436879178365 -0.06425803864812159
Ni 6.036989350344493 5.699658025979657 5.056173316882171 2.7310859417318514 0.3155275797252179 0.4850568662090292
Ni 6.840925487808644 2.3417952120707466 11.571412186635547 0.07031195815168537 0.7005129971319419 0.7243743771305718
P 0.2945802421712824 5.780213116901496 12.859347715431209 -0.9802559630583828 -0.2315304107769561 -0.4763639664207216
P 4.010973764623161 6.581690397376232 12.821318923134863 -0.45290779228031025 1.0634329500981945 0.0888149020518793
P 2.47041728719982 8.888979038039572 1.4874396615482965 -0.06203249175171252 1.4593041611794868 1.1670093267299644
P 6.41788281271581 7.954365661395495 6.0288521851806465 -0.5743209399831851 0.251966824254437 1.2678359085307391
P 5.138423918145964 1.7902313850834795 12.76215405305302 -0.8364654761015723 -1.2788916521242686 0.47337583032667513
P 4.01813931428261 6.5570651281240435 8.282095516210251 1.1918469545989345 -0.10163005153867659 0.6730806119526022
P 4.755548690439897 0.9452011414417762 3.8785239464493744 -0.11866566686472464 0.5404615682315789 0.3783393728451162
P 0.24102028154777208 6.0481826545500335 4.059685740048141 0.4526450255372269 -1.0579747551971006 -0.8771966352723473
Ni 0.5565888865883939 0.246415087181262 4.546313722900054 -0.3507342095333379 -0.33639053921715617 0.14148215053860794
Ni 1.970700478299035 6.7250105654047125 5.200580703392911 -0.5118745006225055 -0.0027765343038726378 -0.08872825587534397
Ni 8.393354207561469 7.265381088186439 9.370714078979342 0.19314872567496413 0.7398395626457065 -0.7832194722932382
Ni 8.89537390117995 2.5428801696714243 10.18007896898318 -0.3207466620323121 0.3604064425157793 0.4957593402281978
Ni 3.8604329978981573 4.699306924226813 5.4272643807180785 -0.43044637795300067 -1.2707880491805275 -0.8783340913109002
Ni 1.6609028473119254 1.0818145017864442 7.452239539638665 -1.724431691185598 1.3186954143847678 -0.5658452984120061
Ni 1.4989027060355113 1.6371491878134468 11.489244158927368 0.11643420643104464 -0.8470085417247414 1.4167174368572115
Ni 3.934593225679618 7.213809315285339 1.639837415790679 0.8706485497411844 -0.17644838220114772 0.7935077415931238
Ni 5.550374212267899 8.175286622022712 8.401406046717847 0.6114443271980438 -0.7331950607459953 -0.26017918486190034
Ni 7.120510372280307 0.9180803158421228 4.8240113428839475 -0.10915567049176039 -0.8613393565251165 1.1265345065443695
Ni 0.5500472260158117 7.484393682195007 7.12814750869071 0.36298808720002645 0.1873496024946838 0.4249483309529068
Ni 5.324884181563338 4.577015488361529 7.5624449594138206 -0.33996128728755 0.455990287860376 -0.7615317029071593
Ni 0.5953057918481967 9.521831943109698 9.517902359346392 -0.20307626920132124 -0.8147990468717322 -0.1605347962946848
Ni 4.823809496414668 0.9023206940110928 10.828128160738252 -0.7027735110313446 -0.8967565596821458 0.2441434715552763
Ni 8.174983852318793 7.423481922669939 5.115888677334778 1.0664797073443182 0.5901813040542094 -0.064000928331993
Ni 7.227534875196396 6.17922688731047 7.394645402081404 0.4641162594016201 1.0229594154641801 -1.3531481967459986
Ni 2.476940598093377 5.797195744839575 3.0504946804247743 0.20004493857416517 -0.6647409817386551 -0.3727320539606677
Ni 3.4381610093243933 4.8398929900804974 9.516317864562541 -0.4196089210178644 -1.2150686441310363 0.04401060125299517
Ni 1.0204715248042784 3.54957108552757 3.84620190432995 0.38326612072277216 0.574186985508482 0.3455374958237468
Ni 0.7057359951914132 0.05485911789851401 0.18432069084300284 -0.7790044057706261 1.057905592522062 -0.0169188872425257
Ni 2.590745307409378 5.62956225210234 7.174971302143968 -2.5072099621763595 -1.0985976709247856 0.9037941832552177
Ni 5.428247923513843 2.721596868540047 4.930000923902999 -0.5455029873102283 0.5461007687952272 1.1967590471885712
Ni 4.391087365635895 6.986713687666049 6.113612105051173 -0.4155717748340133 1.045868715962186 0.7771799509673776
Ni 0.7614318584534889 7.746711518703697 2.5569103342543036 0.31911812528995365 1.0664221146335053 1.2276050860351504
P 0.27211197768853845 5.600340388254269 8.287037084771812 -0.11492111222062788 0.5514792594983212 0.48427345107578534
P 8.56915330746504 1.8162512299416043 8.144656420309436 0.7215618473824412 0.25944564912998547 -0.07587402562049514
P 1.8486200637425438 3.6491272690802896 10.650955587359624 -0.6930429140071419 -0.2911311531587244 -0.8920884647825152
P 4.4175384279511185 6.340905909203938 4.002870546365512 -2.4213672553789265 0.6255193172338711 -2.0096395368813518
P 6.979098570870477 4.3963720731952325 10.792583914981954 -0.020978916244512258 -0.22226698319715912 -0.42715408035497404
P 6.108140230765777 8.29691746944308 10.587950129457749 0.7011457456199344 -0.5955865342301807 -0.034696780051237025
P 2.221494716379727 8.738805264895078 6.045758661950769 -0.3791356434941664 -0.8560927634141966 0.7829621048667935
P 7.12909802206423 4.4055010385104065 2.06324524949612 -1.0849492269034156 -0.29176081632292333 -2.516083353406589
Ni 3.069020516368895 1.7360814822793 0.4541077641990135 0.18766610529383806 0.7274766702049794 0.07636844875841042
Ni 1.2603018296672481 3.2551871849218608 8.340977801235102 -0.2219257978076565 1.2497841932353508 -0.20454771154052515
Ni 7.884104740406949 0.16298276658822822 11.40418972670848 0.21597292265833126 -0.7603446245775938 0.016147813404456063
Ni 3.080213820574435 2.0367317982722097 9.67270392154111 -0.39339883828139993 -0.5949648414857818 -1.0373527080713747
Ni 6.476473337844155 2.154793633122122 2.832835375244336 0.18595452191937006 -0.010442278379246531 -0.6345685719203329
Ni 3.8897557849808675 7.022816681148673 10.369471511108824 1.5880752919093295 1.9447034983295992 1.8277918380415037
Ni 7.349899709777782 6.6527128300443374 11.30541065206249 -0.19073137448272315 -0.06001186177725794 2.1343480675060467
Ni 7.620337279255245 4.141944598667496 8.49293332821297 0.7583327363538874 -0.9564280074008495 0.5113682504100484
Ni 3.3142456268653544 8.810736006674944 12.810388019339387 -0.20647938134559923 -0.5980794758553635 -1.1906310799139623
Ni -0.10700431826916014 4.994993652043332 10.529886240117436 0.6172138826919693 0.44220660381272225 0.050274579884835996
Ni 8.979332857561015 2.3988168396424134 6.014860554923721 0.10218361004930143 0.15601839648156998 -0.20882602720090487
Ni 3.477273350167195 3.248370279163896 12.036286625002758 0.9669877851945669 0.11101997739400879 -0.2058540890567745
Ni 1.336920914438123 3.726700537160489 13.22792762569248 -0.9585949331451814 -0.8232561765001498 0.7039467054038393
Ni 2.9946400924391283 8.707500712477616 8.228811718256075 1.462515726138249 -1.2989951077423627 1.031754388047991
Ni 5.938956190150889 8.073051385332274 3.759536370292627 -1.6867562881220113 1.1437974073898753 0.48736006042090907
Ni 2.9850890845063676 8.558886662050288 4.058101245264291 1.4682917093900778 -0.025344906522691835 -1.8282042429885739
Ni 3.7435180179873377 2.856173414512887 7.29185141766464 -0.09403526991055418 -0.8165425119254002 0.21330386046660038
Ni 5.943864729290203 5.878971089416607 9.492240333229264 0.14009066950772003 0.7792352908345096 -0.6357173408127954
Ni 8.097777577819103 0.08494249917683047 2.6259188896493617 0.5710867493166035 -0.4522025386831696 0.9064709587564325
Ni 4.659717491729349 0.27726915497864846 1.7791564363076535 0.8806920500201155 0.9441165370233483 -0.0039227320931738896
Ni 5.711851387692087 5.812114033887287 0.6844604598453251 1.31402911925735 0.28559428250089525 0.47365453790935846
Ni 8.273879447426594 7.180339500742871 0.4705389842823759 -0.5036382287556423 1.187547555892632 -0.3274456713190425
Ni 0.21719505830109417 4.854893852683824 6.1484177762266965 -0.5072033203990813 0.7693578838197975 -0.22801802674832342
Ni 7.353395323632134 6.478005536042781 2.9220928014440064 0.9260424531304566 -1.4362832748042813 -0.46819042947099365
P 8.63251474914001 1.9871417907058613 3.5771800125893014 0.468920879879115 -0.41593892836544494 1.0492957393658637
P 2.1098369195097058 3.8347067479044403 1.8833872005921128 -0.38529446400671064 -0.8407165380684425 0.2771032143107486
P 4.987938200458037 1.0264168208085325 8.177810620372668 -1.4460804634003612 2.420651203148509 1.055338346015518
P 8.749961869742567 1.762936237533084 12.631133674875317 0.562294090725638 0.9354886861450211 0.5314693920352976
P 6.608609376506606 8.02863598725111 1.608308079805155 -1.4277335854620572 0.3399661723835564 -0.8061051186421601
P 2.039209004940649 3.6483749322402454 6.124596222915823 -0.1362270727872557 -1.2975630032815266 -0.5203303446993426
P 7.008265385681471 4.112419965115505 6.136762060109714 0.24712620833268406 -0.34697448538058956 1.0352186924475073
P 2.443773553254829 8.85469266278047 10.6612011306435 -0.2440131166249991 0.4429421964271662 -0.29518526862344
