# total energy = -340896.7405125902 ev
CRYSTAL
PRIMVEC
9.02953536612739 0.00000000000000 0.00000000000000

0.00000000000000 9.02953536612739 0.00000000000000

0.00000000000000 0.00000000000000 13.21563772775609

PRIMCOORD
 96 1
Ni 6.328720088319116 1.8998684230541867 11.355774861289959 0.524730016428935 0.44622575227444444 -0.3370194310504067
Ni 4.562055371323195 0.6171579083944659 6.059925267045738 -0.35901367593331074 -1.3847686518647568 -0.713407593706423
Ni 2.5067976737600133 1.754158810482181 4.835310783078729 2.1071223990208745 -1.2110911475405273 0.5585749900028381
Ni 3.5212027679644398 4.290049647265495 4.928072103083282 -0.46859152156415435 0.8518815535463264 -0.5028820673159081
Ni 5.172668672467726 4.666319416459772 2.6648669143724577 -0.27775036097644423 -0.2674919164732296 0.19022126761552402
Ni 7.136646796783687 6.249368531320741 2.541948752075782 0.7464750656843531 -1.0614174623300623 -0.17664584292393448
Ni 5.107105216008327 4.728867008099252 11.484587504288564 0.413023811601179 -1.0178496050414405 -0.5043403970289895
Ni 5.580948144615944 7.825058574839688 12.206266799578191 0.1469873966275533 0.259808688896359 0.672636582436648
Ni 1.8315148401595913 6.3105346040457055 0.4884184046325134 0.2357652747939101 0.6015298962978092 0.615104035437818
Ni 2.6386198609037645 1.5001489504547232 0.2410136497420959 0.38666640465357277 0.11275058693187033 1.8701456204173663
Ni 0.8303325975787907 9.023639102373185 4.61382982429008 -1.486879499694594 -0.5787190690508807 0.239242177598917
Ni 8.322766565480386 2.218105368303475 1.4676498466826984 0.9585247420288783 -0.48290253887018775 -0.5855510043710497
Ni 6.809569936388585 0.7960555782886755 4.682631272139968 0.03648395385864684 -0.49735522396040793 0.8221999673214937
Ni 0.7381545855603662 7.426251085314512 2.546864431141544 0.03774687973147048 -0.40325516225018937 0.22072226441785858
Ni 7.582778081282519 3.491242769543797 3.5312842442262387 -0.14127414829285992 0.9533488542548937 1.081909411635827
Ni 7.349165941698772 3.7489727981515153 12.679400006704237 0.8889254936735013 0.10675091770500969 -0.5158108595624342
Ni 7.940365741756991 8.871771346665893 6.884805831156663 0.1660428705971076 0.5719041030115763 -0.19082881929253587
Ni 6.855539301053892 0.6246596463956322 0.15835096211658067 -0.32173268009466527 -0.4273181167366641 0.5561028743132616
Ni 1.84749711779809 6.529464719086968 9.323156917807573 0.10699260140217058 0.09116977543730105 -0.5729266307388198
Ni 8.965416658185028 4.65737114688929 1.4835878795977908 -0.042576954130262155 0.10507841509859323 0.30967446337855054
Ni 6.484100333292722 1.8899539931970841 6.881435105595955 -0.11784857028006801 0.6390641457978413 0.5928272263174887
Ni 3.4361626036710056 4.375089811558929 0.6523712905044186 0.1875871724267866 -0.4217331664497188 -0.3094587478233186
Ni 6.115830732453083 5.7051764924975625 4.858359575112645 -0.577815840510321 -0.20791688512307419 -0.39309184856394236
Ni 5.165724959753599 2.8560330139996775 9.350869464869898 0.848927613124325 0.2676073590051714 -0.13470086595071643
P 0.29315650775285135 5.31404410805302 12.519147424434736 -1.2140083211873223 0.044032969850498364 -0.07429125451440755
P 3.931559033252124 6.1492941906046505 12.670466184390376 -0.3433116918170217 0.157601938918606 -0.36834472352624953
P 2.381964347007335 8.456141832711044 1.5086312959991328 0.4412529816502013 0.050495180536074324 0.048147249129188045
P 6.254605661846351 7.90134008980581 5.731503005877679 -0.3035123004318966 -0.15925721513384186 -0.10538643325731528
P 4.616097140626253 1.0122380057110703 12.398699743020487 -0.33401329723423123 -0.9591047829020644 -0.05670850843563783
P 4.1290981789568875 6.111126344515423 8.31403681066632 -1.1559906070219574 0.8021762159013991 -0.8447773384013775
P 4.480464489548352 0.9591804557654111 3.75707409730251 0.6153161514486242 0.773541582883842 0.17586756999701322
P 0.047197381478209906 5.522391607618395 3.665475781456058 0.5200639784118333 0.304664668868785 -0.6551582231462265
Ni 1.6957918937278 1.2570016215002107 2.6804482806396854 -0.5553112316499017 -0.8539338080896647 -1.101828262046941
Ni 1.8045165293465346 6.426428690763292 4.882477464136616 -0.22993349860348142 0.11170131973174957 -0.756899860562103
Ni 6.050637486944631 5.604063755211739 9.105125241537515 0.6029923397759486 0.22084156360454227 0.6606390437551396
Ni 8.574609337014488 2.2464851980310456 10.103315096090407 0.22817486404116188 0.7033293835348146 0.5181726749263914
Ni 2.4258840071393437 5.3349836006200695 7.03945468376376 -0.3750167362297864 -0.3543784911541445 0.344548135327284
Ni 0.6137167524577248 0.12183281214292 9.027761085278254 -0.2676572384065003 0.12227472437222166 0.34766868323413674
Ni 1.3725254972668488 1.1633563099810764 11.453702881444089 0.8010194765891366 0.07445786199925887 -1.2093628519955109
Ni 4.0636882245991 6.783086309092699 1.665328950185991 -0.25165854898539886 0.6099322614288915 -0.17563488516091685
Ni 5.714675563726771 7.971075191614919 7.873599551183778 -0.8524950187606092 0.16938350493456636 0.6111273101782572
Ni 5.328211449078333 2.8774420424069547 4.833738740967507 0.30728436587981917 -0.39666799595097485 -0.30327138806568416
Ni 0.8579259547739815 7.5654413733356725 7.089727524995457 -0.11733640653033985 0.10829383671209736 -0.17732230016566883
Ni 5.148424369948309 4.727250721264624 6.933703474148617 0.022459871665412932 -0.12367751825701925 0.028318901549351228
Ni 8.251604797079818 7.226869914390397 9.08658399356978 0.04119858572549679 -0.15868540179077187 0.4834180450540255
Ni 4.70980565889311 0.13274139384634936 10.32377842624072 -0.6065594883019166 0.5703203034642241 -0.241997371746551
Ni 7.980727764945742 7.307368222383173 4.516629584688303 0.981531744447013 0.44603240531671573 0.5917093106629615
Ni 7.3262850990230906 6.436036116417169 6.991415749587297 0.34376831973846605 -1.4138935942551716 -0.5832470388282213
Ni 2.2280017390897995 5.123800826942555 2.657057269214527 -0.12888888725462963 0.6580969940595763 0.799492755531965
Ni 2.2517132990212665 5.281275924126404 11.449949303582889 1.0407465642442724 -1.8906663660785374 -0.08652482046612195
Ni 1.0562750498031366 3.2595268323917357 3.937665708035693 -0.8033782066293003 1.811288698180158 -0.7362122503057643
Ni 3.809533892005419 2.690341039611855 2.6275333973531723 -0.5935880157429132 0.02128024953501496 -0.07453885174883937
Ni 1.1915465194654786 3.4559824338498215 8.272751066007276 -0.5018435987490647 -0.04183159132380538 -0.5686925380528142
Ni 3.777325539272919 2.7613583354461992 7.001974888271173 -0.0757513839997018 0.046908234515764376 0.7983051629817671
Ni 3.946177851046886 6.948218452286406 5.934429172395509 1.4023969064694815 0.04317396428431274 0.0947135269245014
Ni 0.9175091499452582 7.113955574351174 11.530260700193113 -1.1910689387823292 2.1577091108294906 -0.43751279788147873
P 0.24626793638494462 5.712102146140911 7.864097771093953 0.3008360391513141 -1.3933669350567295 1.2284432656657296
P 8.497975670168197 1.7400275875984237 7.954108694619022 0.23128924130042747 -0.29764247191468096 -0.41630968144130237
P 1.7782496108999855 3.239092993806469 10.418350168090761 -0.475167375009459 -0.08706372368872747 0.6067276384486648
P 3.980950591829857 6.1318310691623585 3.7347259972147793 -0.43972574637239753 0.5885602235110187 1.5494542371030218
P 6.997095327346967 3.932768990994248 10.32054043485023 -0.7508631674497197 -0.22495404311101902 0.3241484886250095
P 6.379141013931192 7.666897232966277 10.091156826689144 0.13871332954421917 -0.00621924143683445 0.5417484053638025
P 2.3841585241068572 8.528459381641401 6.000150645724215 0.6791625564806238 0.29269258410857335 -0.45200816328417637
P 6.722498126632629 3.749586806557966 1.5504452684784316 0.16647121638377782 0.3609864833889654 -0.2881597292352263
Ni 5.179792975889633 2.6907293096335803 0.3696375754510694 0.1822225656807636 0.4223463745536855 0.6880976541867246
Ni 1.6626986465271805 1.2177953788412499 7.156439538356335 -0.3133632250840474 0.42928115400030586 -0.34045828152862656
Ni 6.833796179837224 0.759340584443535 9.184445195162029 -0.12605784556373775 -0.19043029830253655 -0.47554429873290355
Ni 2.9040882013398406 1.5922231228161743 9.418335444435757 -0.3242788435552867 -0.022348542898529253 -0.492174708200733
Ni 6.153267186175802 1.6122054846319922 2.5625785315789895 0.09474026639737877 0.9902909786968815 -0.6413107757401729
Ni 4.203456402885156 6.8192405687901845 10.485577767922353 -0.8907890292448013 -0.4851581676735839 -0.6735518951620658
Ni 8.251677033362931 6.953970266329188 0.3388315095644788 -0.05878364579711167 0.47766263062748704 0.20894018418126598
Ni 7.594317827509638 3.8884610608405126 8.059384950672705 0.5073221053651327 0.12130156182567495 -0.007730535875038299
Ni 2.962346763669554 8.248968172746235 12.48723162864884 0.6740830850751875 -0.050101544642081455 -0.4803828577721275
Ni 0.019902901904394543 4.806132742422772 10.009220113708903 0.719170207221813 -0.16732096597858281 0.023548990964533636
Ni 8.70865278986393 2.306784435358669 5.670644840309477 -0.12408143856365728 -0.04482975472018086 0.9048318804911126
Ni 3.5501875765630726 2.8489357991839377 11.759168451839201 -0.2861092744641008 0.5382067107591311 -1.3359662856500731
Ni 0.9402364905193265 3.2667504607029216 12.726923354409989 0.3755409841643726 -0.15697099020282643 -0.03810940527721179
Ni 3.202487257339535 8.254756104930573 8.035517179779008 0.20488272628244072 0.20223860379137432 0.8126745443295617
Ni 5.664769321631867 7.954045487871299 3.5141705658035 -1.2803654084563176 -0.030020714731806362 -0.03246840494135054
Ni 3.08853452073058 8.36531373623327 3.9325640205409176 0.4070519102884603 -0.7559392964210465 -1.2890619077890508
Ni 3.3403592331939045 4.325589898556529 9.338539634296243 0.32906778030349776 0.36477551811775244 -0.15421990982025055
Ni 7.510252853038214 6.003133101263196 11.32578867721669 -0.9720983669482548 0.36577284903401525 0.3680480182214372
Ni 0.6559316363082943 8.994112521651212 0.2631269819097133 -0.7620538939592166 -0.8546976828388828 0.6569538815940686
Ni 4.594661023612809 0.21529753295427462 1.3741354634267042 -0.6739259906720328 -0.2921323407297291 -0.19111729706723213
Ni 5.926291755102958 5.711000542823456 0.38110598834861564 0.3533256244095979 -0.7666942209447054 0.030963795371366027
Ni 8.116902188146982 8.763317597108827 11.062414286037317 -0.08090696005871229 -0.10600581200886906 0.6746037334653479
Ni 0.05874615724071812 4.948167334091462 5.821012790188659 -0.42758551146543783 -1.0277943749589782 -0.03660248171438213
Ni 7.760452249131521 8.803797004257635 2.421990471479615 0.721139672243358 -0.1698257346783075 -0.2124497399964212
P 8.560207228069062 1.4725366312352155 3.575609330497213 0.3931712956516261 0.11390115559654576 -0.1910028829765549
P 1.7679469110211568 3.219697551790935 1.7506752157291117 0.2573301454488794 -0.4919574499836044 -1.314531255704749
P 4.708216460664649 1.0328885531456726 8.212726326555478 0.5789237288625191 0.3448826358485673 0.03727816762516806
P 8.542617693131325 1.4856836347615734 12.398938122754755 -0.9996310251508849 1.0756924841918378 0.17289897428699258
P 6.269405070348892 7.721255036007949 1.1522743611981785 0.02079611080974483 0.1571910766334325 0.543235017211658
P 1.8849516305915879 3.333433579550555 6.092924607078312 -0.7635734159275366 0.46883114837878614 0.3060828893725503
P 6.96362283966001 3.893111271565838 5.942239720506978 0.039986567695266616 0.3058437767785507 -0.8108968836038486
P 2.277889922113926 8.563385624525983 10.235801857038787 0.9287328554784264 -0.6997239255717433 0.4582628859446366
