# total energy = -340890.01795000234 ev
CRYSTAL
PRIMVEC
9.05900327698023 0.00000000000000 0.00000000000000

0.00000000000000 9.05900327698023 0.00000000000000

0.00000000000000 0.00000000000000 13.25876699394185

PRIMCOORD
 96 1
Ni 6.399134881820622 1.9581307080995223 11.657598134679732 0.22315015713306086 -0.08169551739827866 -1.0687445921190948
Ni 4.83511610580564 0.5392679631743793 6.030577491724756 -1.7162905501357024 -0.4964535380817451 0.7884802064715453
Ni 2.836364827577005 1.759050054853002 4.929993763507078 0.023982993178158697 -0.566882738537585 -0.10416824457949804
Ni 3.4878249211753403 4.182405869772467 5.099228624972292 -1.3260629104934323 0.9739832426757936 -0.357036754712598
Ni 5.022374759940097 4.268493576716482 2.7025878103451455 0.8031259814091782 -0.06950180354556416 -0.4349890030183605
Ni 6.925544495922463 6.294285979350873 2.7473891104284487 1.196568785554636 -1.070732569083401 -1.224840635916136
Ni 5.225604436629779 4.2152628742011675 11.845541649452406 0.6104835059466712 1.2344190236331902 -0.48243382676388524
Ni 5.87685617315564 8.183532027490141 12.414303009185517 -0.2774045476012513 -0.4514150097848677 -0.11326583600539201
Ni 1.7500997597398076 6.495640442388296 0.20190434452868905 1.6825342796208635 0.42287936423902006 1.2806536291206976
Ni 2.8758167862996387 1.4938658556135866 0.44140174033342516 -0.03360586097990342 0.5032471639648107 -0.3754713072687017
Ni 0.7108708480632665 9.43585768208844 4.444285344662394 -0.12745266902873534 -0.3367186119805362 0.6444598628921159
Ni 8.535356532865784 2.216738071051307 1.400152279817054 1.3400733658399115 1.6739941033603363 0.3038776541911154
Ni 6.643836674935612 0.6187697748276129 4.5671018739818505 1.240752936271018 -0.580563064238155 0.26088932355504746
Ni 0.86484581872061 7.469428927102595 2.477917284997662 0.8873296099412913 -0.3649750357230682 -0.16122693726570297
Ni 7.758836900767801 3.9135618332600446 3.846381171792495 -0.39850762026287495 0.08532308684853693 -1.0612763087665078
Ni 7.498943159368574 3.750146475419037 12.699498546385506 1.1094420698384568 -0.04268031247734585 0.20360977310728806
Ni 8.043778785879562 8.933336659295803 6.469840401414228 -0.09517272594910706 0.4434348197928686 1.2630721685935087
Ni 6.852447399496991 0.9286293540065321 0.593300387468558 -0.19595328500329479 -1.0802253390651848 -0.93222724178493
Ni 1.648992225571423 6.493955467802208 9.08586128354867 1.3021413666808284 0.2188607857290876 0.28015099999813686
Ni -0.16082538884013467 4.860653435688328 1.1213605519445118 0.21969305182239585 0.17076290178059625 1.398602729534372
Ni 6.502235396682228 1.9993582314397533 7.1438238945469115 0.7855589190596923 0.17283469670796042 -0.6706599183262514
Ni 3.232179852253935 4.197335106965325 0.4775254212983789 -0.19958188289481757 0.4740006083948675 0.06054330880069573
Ni 5.984839490715639 5.497972425367942 4.731192127557608 -0.8530802018401179 0.37666275647364167 0.6582268347692213
Ni 5.2631177686780966 2.885093205526269 9.428162964811975 0.0029241156253304477 0.5815423974322889 0.6113723363095277
P 0.32589673245714607 5.428045980045323 12.317659751769948 -0.06684585397995585 -0.766847458693118 -0.07624220759319127
P 4.093410222816978 5.939707537017323 12.634796428180069 -0.4791896087949747 0.09965827252428643 0.9368225744650963
P 2.6672422977508634 8.355408494274188 1.5170016437609424 -0.6541117841595832 0.174721372207712 -1.4356279006084693
P 6.016455411712651 7.805064993847388 5.6223135849177135 2.478342901433022 -1.0250777473587636 0.4346689006747804
P 4.758504116157578 1.011084400686994 12.624891314134759 -0.39568352055051853 0.5815130868562501 -0.06720272309874234
P 4.1235585853035275 6.317712561499375 8.18150734028589 -0.8538258217568908 0.3315190700574678 -0.5847225949324832
P 4.710473281450941 0.9691865111135884 3.7855898252473503 -1.020443848131178 1.0003666177653288 -0.975435658851604
P -0.020533136542071485 5.828272739256793 3.634095209652753 0.40102087360303196 -1.5331413588756113 -0.37184965135571446
Ni 1.5725342389769277 1.0409791110853155 2.280640279278507 -0.9386064058383964 0.5110743733187133 1.6539952916409062
Ni 1.6037787408447495 6.715846690982963 4.898358818603447 0.186872148637633 -0.1611248644701999 -0.3270031844649852
Ni 5.85615635095559 5.36908092853542 9.32186733953901 0.7023091698004162 1.0012981284406628 0.10415384640179483
Ni 8.914810997851994 2.270847496872269 10.198444567340172 -0.6752696491841208 0.0870261855825727 0.700515311124787
Ni 2.280549689246997 5.234128958594876 6.974695023418564 -0.01609536289996583 0.5256275885425399 0.11605419738380658
Ni 0.7579613582428288 9.097866274524383 9.387007913496952 -0.20729262127551398 -0.47564765707998724 -0.6490618804405015
Ni 1.6383297788626885 1.0441678801944698 11.558674726171056 -0.18928744294734495 -0.4728937484839339 -0.49409840758600715
Ni 4.085021585899145 6.638854223202558 1.714968039619889 -0.15450401671957262 -0.4325153446668874 -1.7898025032819243
Ni 5.737148226560818 7.845893921048974 7.905752190269566 0.3909948568255976 0.21448631081047576 0.2952117509860012
Ni 5.250145276165855 2.829960112349243 4.993490128393113 0.3171432609517699 -0.7935686767380462 -0.3849427370942467
Ni 0.9887811349292156 7.612099167727798 7.133892509392463 -0.5003713850789124 0.17490623452500845 -0.44730895803629417
Ni 4.930299051913267 4.490022439771197 7.264173657308348 2.251203934855542 1.0165925927058879 -1.889034229791753
Ni 8.142186737108947 7.326233264294634 9.156544155634398 -0.2624237579217029 -0.28210426706976577 -0.7393212282483912
Ni 4.604872481719657 0.16632782735405605 10.322016617522422 -0.6211186170630141 0.6125930960905063 0.5790862225823125
Ni 8.202501580088347 7.457833403069306 4.64962395728563 -0.827753035929239 0.19193130832809524 0.32713559627779143
Ni 7.205929702449267 6.1141658196994095 6.693516248215731 -0.2630649910501276 0.23878015036083394 1.0148069615603748
Ni 1.9530848433444117 5.126009755987612 2.698729580903132 0.7385295855850313 0.8412510704156737 0.12895959259156503
Ni 2.3391070856151033 5.143104094933562 11.342980767045903 0.648830738266302 -0.20485778658177622 -0.18229892744465379
Ni 1.0047430984812893 3.2833451020508195 4.0240753304001196 0.6173820328387174 -0.655145110520104 -0.7368609396333567
Ni 3.4699968029741592 2.643969718655927 2.6735111279313597 -0.7169976250505264 -0.668287561439333 0.5092566033836842
Ni 0.9531701935426089 3.371000016539959 8.243081384703283 0.45113141710617793 -0.15550340451836445 -0.02792912231010029
Ni 3.550141803851114 2.79366068672316 7.283928625479748 -0.9715304102599267 -1.4665976095171063 -0.43749762837282713
Ni 3.9867132837044226 6.970893865696402 5.617368275097578 -0.28699501950316375 -0.32064818878123486 0.7782947812981111
Ni 0.7993148017268586 7.277205939241387 11.264542482362598 1.4482962401047572 0.6085294675440939 -0.2468503289634781
P -0.09056376040092774 5.515927369613237 7.910604192357245 1.1837690626868063 1.909392995953763 0.5633035058267589
P 8.517863597781188 1.5525953730415625 8.075065865062193 -0.19332150380740254 -0.7192609671634064 0.27091096945710763
P 2.0331936082087627 3.07419083730038 10.23240042885109 -1.6840126639386028 2.8105993638771465 1.5216264162574762
P 4.051340212183703 5.725788236609455 3.6783131099331308 -2.090590719914438 2.003338020143356 1.38842913143548
P 7.132289065834734 4.100195416177082 10.544034666747292 -0.6698945009151367 -0.5780292420727077 -0.1281131854308697
P 6.32486917398867 7.8604517391126425 10.31123730967304 1.363632384106774 -0.4361768526788746 -1.1711518881434282
P 2.4267076460853367 8.683371585350079 5.739004416306458 -0.44397115191231273 -0.2981687767317962 1.1970495818457965
P 6.808384408170495 4.082802130127149 1.6411172341322533 0.9022265816577817 -0.23905294440624636 -0.8438247446801209
Ni 5.0320860113179755 2.705398819022903 0.7772742470604597 0.7550013579878094 0.39154995799811926 -1.4207941780297466
Ni 1.5311708305894318 1.1872820119740717 7.04053767012071 -0.516854213225284 -0.6256411875237161 0.3952297208425516
Ni 6.647224742114088 0.8799598595777494 9.501563537843007 2.044145798188338 -0.42371497276643805 -1.489608725700299
Ni 2.694455543216487 1.4452461857021346 9.359920588175125 1.6419491591096496 -1.6035708164417672 -1.7347875804986252
Ni 6.255703684930736 2.103853832786614 2.6493670727332974 0.5048247928645757 0.10320562355591258 0.7077138857557553
Ni 4.436900445293694 6.745687047362379 10.65180147413198 -0.7861857540104137 -0.16439505058103943 -0.1376730612051629
Ni 8.438461435162615 7.294463340244054 0.19063494460883687 -0.6765665136186736 -0.09844831137658529 1.076916843517242
Ni 7.588681644582445 3.8954710039674842 8.307213691610517 -0.4859135577823696 -0.5292070783636822 -0.21348152369504525
Ni 3.308683133864185 8.416665473581295 12.458401330624302 -0.4566325494300652 -1.1886472167147142 0.25690822742011243
Ni 9.250963427776396 4.839808669437862 10.012861828788651 -0.7048442775174442 -0.29217039305651615 1.2443044010677022
Ni 8.653540287973815 2.3772907838965964 5.83922688586699 -1.0802415370151008 -0.5612545937175302 -0.04706969979429313
Ni 3.6151310924564353 2.690922531987594 11.61780918103988 -0.281044972567316 -0.7203485438006304 -0.0972694605771357
Ni 1.1500313910171327 3.2386660985100555 12.542382819335709 -0.8020443183092252 0.2138946999730639 0.1925648281470361
Ni 3.360681811950963 8.541534773014769 7.912951380073671 -0.554945877890683 -0.6429295422905186 0.23008287969715213
Ni 5.125312212744985 7.756961687115544 3.4997175805119816 2.424795564334185 -0.05071141031193847 0.6194242600797267
Ni 3.0482639702821994 8.520563180720188 3.674746580392579 -1.359433515534078 0.4889065789724225 -0.18663869247058826
Ni 3.4510634863885556 4.474368482326257 9.04243876374495 -1.0514505809253376 -0.25784076653671073 1.8161429409486656
Ni 7.630298705058169 6.3935273588701484 11.48577783371522 -1.5292487086894242 -1.482020886050712 -1.4095617996490368
Ni 0.6921241469425735 9.17296541064623 0.32671838404294246 0.4563024197841561 -0.6517998481969548 -0.016315449330571902
Ni 4.783579436879565 0.23305916226531573 1.5123743049514082 -0.8767986285029803 -1.009322798517352 0.5273736246993691
Ni 6.302692734275006 5.781908761129941 0.25692601196695763 -0.6715562048882757 0.30297134032676204 0.3007751040063917
Ni 8.158683181846929 8.856643138619381 11.355656124254793 -0.6115286593817338 0.08169011808163996 -0.5559866604503716
Ni 0.07460451454979948 4.879333100185704 5.859579748246356 -0.3063047755753693 -0.14908413125558195 -0.8032931031146617
Ni 8.071807341628777 8.69921578186119 2.4088133971611536 -0.9708979188822503 0.7838321661765727 0.01888758093312231
P 8.229742002563425 1.5512636995783644 3.4545847209133513 0.9257359776336315 0.8804665642728708 0.8154953016078084
P 1.5583840760550556 3.2849847816211524 1.6861839630078808 -0.07371789850944079 -1.078998408636619 -0.7963943191122994
P 4.847517881119369 1.1983974088403566 8.182913297574927 -1.0833559142743665 -1.1082508777438334 0.672032630304062
P 8.515598846993438 1.4960490753729792 12.485767673243176 0.5484751825646748 1.836405547852444 -0.1685466108555678
P 6.478645752477007 7.772117399387177 1.2074111169756083 -0.04335574127781565 0.3030546440691877 0.9923229215252458
P 1.559199386338646 3.2141161999708276 6.185452927295309 2.115251712996228 0.5096857205013029 -1.3491563019777861
P 6.880276657176882 3.849732097058052 5.887476042549565 0.3978342483449342 0.7743517374899632 1.2844966570158716
P 2.7148564183125536 8.176112703909466 10.233646947684669 -1.9945268496096296 0.5276847281818847 -0.005791924091428734
