# total energy = -381165.96497554285 ev
CRYSTAL
PRIMVEC
9.21343199716690 0.00000000000000 0.00000000000000

0.00000000000000 9.21343199716690 0.00000000000000

0.00000000000000 0.00000000000000 13.48478903583038

PRIMCOORD
 96 1
Ni 8.726502002647171 6.04324659670625 2.450549914327914 -1.0639008908735483 0.27221040499482146 0.3217419360660459
Ni 1.17712648351603 4.831016937737456 11.428304968300418 0.5462966868561172 -0.08261391544748997 1.0710616702880458
Ni 7.576868399853201 7.406189574324997 8.864846289001761 0.8204300199052644 -1.0495772751620247 -0.8533609663053302
Ni 3.030767629491411 4.823194734073572 9.757553209120315 -0.6731688007910341 0.3473526946556147 -1.5117299830793707
Ni 6.005351751394644 3.232937965176452 4.352836137929411 1.221166272388342 -1.893932695534635 3.60834556903165
Ni 8.701063717233765 0.32810136527125483 7.967325350727282 -1.5646216888720796 1.069904673865467 0.36374270597786384
Ni 6.307874787087956 8.846018640960363 6.787891823869159 1.1138556255251204 0.6252616926971103 -0.6298392847654637
Ni 4.243642228691621 7.1053065295058575 1.7133638816129209 -1.3872865331906044 -1.031347125307243 -0.6988708335428286
Ni 0.9074327482881491 7.883408491845045 4.49539741205427 0.42700598481288393 -0.8452331949918734 -0.08337033399754028
Ni 3.5685648616051395 5.802204791930602 11.667295863140167 0.13038012708817545 -0.14278621406201217 1.729657972581544
Ni 4.022077618904724 3.481184673680201 5.791932736730527 0.5768725027604452 0.09468524478972724 -1.6262764855693992
Ni 6.338712143581499 6.4392491122273166 6.688981025949697 1.129494617613958 0.5737900071803795 0.24288337389593012
Ni 8.2244620996495 2.5677097567668747 3.6405558542653136 0.7345641731793802 1.173460481671947 1.4242271149706953
Ni 0.6357341702837533 0.7970493849949908 3.511317202635126 1.8577279634793038 -0.3571696807460365 1.599557324407
Ni 7.665418693626566 7.594650323376518 4.219376813156202 1.132247754879063 0.04892500783547703 0.70278045300988
Ni 8.339482583206536 5.253489643042195 6.8714300107012365 -0.018318595803529743 -0.9664697079075678 -2.0452027786979423
Ni 1.7501835194244382 0.2114243066626677 1.4110076090365897 2.1030790821894363 -0.37766471537559476 -0.18295661563331073
Ni 6.706539984421581 2.0366383299236235 2.057091227348188 -2.651134660718189 -0.7899976715573361 1.2514854921971736
Ni 8.87016704591094 7.741549281229242 6.69612788505697 -0.7492359162589418 -0.3780488381878908 -1.9007404624850877
Ni 2.915304901204261 7.132458513248454 8.615876326095638 -0.21416955090100534 0.33240044422115655 -0.032571763288434225
Ni 6.780238226008631 5.583431852002548 1.1510902463737815 0.08529917558913697 -1.760022443806014 -1.7732895932285653
Ni 4.403688753833345 2.8600427368038197 0.9911883721125322 -0.4178718837220997 0.5730428446017098 1.5078926116111515
Ni 8.33548395377176 0.37481622891906347 5.233676157789919 -1.0320274392037192 0.7596702242183884 0.9251117137860713
Ni 0.6325988394158857 2.262100221394646 8.163556708224172 -0.3082690983905917 0.837898351893357 -1.1270435849703042
P 2.370487033999979 1.5769802135618356 12.999484405152264 1.3249743054149439 0.18338419008903256 0.4047026933299933
Ni 8.077074829907277 2.547117736520962 6.22976976103396 -0.315643793588108 0.9245519846278594 0.5835064631371951
P 0.9011206261089658 4.037823373983143 9.402552308139903 1.0011736870476564 -0.8955653675875221 -1.0435704068463123
Ni 2.5023865247563504 1.9693434234913425 4.12947398758324 1.2785833768552304 1.2085490978449636 -0.7221357176080402
P 4.54015810680089 3.3942651573491305 10.2793061709628 0.6216798888831229 -0.3890511028356654 0.16613568742123
P 3.6760119041589814 6.928694253848629 3.787041129026743 -0.10776058991644666 0.7428158716652111 0.18393003529017354
P 5.2953462640610685 7.129123250908848 8.7065079341301 -0.6165219988312672 -1.8238989307450006 -0.8737274457768243
Ni 6.243896716131527 4.189688371617766 7.076628801444368 -1.454256057232618 -1.5163700529545434 -1.1704206664043584
Ni 6.27337048470722 8.039659083053294 1.1448886853771267 0.7019163052373718 1.4496445266025357 0.9226583671495723
Ni 5.633027755798408 8.810371873026835 3.993155734898485 -0.8447315727651065 -0.20642178863478647 -0.3529494720171018
Ni 9.090404921507496 8.298786854604213 2.0435115501041383 -1.2416409953029262 -0.6557161525322256 0.30874295270321667
Ni 6.185529625188413 1.897552362302907 11.381296196175722 1.635685694698441 0.20904405674898194 -1.0647349567390696
Ni 1.8436445723884387 6.846132690795553 2.3539314182595406 0.394796747070191 -0.12660600475772388 0.2334173433870238
Ni 6.682363939175372 3.0946719929928213 0.2459332157593419 0.8245538122656509 1.8776483565523145 -2.5631923910792502
Ni 3.069215280715659 4.2346407057474345 2.1747458310789636 -0.28113110452321904 1.8520751360689007 2.137373227485616
Ni 8.912862089230654 1.3573504244691859 1.7469413127467932 -1.2917132293689688 1.6769102485658667 -4.104810677077621
Ni 7.222326327780282 5.286805412710749 4.539438537771268 1.6650289237472486 -0.9467046094654985 0.5041838168464672
Ni 1.8948712536265935 4.48345864702758 7.073837131585526 -0.7727345136015144 0.26929605956150393 -0.5347287795128597
Ni 8.784555836906454 5.518808840814702 9.829966176960474 -1.6243543288460218 1.9140510635510648 1.105877235305334
Ni 0.8293452277547217 4.360321129986583 3.164529154830198 -0.250101231800608 -1.2351291623263372 0.6208555932096146
Ni 2.5823130462925 1.9946435074265894 6.705931897917675 -1.507614161138784 -3.050320023774379 -0.2596197128140045
Ni 6.153909126985292 6.585696611918049 2.9448625120100385 -1.1860324047996864 -0.2599364727234749 1.3673322015558647
Ni 2.3164502560392277 7.026393485476217 6.355758835241002 -0.6080864664694043 -0.010138631095898666 -0.4411794480997886
Ni 4.190591287941747 5.589567997632873 7.307325764908109 -0.28300338184526747 -0.4029635991516995 0.29943658770062626
Ni 8.02071626711343 4.9265786531694955 12.571464292514163 0.7428824632370883 0.21997201651539536 0.1446032126660929
Ni 3.9918944160744734 7.869772612666543 10.576901863288095 1.8298152962294356 0.2654201215458654 -0.7751503221318585
Ni 5.673189105351846 4.587128182511702 11.999790192730547 -0.40432654093749726 -0.4691954736967403 -0.21156836583273242
Ni 2.0088137656539784 0.3522433208195168 11.0642288369208 0.17128714971518244 0.551085109383696 -0.14689072314868898
Ni 1.043135543723497 5.123589467003212 0.7740637151473382 0.5559545216608555 -0.28568529955280475 -0.8336645163176675
Ni 8.631207476739576 8.816710714158463 11.158028944177888 -1.5514774381806378 -0.016992935013570732 0.05868285855318926
Ni 0.6598070250929351 6.276410917226751 7.9097994461145715 2.222045825234347 0.26894587531093683 2.4624419139320497
Ni 0.6937953752885382 8.233813733005027 9.420837285043724 0.6956898647116857 -0.14270959518780582 -1.8262355492979774
P 9.176449161810217 6.771070861290652 11.810436662130112 -1.2002179522714491 -1.7743095498526475 -0.9629822635795998
Ni 4.209939494884216 1.1317042643606159 10.459988940823449 -0.017731098731175916 -0.12920693271568068 -0.323711658197907
P 6.112798793948486 1.8789596567743825 6.546500830025359 -1.5182821823755914 0.03738641106825819 -0.5117384892652735
Ni 1.765330401430828 2.5875831293263536 1.4648122085140314 -0.37009153101402714 -0.39044669763161144 -0.27373352650756727
P 7.378890175672362 0.37240323111038126 3.1271760593129807 1.3948990554305396 -0.6290029049070974 0.14435175877691916
P 2.6242710150620248 0.14249217338577877 8.990537769359161 -0.30465309890455916 0.23927431638843308 0.08574526198762007
P 7.603854541822006 1.0769764790090621 9.879873494753788 1.3861333934227678 0.47326321600821075 -0.31275541629671944
Ni 7.340893982610105 3.6316860833969735 10.62164413117096 1.0471660946173706 -0.5120562776160085 1.8037093431710032
Ni 4.569355472420263 7.504146782045152 5.850092525456399 -0.9864728905023721 0.6612903041858933 -0.8615206192979873
Ni 6.837472064830829 6.763690902356882 11.235054156015854 0.6963287838472653 0.49529885565201154 -0.42630407364985284
Ni 4.9851023724545245 1.4272435186908838 13.042407020239349 -2.2363740689315614 -1.689183409506265 -0.22488385199471594
Ni 4.901951149761296 5.463555889846139 4.794543724964527 0.3264059172006185 -0.6769313531572599 0.186048367184757
Ni 7.888245543580662 3.7555791018519136 8.555950322478875 1.5354059865400718 -1.3314879381637457 -1.1679992014470593
Ni 5.346665079617997 4.159671010561308 2.6712152931635798 0.007001113908181492 1.8973214095012099 -2.198661899092768
Ni 0.5893454621244035 0.5948974761737041 12.773304787337995 -2.1297625050178937 -0.722535267039304 1.832227505215354
Ni 6.1386332569326205 5.1773866957351515 9.416333759542066 -1.2678752464091068 0.4425552454013927 -0.3927280374666204
Ni 1.0003575795168869 2.8101704300516377 5.364316172408654 -2.2909950987105514 2.1173620744710115 0.20127572565747268
Ni 4.364605375809559 0.6756707120993838 7.772793871411764 -1.251170017839284 0.0784916657490003 0.5346310775927309
Ni 3.5874155432262302 3.2788853499488764 7.956996172249567 3.3936993356045426 1.0572710442618565 3.270498242763309
Ni 4.525342908342085 1.767016459464386 3.2771007081942303 1.1176649719688816 0.5061959621804895 -0.4155864301220326
Ni 4.112829922896779 0.5167224280374417 5.532755212647472 0.2160053185581635 1.5361616337591737 -0.6546625144567305
Ni 2.3209095570678726 2.3406815818767006 9.715156680993427 0.0631447509792848 0.47476679713693076 0.7904607272366838
Ni 3.104060480075857 9.092514797407413 3.4670466624643828 -0.4649732080852766 -2.1108574405832745 -0.46245481253879706
Ni 2.4846783086880526 5.27008303385333 4.620643883651995 1.3082346240627598 -0.852014479579765 -0.24193052306435756
Ni 1.9125978965586454 7.279025787553592 11.077848131921924 -0.9792432055231522 -1.4257126983772863 0.6338064969433278
Ni 3.3174343489237756 8.593331058291724 12.939113392775823 -0.20251294049868346 0.02766635556701687 0.20747876914439103
Ni 3.4211130978397746 3.406371606835989 12.41788559655035 -0.5556752998575397 -0.2655769588387039 -1.5445827679433335
Ni 8.113873276825476 7.353276835053284 0.11733858301738195 -1.8795872254462405 -0.6106164319801097 -0.6248711421269109
Ni 1.0223592548400366 7.647295873123787 13.386538835634035 2.7601275803798395 -0.6923014078554272 1.0150854120327422
Ni 6.000201442975196 9.018595433455305 9.147392761698567 -0.2955429090731749 0.32227441153074826 1.8699252768764443
Ni 4.459227321190107 0.20647485105814672 1.4580154598180985 -0.5704869109490756 0.8152150513632282 0.6066314791904327
Ni 5.337046256738026 6.757637677613452 12.979405573061921 -0.8040541496504022 -0.06393639364264472 0.5653794145191812
P 3.51389235684485 5.100620381332938 0.32781667022624417 0.16298814293118383 1.132294034735966 -0.4589920508011772
Ni 7.10753618002018 0.7425187670856125 13.422071357012284 1.339250869938616 -0.9065388358798904 -0.3455650066275726
P 1.2462180091643975 0.6193563737785476 5.668574097324474 0.03663693449674335 -0.7285521626573453 0.16406492093513034
Ni 5.952724628511129 2.0761178855181366 8.8081431438557 0.28306380276955767 2.254356621551911 -0.10357046309449905
P 5.312483247352969 8.726354587737134 11.98270480465716 1.4532127035697682 0.44864078947384023 0.5398054227048187
P 8.528413217283804 3.769150487007274 1.2929724905692788 0.39039630400965025 0.07066702749825894 -0.048155219548988035
P 0.541185011015036 5.697973237101961 5.114821043885523 -2.209685246786466 0.46873781733403147 0.696152149060085
Ni 0.3873345188108406 2.8159288249749914 12.801028925200177 -0.5057323922805097 1.7410489880273048 0.5475760677891731
