# total energy = -340894.2043513407 ev
CRYSTAL
PRIMVEC
9.06528973237358 0.00000000000000 0.00000000000000

0.00000000000000 9.06528973237358 0.00000000000000

0.00000000000000 0.00000000000000 13.26796785686102

PRIMCOORD
 96 1
Ni 6.595460641994502 1.8857434486742681 11.34668689067117 0.45942116791879595 0.5636585751733325 0.23928022992570408
Ni 4.710759701644502 0.1537346231993743 6.061139771177124 -0.094362828453302 0.4901404513795236 -0.3966803372461491
Ni 2.5800449273468518 1.6329397126842131 4.7760044052220705 0.6600253214305407 -0.4151855951391882 0.9996958169505491
Ni 3.36208934576368 4.3536326109094565 4.795096812019813 -0.46666396552413825 0.5980157124969636 -1.157224993649691
Ni 5.031906657257644 4.597026576111773 2.663266100550707 -0.7439870091551767 -0.15718233488268413 -0.3531420476438822
Ni 7.368566684691957 6.019406803163217 2.573375593658471 -1.4624671322885008 0.36817168828349495 -0.36295903373430394
Ni 5.122088159951699 4.593201023826198 11.52747596467876 -0.0021841521355123674 -0.03983872926349268 -0.27312700327181993
Ni 5.596628883868627 7.786141127654983 12.655333085660908 0.4746246151321117 0.06530422052444883 0.01591101480330163
Ni 1.7258317370213627 6.455519763718658 0.23990473516744082 0.8251852752020628 0.985576861050664 0.5672100399700166
Ni 2.7397028108860226 1.587024019967548 0.4271763978940217 0.13845519078682605 0.10555458340406337 0.5943632033460409
Ni 0.7103860223225695 9.070003726925453 4.62193617935893 -0.46038276050111687 -0.11140332887535652 1.1898044702476092
Ni 8.559881740636774 2.364173181905206 1.590258515359711 0.8018730828386835 0.9410373838773922 0.28139001461156055
Ni 7.0231882095069205 0.48661387684092866 4.917161845385887 -0.14033826674215186 0.7758643174797477 -0.3975563120931992
Ni 0.798693729619874 7.602768446061163 2.648392679614827 -0.3773019327195373 -0.7395477424369006 -0.7493493019083546
Ni 7.515079898055577 3.742985626292032 3.8288701816321473 1.005353786567275 -0.7080247321279549 0.11140924241262748
Ni 7.6002936219522494 3.867307010283412 12.73467522136951 0.18682766855294275 -1.1148092476876412 -0.19737304816895684
Ni 8.055570605094665 8.966777272243387 6.986023241011261 -0.039616071729725325 -0.17620824116588363 0.7105153597602925
Ni 6.917088057965786 1.0592972409334076 0.487524938463441 -1.0763653418891461 -1.0145351959562268 -1.416091887458071
Ni 1.9621910373573153 6.523926440370178 9.050426327124681 -0.16581661351891444 0.1232687128543748 0.37573176001894004
Ni 9.066286958117194 4.931136896104941 1.257755471243871 0.001580714223558568 -1.106140773379366 0.7328595317834474
Ni 6.4514131874500205 1.9495268275399054 7.037157821052109 -1.0191690951838124 -0.6939281448255726 0.30661845016104616
Ni 3.237160587357292 4.32581123658617 0.32000472910133576 -0.4257692841923055 0.2503460008215624 0.5240566445109942
Ni 6.013432777200674 5.349989544926417 4.738243847188112 -0.44959055498161926 2.051211189675551 0.8805282707487416
Ni 5.290611896892034 2.712099003517366 9.359278030214305 0.2764110733397304 0.4041370506345104 0.6124740540141388
P 0.2233188809928288 5.367431162455906 12.395625224977266 -0.6651081352700868 1.0318556895125455 -0.8104004035834044
P 3.7760467381059857 6.151343030566641 12.557467843352512 1.4931401358923253 0.687502700915203 -0.06745212010538706
P 2.3330883032624725 8.413567963648232 1.3970237050183185 1.30066889590036 0.44191452649360025 -0.4632297430316087
P 6.429384533293752 7.473406760954193 5.720258586250081 -0.4797768487570124 0.4791572128951425 1.3563659323523478
P 4.924084100659025 1.3660303858023253 12.614706082999703 -0.8530254373427824 -1.3200830387609137 0.8503933990365741
P 4.0217795480705725 6.105436403139752 8.134842938071989 0.5499314553952271 0.6369910653188966 -0.18535982575816465
P 4.821465020391967 1.0459803302521085 4.027557763773949 -0.7683764937431348 -0.29945998473939395 -0.41441015042574436
P 0.10021677847635319 5.621422451406649 3.5788086957994047 1.5412832712564553 -1.275803757227564 -0.1962484476462104
Ni 1.5795088947430438 0.973349228564859 2.6373801655946485 -0.28726035734940847 1.2395586588526006 -0.7092256944145915
Ni 1.845847108369028 6.5217689014034335 4.598505124874278 0.8254557552546301 0.39054979886837904 0.3124705380664489
Ni 6.1530201091752454 5.615665992398736 9.237437816034683 -1.1735360721048886 -0.08389458193212648 0.7394860359610297
Ni 9.016282819711444 2.3741903271079527 10.298821886674581 -1.175598353950556 -0.28934552201321134 0.15081294102123058
Ni 2.534636890857657 5.148984874717807 6.771758771446943 -0.17621775424758038 0.6184685810346767 1.9273634643892548
Ni 0.6300394525067609 0.14996890182632347 9.137782178995481 0.2266671691473838 -0.8068733642667523 0.33976151257191806
Ni 1.5638531392994741 0.9727781153089559 11.59470506018835 0.10058027011792356 0.18066344872375983 -0.737467205758788
Ni 4.064667434001973 6.878696555763402 1.4687111100398609 0.060068683157122355 0.3084573031419978 -0.5858711067146297
Ni 5.670764823658733 7.72929269546817 7.887488347766434 -0.4379138899746394 0.10330049726256402 0.19459445698255518
Ni 5.181864680736236 3.0380233668425882 4.7362793988936005 0.8634299205055582 -1.0538321937836366 0.6023806743338787
Ni 0.6239856519941865 7.265521535805416 6.594790717080039 0.3449281443745221 0.578609797166526 0.2834196434470796
Ni 5.215995496743787 4.286930208735869 7.343502064989625 -0.42724175497277384 0.5372271204546812 -0.2784571572354817
Ni 8.112373710832596 6.986419394174483 9.397197230819348 0.3508805053032151 1.8005358305390282 -0.14150451913611112
Ni 4.697850729003134 0.3712943255973567 10.511772795750323 -0.8430356731199222 -0.1150391258557309 0.5923292036351476
Ni 8.229868931622466 7.23463609353776 4.568054816515882 -0.4970016972757311 0.4827269325242719 0.647501477931917
Ni 7.202971036349347 5.979356352931781 7.124553560197923 0.6681003851291913 -0.05210957621104574 -1.2641774858425454
Ni 2.1442492519335796 5.335349101937787 2.4766915586079192 0.48695022657700004 -0.3863203341680637 0.1920693765678563
Ni 2.2921403893431886 5.2544685865541565 11.3039639930137 -0.8150047351246351 -0.5891610903198111 -0.4144831697555249
Ni 1.007842656163459 3.3243777402945143 3.707269291102617 -0.06301311049742696 0.6513247083327492 0.3508905326055441
Ni 3.5628401878585545 2.6048928866235306 2.8386948687136053 0.02376702051261068 0.2913836354891627 -1.036965499935285
Ni 1.1801375536507108 3.640556917110276 8.213283077447855 -0.4123231859897286 0.27700242706682615 0.34435633103145213
Ni 3.6090097086889545 2.637328493442924 6.952627620004565 0.44880739695869154 0.09829841606228233 -0.12043175762621196
Ni 3.9260682186130116 6.86871567171976 5.939179895172455 1.158938376796372 0.1670232322325059 -0.3648529083229071
Ni 0.69363517987403 7.402461803165324 11.4017884415181 0.720405622290811 -0.5339708183009126 -0.25971664340318495
P 0.15331671334068955 5.781180053133359 8.006276278878396 0.29277305963752154 -1.4923240677489331 0.15683446462496217
P 8.473426072040755 1.7933862764339168 8.193474512757788 0.1925578861685006 -1.5211934424851155 -0.29758693608639714
P 1.9040372034427242 3.239961761898151 10.292519697222138 0.40883317055859913 0.5167467411131423 0.3994026212733186
P 3.992090724053381 6.31288649437927 3.574563420597191 -0.6997882031507755 -0.9513945587420002 1.594012740439687
P 6.9295528314081185 3.824373797903131 10.311161559118002 0.20254045130250925 0.6762063020657774 0.9054330044102215
P 6.392162453472504 7.9038992418483645 10.482769307640215 -0.7740953985047829 -1.2597474750956497 -0.07798104466116892
P 2.3517809307810835 8.490242184575685 5.9542128652083965 0.044245342971620576 0.6631576964119353 -0.4890716437953771
P 6.87013892221463 3.9370825456911454 1.7130940983567653 0.9319241087222143 -0.23377524094707483 -0.40565091617587556
Ni 5.2499359416660365 3.2549285553187257 0.47334682525339883 -0.03441370159317944 -1.9143621670335802 -0.23844282162607322
Ni 1.40654316581235 1.429405826628032 7.101998212705656 -0.024051898742881158 -1.8162907793804397 0.08028706708652625
Ni 6.6786256104017445 0.5752434019252896 9.189566740313284 1.3621313740812153 0.2873968829272728 -0.6286480926708399
Ni 2.9204918848936128 1.6106119039653293 9.198018309971673 -0.9097879389448073 0.08677267481086992 0.5857960305023202
Ni 6.099942837535349 1.8522834641101598 2.5296047485028645 1.0477291662096924 1.3900229582851609 0.9624060793611555
Ni 4.195878438223296 6.954455182423454 10.294390773031955 0.1764311558099671 -0.1451004640174856 0.3973143712857222
Ni 8.336585522868385 7.1643166407434515 0.4040771330151799 -1.3826688319129348 -0.19685291399942872 -0.16861963018534828
Ni 7.679243230613539 3.8265585327392055 8.174938714752308 0.4423187039105544 0.04434998687028491 0.09868331020552683
Ni 3.2535415659829607 8.434952982230385 12.509119933388883 -0.16413691182364634 -0.15940351090371901 0.19880232441631568
Ni 8.979051674600418 4.820785123658749 10.106264253479475 0.6302167227095404 0.12489673537610103 0.5710571816302488
Ni 8.478847115326948 2.346441475102877 5.966525341782488 1.2719067361660032 0.7657133450886748 -0.8401508953729595
Ni 3.4830837684071794 2.784095534920279 11.710096227221152 0.18349937551065817 -0.08057040265489995 -0.8597522145436548
Ni 1.0109611158464862 3.2914526078272037 12.7008952320763 0.4337373899994466 -0.15521569807461658 -0.4368831347172799
Ni 3.1461088168447193 8.556174037118291 7.960449426001538 0.13950214399410168 -0.4518904067593895 0.5994372754348385
Ni 5.68891353379077 7.982948568697193 3.722832580590469 -0.7602124698751036 -0.583418274298763 -0.25311225071278987
Ni 3.2277236207002242 8.455313623067825 3.758165454022349 -0.10135597194168351 -0.20609988651899344 0.09174441699384844
Ni 3.6830096691324163 4.345210956707327 9.34971142991344 -0.8886210750592051 0.3390215490821 0.16204146274719833
Ni 7.221291986987133 5.931110880742622 11.53387062008692 0.3338371766676831 0.9424715452207575 -0.10911941793718627
Ni 0.486046389700936 9.129109416266548 0.49375460559767437 0.12810932877612774 0.1506563608387083 -0.13105092790295497
Ni 4.493899839617246 0.35903714729090014 1.700090846701724 -0.10927599811970858 -0.8056268934541608 -0.554680025823806
Ni 6.023613097619394 5.4830226723927655 0.43220672719085823 -0.2856135657746049 1.8947963290865106 0.1836415575154773
Ni 8.113107999304471 8.99870522283531 11.241311962312137 -0.009131015766990725 -0.11921434027934306 0.08990916355732258
Ni 9.45863269963294 4.9359233691067965 5.727410193354558 -1.6259535550123416 -0.4259405196628471 0.05206278213351034
Ni 7.998749368777182 9.15839030224381 2.451005060026938 -0.5258998683673201 -0.8319192514917866 0.4981214127024712
P 8.595463003008524 1.691764378042246 3.831749317665081 -0.2276081929044145 -0.3850054720113821 -0.7334485715176982
P 1.731053343932478 3.2775192574411203 1.6072024484804848 0.3058062386723959 -0.5281159021820324 -0.12993764023411816
P 4.760056747447706 1.1133444985793612 8.120766356107442 -0.16251094618444914 -1.72308006225371 -0.37571067697301747
P 8.670677712282002 1.5883022258259982 12.507846260175318 -0.7726828344279725 0.8357270552736511 0.05099988808663474
P 6.237853090901316 7.739146665454945 1.6379972378503784 1.0798245040823402 0.1723418162319419 -1.7770662866621783
P 1.710438874981304 3.2529795180168337 6.044355387156412 0.32113464149935017 -0.1841966586879989 -1.1807256478747923
P 6.869531547799621 3.8087271077493376 6.065942561700577 -0.011273001810658004 1.481010956728959 -1.0601745910618967
P 2.486164786424092 8.451614984839118 10.336649527852884 -0.4552909478005062 0.1573067762756904 -0.6024603785318786
