# total energy = -340886.1046068737 ev
CRYSTAL
PRIMVEC
9.17029178121254 0.00000000000000 0.00000000000000

0.00000000000000 9.17029178121254 0.00000000000000

0.00000000000000 0.00000000000000 13.42164896910205

PRIMCOORD
 96 1
Ni 6.408979359349903 2.2160927076421695 11.170288380095712 0.9291989964815675 -0.5378326152491641 2.4633430855900804
Ni 4.546759040581373 0.44952220008687643 5.825344393304844 0.3904166157246244 -0.8039250802717057 0.03419850025857981
Ni 2.8843226981791936 1.8631006667778556 4.410877325341951 -0.8626583324468563 -1.2878761150110658 0.9648632826523963
Ni 3.2993976142844965 4.284580399054063 4.63911213190552 1.0746043933339815 0.8045619425247562 -0.3582230617112153
Ni 4.180974442706545 2.9111182907130444 2.716447669034194 -0.4488251375705044 0.687290842014713 -0.8904126197419892
Ni 5.711257710500468 4.818502296418336 2.782441673712448 -0.36714247568803227 -1.40310164584599 -1.6744826129609807
Ni 5.091566074269287 4.592408752981616 11.47353709031642 0.018826902898515966 0.6145538193613029 -0.416676834972734
Ni 5.690037655359013 8.287155985787463 12.436634144402028 -0.9655027160086082 -0.48758143240309576 0.2734255083488452
Ni 1.9611585966082692 6.329069436920068 0.408320079192081 0.7730114214119849 0.5898591448281003 -0.8952923164317935
Ni 2.5759899782046314 1.5323282428572522 0.2919032252505212 1.1884392144689664 -0.6526161734506631 -0.8019085640623093
Ni 8.05248821955158 8.853274777534468 7.097340891396017 0.720929870225397 0.48462826331204284 0.6312587908208097
Ni 8.659992538028659 2.422992830417236 1.2585785271823682 0.6530913133148688 0.4599479869565433 -0.9736765100686521
Ni 7.240055391028654 0.7707052499100645 5.071047546447764 0.05639200563648353 0.7858597381295627 -0.8118049972404148
Ni 0.9204772060841282 7.738515770142275 2.4817698154773726 0.5867833341162539 -0.6713134927498503 -0.57954130784186
Ni 7.93587878948298 4.085685940988802 3.7568943000891815 -0.08783711151964227 -0.2737345549488318 -0.1294524730675835
Ni 8.330687360790265 4.038926623285138 12.38187374713444 -1.9605345518245847 0.5338723450498354 0.28769153134955616
Ni 8.33368604619703 7.139576504172594 9.330005233284568 -0.40835057449522577 0.38411381343504813 -0.4249082217435908
Ni 6.989174548954357 0.7682595330966566 13.784033366521122 -0.06143573870797806 0.9610966165211124 -1.712060828325071
Ni 2.011998694146828 6.401322165727121 9.318140709800552 -0.03562674806467412 1.070118589648486 -1.9926376030067163
Ni 0.24257622585299066 4.874679503763431 1.5599445765039641 -0.4590416730921901 0.32551014485922647 -0.9867402852311457
Ni 6.571632824364589 2.2898310237149606 7.130854639676036 -0.21806117264592764 -1.147287679931321 0.6993380029872343
Ni 4.0725815940583185 4.712126911958148 0.8133388533491906 -0.8498328985474137 -0.5564749129406997 -0.09494801153281067
Ni 6.459480156093202 6.023854616145202 4.446619454520575 0.024315436816912964 0.37939146825871434 3.255906975212696
Ni 5.56771513352156 2.9194082344675283 9.207385593993967 -1.2610474248539958 0.1793033351514396 -0.6919447958469567
P 0.2583078613738056 5.989420170572097 12.555093222319387 -0.23442470160561563 -1.5207116177526907 0.45917408490499634
P 4.2563909221721135 6.223904530972702 12.584446409226164 -0.5139516948665084 0.9188011981870112 0.6908909006611457
P 2.5476446063626965 8.487040835363214 0.9657188405008815 -0.37446549171200666 0.5142769394164111 1.0053504441331653
P 6.6783199987447475 7.879444813968497 5.790058944656058 -1.0748172806757361 0.3017580367449513 -0.8265263626109896
P 4.887802191277443 1.2375583844013642 12.762847099257664 0.23151395571672387 0.06234153835169908 -0.3129842444780739
P 4.127410768514135 6.410373243698002 8.151289860044038 -0.15622588450668579 -1.3400332566305955 0.10287832212348087
P 4.953690737600414 1.186773308613388 3.7487474128862135 0.4728402695381792 -0.33047777327714695 -0.46316597967320877
P 0.4384894220658374 5.925035552098392 3.512861831904098 0.7076616923615813 -1.5619312865241102 -0.9894494566321925
Ni 0.6340339725497789 0.2514062997923627 4.459490876040258 0.03128466904589451 0.21859956164790093 0.4655218814998951
Ni 2.4399120187214645 6.729068393365669 4.864985588339909 -0.888441097837915 0.017452134038176394 -0.11644783327779946
Ni 5.9691354851905505 5.828554912451354 9.365116446389841 0.9624233057523361 0.2975848792038681 -0.12522197992600367
Ni 8.700543568208223 2.563573403156434 10.211163896402187 1.056836013606967 0.537116563018746 -0.17638461884274784
Ni 2.448192792184184 5.3789446775635446 6.860878499061959 0.5396449858675545 0.4625538000105066 0.3539648006554936
Ni 0.7002948327183599 9.021081946520415 8.738889143218593 0.5843644402621162 -0.12181938200235794 1.2122442873083639
Ni 1.6530459636360386 0.9669155635760587 11.432131388944468 -1.0679274955344382 1.668230975624314 -1.7493677923056452
Ni 4.27682233222188 7.086242087274279 1.421849152832759 0.619750533070894 0.6828189222862886 -0.14886481615592426
Ni 5.976581762102764 7.831117376373222 7.950407282724383 -1.0475949546246732 1.1323572838737337 0.6495313638777523
Ni 5.148504415830779 2.797672611302959 5.326408076048681 -0.442859921126005 -0.08772321164959732 -1.180133008596116
Ni 0.8300672995847317 7.463553741896216 6.593465454995868 0.7033327259689243 1.87590000640264 -0.40890670410901186
Ni 5.159646320323808 4.481604117599508 7.3740819562442566 -0.09690744925202666 0.5106899933961011 -0.46376633226136904
Ni 0.8474138234851534 7.423241139302509 11.182019017319977 0.32894925244776246 1.370372531044085 -0.23898121062804648
Ni 4.682992895024524 0.6877828866358184 10.411038658656999 -0.07507852630239328 -1.1890097422604555 -0.5833257145849567
Ni 8.549481351982992 7.358737307035875 4.605612139063148 -0.6405366165783097 1.8600548118402676 0.5975179469249388
Ni 7.530331806520275 6.243244676302576 6.967392354927781 -0.9347883176438868 -0.6650340874990418 -0.520595168324955
Ni 2.5726153108355496 5.835753591485944 2.7046363332424073 -1.1363216678381205 -1.32493471042626 -1.100089939199596
Ni 2.5856646360154505 5.1337310757992825 11.40789155672519 -0.3191479500866245 1.7540641693400503 2.113775128450702
Ni 1.2487002888943928 3.4361450050664213 3.2615013835705544 -0.4686347160972638 -0.1105144985125 0.9991414871089761
Ni 1.3681983608685924 0.9279968453304517 2.2485555404860547 0.2280967025050588 0.9919015177171111 0.2914291440151175
Ni 1.2777609434939043 3.680285682694318 7.9926722404346044 -1.0849160596726346 -0.47715689463566213 1.1617676187150507
Ni 3.371476107548038 2.849182140140276 7.020085768431806 0.7958070791502617 0.1220798347525962 -0.653951347322319
Ni 4.523998376423598 6.759412888812113 6.02632050760049 0.9308889825894806 0.5212741966698505 -0.3070869051570324
Ni 0.6108688985252202 9.214767678863833 -0.09554526988712969 0.013134737609745121 -0.3032312788563681 0.8468277931725028
P 0.29434802503475277 5.957094892104669 7.853490137189388 1.0057147694511195 -1.7882436434352362 1.5550906094531927
P 8.652161108862366 1.6931659901027045 7.961225475918149 0.8835058653198269 0.3548634012103631 0.13823304747369095
P 2.0997400457429563 3.3657813563627124 10.413643021517919 -1.973514509024021 -0.8179021112770881 -1.7206645108336818
P 4.3636283140581 6.20297792516769 3.709811271086255 0.008549946452540112 0.9724143555267768 0.8063396032504694
P 6.933703454075075 4.223680491450605 10.490749585755559 1.8086407190343496 0.18057731676785677 -0.3389217902794421
P 6.344347142998575 8.179670996023852 10.305263011278164 0.10750476515189873 -0.8536491869697105 -0.9014480516205443
P 2.5074145363948652 8.801783589280678 5.470328469048257 -0.44513689008563984 0.5169154054805226 0.6417452921744302
P 7.056007635328999 4.254492671777005 1.158116146851484 1.9461055208834483 -0.9210745676022201 1.3761086621969139
Ni 5.77024102712529 3.2912727357817615 13.238738473311374 -0.2231516997949576 -1.1874840496445485 0.7917421650522688
Ni 1.4494012944371242 1.182628336736146 6.906753800639591 -0.06885954197587495 0.35575197446290346 -1.2999155626741032
Ni 7.18674848500563 0.9857788537342145 9.318865162849892 -1.236903737728257 -1.8955704882483737 -0.6441891257292325
Ni 2.7325543694881484 1.8088950721619785 8.984827198032196 0.27339876887596787 -1.316508691146094 1.294740960451699
Ni 6.513098852036194 2.1176221146823844 2.2886462220190764 0.08745761669303648 0.5825816373300805 1.0541299275297136
Ni 4.069977231197397 6.847887863749347 10.377927486185413 0.6497645629344809 1.6893155642087552 0.8935516795916031
Ni 8.19170241881797 7.525040548172557 0.25211608037488153 1.1032637089418869 -0.3267334757433663 -0.3207209510006993
Ni 8.002574321481164 4.385160159119525 8.489716726499893 -0.7738277466656931 -0.7068721065807503 -0.2634609409369656
Ni 3.062694043277049 8.509269622598687 12.118594670595472 1.3686401217340107 -1.379500204376966 1.9285888521559236
Ni 0.37936029780197106 5.072253439814705 10.291317748592938 -0.599523921611374 -0.6663016413575558 0.6347128108076812
Ni 8.633976420294731 3.0179338491778958 6.229282907092177 0.752125321991595 -0.20679639836538577 -1.032296890815022
Ni 3.6964070556150954 2.6232811728305965 11.595258041014166 0.5725185966671237 0.0022931669095508896 0.37048259580485876
Ni 1.312653903655199 3.1863004059614357 12.427051189508846 0.3908909842578816 0.26567080410409083 0.9951562772089829
Ni 3.239157967688033 8.36846896285716 7.715958686461657 -0.4343644820604842 0.8043038037673632 0.20463487193769275
Ni 6.045844975794816 8.388964564949273 3.6363673213790824 -0.8954792356316191 -0.1741225622814485 -0.658214493474047
Ni 3.175130990593116 8.511387959996128 3.3033628484431676 0.7195216770239607 0.3767877120872801 -0.011671522800657318
Ni 3.700689581868794 4.518211922320634 9.452827536023147 0.2195472702731509 -0.4552222993460998 -1.7112090218477367
Ni 7.485791699423452 6.560903583000933 11.53746411123111 -0.4360259289233071 -1.3191661833735993 -0.41943048645847125
Ni 8.264156894043827 -0.0981954842068706 2.1729785809146196 -0.5441873538225983 1.0608798446590373 1.1707860201635771
Ni 4.72234261698303 0.49646492362581657 1.383517333260036 -0.4204162474105082 -0.7103140423827637 0.6845163645933694
Ni 6.312104397157021 6.001075611403899 0.2276717506492713 -0.9846996006520332 0.20754073273057808 -0.22955940309351433
Ni 7.923260468015978 8.992736574678482 11.545289121193168 0.8696314213305797 0.7162805443788438 -0.24820941409453381
Ni 0.12718002538474282 5.284930846400971 5.5169823283966375 0.833455485630655 -0.981064575002607 0.7482838367583178
Ni 7.595101577248061 6.58626861001963 2.5486230764938953 0.4006364936804197 -0.4788497089570528 -1.6503762068310803
P 8.62513625903442 1.9016067218940913 3.4174742910353055 -0.17797536036863543 -0.4474552538061713 0.35636981055256045
P 2.362340520691401 3.2845325713353617 1.4652686502760435 0.06718961047261977 0.8272370155247689 -0.5587706509534118
P 4.847764697436652 0.9257317832647908 7.974351831548866 0.10621895646093965 1.0894540567523043 0.6938810936377211
P 8.749962270523392 1.7505628462523875 12.307021240612345 -0.291432229338911 -0.21359028135876762 0.5651588138679429
P 6.426136975239991 8.0617318736495 1.297184538478829 -0.8707393096827779 -0.2923735102062578 0.8704911982277137
P 1.6843533397176838 3.47720957158476 5.705059510297309 -0.8589680280794626 -0.6301904974572954 0.5943192374819829
P 6.700952278817829 4.146384102173457 5.883648191309968 1.6276265718393905 0.9793517060765585 -0.5904859797788218
P 2.5853253352201895 8.73122736444993 10.066491539477976 -0.6463041151897062 -0.4392485496256629 -1.5295988929399915
