# total energy = -381168.41202903417 ev
CRYSTAL
PRIMVEC
9.17378801746607 0.00000000000000 0.00000000000000
0.00000000000000 9.17378801746607 0.00000000000000
0.00000000000000 0.00000000000000 13.42676606426361
PRIMCOORD
 96 1
Ni 4.769067101663632 5.369619961758711 8.227626473894407 0.9650633144783443 -1.308832405547759 0.9031161833515866
Ni 7.4539779942114 4.86721745987818 8.587060993481375 -0.2531634156656995 0.12256294503660183 -1.6437239916218853
Ni 0.8536879455536762 8.960313989989418 2.6241538117533834 -1.3822196601906582 0.7838414221479533 -0.14095867393497014
Ni 1.759055508638509 6.80819835909083 2.5988442479363796 -2.4513735719330296 0.22398036634384008 0.6313330957021708
Ni 8.416445966178822 8.134324462657743 7.1463689553853875 0.7095213712781393 0.632077430067363 -0.06996383078364725
Ni 6.072799988630702 7.384642504223032 10.005666219497977 0.04736871909195067 0.04179173922480544 0.22729503253936983
Ni 6.651546754560346 5.861940470585892 2.5547109884449735 -0.5133693400004772 -0.1533526767239488 -0.6920422406567694
Ni 7.20631323855964 8.94195724012613 12.065117417428516 -0.2959404016219097 0.9011878559806221 0.40689507299562183
Ni 3.455518261496303 2.4785006617012084 6.3811649475910155 -1.3600878612886254 -0.926381067416798 -1.107834359031705
Ni 6.401606899475254 4.528383598708503 6.4283595001505764 0.17784397699709373 -0.6275510029519192 -0.47129092277318835
Ni 7.8851093368276235 1.5158125188208833 5.926413852914321 0.2852775225914248 -0.1308606662690198 -0.3264989911350571
Ni 6.657619802241254 2.1386943789995425 11.315299686930848 2.549200190565216 1.5676933858188677 -0.7993287191502749
Ni 7.88338466467655 0.40137799587379314 9.699912120613172 -1.0591034694849049 -1.6951247146913646 0.38617995193545746
Ni 0.6734725490697492 4.966890666906975 4.267831505621487 0.06787712345794761 -0.9621481977140786 0.45609184643524675
Ni 4.916022012238346 2.863414460183876 12.980500922292826 0.37869572774327037 -0.7574912142891986 0.18084111195220468
Ni 1.1979591108932541 1.8208684924360259 6.6911619234432225 -0.6485461171463476 -0.8380451618838665 -0.996290390813426
Ni 7.768923311331103 2.5288188890875807 -0.10418028909168021 -0.21778452194577333 0.2677770518138162 0.051894117766129975
Ni 3.0744941491415885 4.1424973786938475 12.99094711473127 -2.612349826640507 0.5046844106319694 1.2973143776058305
Ni 6.275412271229686 6.827105536236375 7.479930640569841 1.513194226329723 1.1926535096606297 -0.8712725564784285
Ni 5.619036910925658 1.1508884044722005 9.265058972190085 0.5220576118030944 -1.7150733898991495 0.6643218919233657
Ni 5.802466802737969 6.213525897127869 5.005162793221143 0.6620585498104856 -0.04796367236347224 -1.911847885252159
Ni 2.4648684126772973 3.1642596650897485 2.025870546818812 -3.5088060814734154 1.0735114173801188 0.455428501819635
Ni 6.821665479930064 8.671220407559742 2.314573325878084 -1.8560274358484294 -1.0518706991818916 0.9626289940052388
Ni 3.0532017871062607 1.2294068562862324 8.342720818614449 0.1861311567065504 -0.3473976889609372 -1.5595591867475078
P 6.013656577152133 3.6844960109154217 9.404388630147924 -0.896252623462534 -0.34921777288881145 2.123389511612014
Ni 8.505000542106016 6.962299650546854 3.5594756275386685 -0.20878977464633075 0.4990673215555083 0.2758955671558926
P 3.852568981552748 1.8658384013964635 1.3705501721391111 1.838692801224724 -0.012262362307120815 -1.3450281387420258
Ni 3.7354197083122775 0.16300078323132386 12.762450071805324 -0.9645058993129776 0.24360122589856112 -0.6354255206039895
P 2.6612058242585466 3.3219479076684837 4.321646781007803 -0.020565739966493614 0.6300233757518117 0.5413025760756356
P 9.114085025076088 0.9640733848740061 8.196517241280016 0.5537153479176915 -1.112751079607032 -1.8400346599645987
P 2.405972693475745 5.445514710193982 1.381265156567057 0.8925232383270888 -3.178710888346667 -2.1944815424628334
Ni 7.389431221578672 2.353902272574186 8.106718699694921 2.001539276371721 1.3829799353954504 0.8580743126205996
Ni 3.723209396434199 9.186172651475744 10.222280454778788 -0.006102256242995942 -1.432517894224578 0.1070789904683898
Ni 0.20565064119704604 2.375359762794191 2.2690025338011823 -0.2581863228015876 1.7491685318106458 -0.262352024143503
Ni 2.7628880908675817 8.385612864584365 3.74429534823868 2.297748872494617 0.4562355711019626 1.5339389150762421
Ni 7.308646844119346 6.6288691505313375 12.520996888033839 0.20281607356139908 -1.5576714828064915 0.5910156270300467
Ni 2.069615755076226 2.180618590331488 11.939281484295217 1.4955315189426373 0.38588221818938057 -1.3706165287340912
Ni 3.8611464733679277 1.273688731143848 4.13163102676328 -0.32850368026991167 0.4001024755538206 0.175007278879247
Ni 0.45411902068090276 3.7987096719838522 12.952519034020463 0.57382317441116 -0.03894347114273293 -0.5385784922762531
Ni 2.0706890882766285 6.392488154165855 6.986255163249504 0.131268957451032 -0.23685927918903724 -0.19992692493906214
Ni 4.076134196029669 7.026800554239395 6.167464307390953 -0.23847804573938286 1.5934440124204106 0.5352638260807233
Ni 2.797317317372788 7.062257245004815 11.43881281693302 0.08965179613087786 1.3218349884550138 -0.16360366502799564
Ni 1.4089195406064774 8.363439818897426 0.5724379518961705 0.033415085125335996 -0.7786974160531686 -1.6347863228126234
Ni 8.261326384250623 6.00316176363709 5.977179761156928 0.10711370036106714 0.45158855924825453 -0.40002225713518846
Ni 5.805613412034874 7.642728683085534 0.28841747425130215 -1.6812451284957948 1.1350008921441679 1.2887932275086966
Ni 1.3930764086654992 1.522114911202732 0.5770798886432088 0.2615120447407109 -0.6239661138141382 -0.19785230179822053
Ni 5.48859481881867 2.4206324067598697 5.5572046621732625 2.273839412866871 -0.17842813163533788 -2.669651488575454
Ni 1.7925948777040657 4.062621206250247 6.502730482392798 -0.5515517646074695 -0.2742402909406568 -1.3544779713010155
Ni 1.2041238964545382 7.139968403471537 4.999053967766889 -0.8769397820665349 -0.8799302321534265 -0.03784226765875418
Ni 8.931196386757996 4.9762479307053535 2.114232473197215 0.15568003930554478 -0.09482665546359799 -1.2719728135172481
Ni 0.45243379581839105 5.121147912759639 7.887983484619811 -0.6610573622394809 0.6293029526460194 1.6254110522453105
Ni 6.546057365915697 0.3714595209466869 7.3956372891861255 -1.1664912494429651 -1.7102687694216545 -0.5883373088669351
Ni 3.241429570062249 6.886111340894379 9.007856229115605 2.130335603912544 1.0373745624482456 0.2943830844371188
Ni 7.996974508158422 1.0582056239280755 3.3029306450664873 -0.05033885746386814 -0.1349829159675095 1.3279308169401065
Ni 1.5949547882214739 1.3875354406907736 4.184384894873642 -0.1655276215235859 2.0902243377139547 -0.1393856730208954
Ni 6.889569858984563 8.549346633479894 5.139282656952417 0.12526414601784877 -0.23918664177063323 -0.17015457877263598
P 4.658633041266703 8.157093804567127 8.135586775891719 0.7055862978897912 1.4952214439013862 -0.3004961393133922
Ni 6.628144421276365 3.4005122284227034 1.935401401328166 1.1506481117631215 -0.1851749634408682 0.09537224355442285
P 1.2506992183215602 0.16522267469403665 11.978622356915768 1.2747277505545658 -0.8956769534647219 1.0104075469410985
Ni 0.9117681149986836 2.710184678591426 8.918648479480133 0.40949857205673995 1.627955158823403 0.28126325922570916
P 4.97270684852283 6.597173712861344 11.903834884696638 -0.29002943545411336 0.21489948708849438 -0.15809970449063096
P 1.5780566706561687 3.944150907532358 10.768172216230484 -0.18969881945315073 0.5266930536925768 -0.05415360322426803
P 6.034370990541091 4.153083930089267 3.9840972501633924 0.6035191588136961 -0.10477013982955505 0.775019195870633
Ni 4.546520177658888 0.03509524351673801 6.048476607027742 0.04947393836041157 1.2548505520146647 0.23122882037613726
Ni 6.159024422396338 4.574197496168402 11.407514604285053 -0.24169783822826119 0.03190739023155795 0.5766562729845811
Ni 5.741901454113569 1.5016940590309786 2.979668371711874 -0.45937643072378953 0.4499965321707863 1.0414646733572193
Ni 8.196605309645179 7.5421472710410145 1.1497352593158712 2.0831512329172575 -0.7735395260013129 -1.5219025527369985
Ni 9.269103695335872 -0.042612245434767895 4.856004338759792 -1.0363360938814021 -1.3741276272111431 1.1658857546484827
Ni 2.9355663030997956 5.648071950064741 4.397131461117792 -0.19181792267868253 0.3064996651949947 -2.3001932202700517
Ni 4.230987738104778 6.449172990450339 2.3349015227906573 0.4977519451781944 0.9879589881295954 1.3237872270853783
Ni 5.254993480228587 2.8317557176660317 7.693791822060562 -2.3636794137491552 0.449646090809903 0.44133911360610445
Ni 8.09833569218614 5.7191963287204475 10.698689028254709 1.2001832423787715 0.7621497961071325 -0.541585397423377
Ni 3.747162157000438 4.8923995080414615 10.95441479145513 -0.04517376832316091 0.17738040709711386 -1.1433004131487987
Ni 4.05936451149689 2.537405554690798 9.996361246291414 -1.313235933932093 2.2868188558456746 0.9929741819559995
Ni 1.292036307219098 8.023101456489577 8.420045760604786 -0.8953661070925225 0.11326146513001785 -0.14874860229303413
Ni 8.72812541475713 3.6841474069699918 6.416543661158116 -0.871741525695047 -0.27221863252493766 -0.09778548098160579
Ni 2.0348287508375527 8.793580392405584 6.191726224614059 1.1424522062158904 0.9903642551369782 0.8944489945948917
Ni 3.7993977060866744 4.865089141053452 6.130326061278236 2.756440104225924 -2.620051051939507 1.7967663361942667
Ni 1.4356336113720414 0.5731259859989924 9.84591479198958 -0.1751782572394725 -0.0020229439672997417 1.1467323216484833
Ni 2.778676180080334 4.371181566895762 8.664185029513687 -0.590390591851538 -0.8359085751568378 -0.12136352541186196
Ni 3.3480289870594513 7.056826362486541 0.22877225656707598 0.37866101785059303 -0.5632207163049654 -0.33842711003121073
Ni 1.4903277356523612 6.044911672996322 9.805661127459286 -3.11249006954522 -1.3981756692992824 1.7526819442805428
Ni 1.091460605564466 6.036747001642835 13.035120738890042 0.02457614667746735 0.10110014717713556 0.7565759015637809
Ni 0.08282462791889311 7.584310000861939 11.623671984921591 0.5319959539627289 0.8039924431745314 -0.9382564786981454
Ni 8.195779668721793 3.1406004657407136 4.25114255042344 -1.013035471482249 1.178779837002331 -0.7829821594714516
Ni 4.985238242982225 5.22338978043897 0.31353622327712294 1.364960101779262 0.5090920527813619 -0.1654342904788312
Ni 3.8924657857283793 8.99916498232876 1.554725892918881 0.2576541044472014 -1.0213825578953635 2.171606951857505
Ni 8.33179025016762 3.5223768287145134 10.484142564797578 0.7025192289286933 0.4306214700782842 -0.27897806273595827
P 5.315246920059708 8.10918828343465 3.732466665942966 -1.6886853868239238 -0.2932088616233595 0.24841124569269477
Ni 8.95111268058768 1.5486271586314677 11.295991615248058 0.1633532395800864 -0.3066343910006461 1.481026897568559
P 7.1509219063884615 4.689429447709009 0.3231705354742367 1.0859378160689297 0.5700577938314569 -0.28081383039311636
Ni 4.432352385530645 4.008174774246943 2.396839270105486 1.1161678185980648 0.3591118920740719 1.1735080470804304
P 8.319176291615886 0.7588961111397015 0.9691116292642696 0.3225009257192575 -1.0221430902104718 0.6312261378106613
P 4.988348157126981 1.2470755720466982 11.44721784153309 -2.8380302063945897 -2.4955734063786954 1.0182689519670463
P 8.245795161102922 6.818986733823077 8.917131134938709 0.5406384601290753 1.3646731666664627 -0.6228762231840691
Ni 6.006234982629694 1.1206974680403767 0.7778959435444265 -0.04188609871082464 -0.751241376724745 -1.5069389894486305
