# total energy = -381175.5691244966 ev
CRYSTAL
PRIMVEC
9.13232023046975 0.00000000000000 0.00000000000000

0.00000000000000 9.13232023046975 0.00000000000000

0.00000000000000 0.00000000000000 13.36607376636866

PRIMCOORD
 96 1
Ni 0.5917031119412612 2.106963237419444 12.041121159461762 2.0679930371195803 -0.020150249695629813 1.0737849827564798
Ni 1.5406589342071813 6.859660070296592 5.865340361046483 0.011444751501831904 -0.8749710883759382 0.5647448662589758
Ni 2.850461947998585 4.534343058711192 7.465767590769514 -0.37275339411690644 -0.2184100713449142 1.233948511754675
Ni 0.40658276393872217 5.98429978944634 3.4939179180828193 0.04810354037544619 0.5794209802139118 0.8797507691527687
Ni 2.2259025747150285 0.8721201336702405 4.6497627998309685 0.694974583812216 1.6925795796720076 -1.2244146041223107
Ni 7.824370971240519 6.783660902224276 1.466565681344753 1.570625214753682 -1.7656143360714946 -0.859052874483785
Ni 4.754322385859229 2.253600901651262 4.7149356023962286 -0.7269547362632384 -1.3177263656032792 -0.7216549213168798
Ni 2.9577575771360105 1.2866434499568211 12.968459866762052 0.11972701824970348 -0.38698265034241097 -0.4624730673712422
Ni 4.624113765530571 8.056615004315152 8.048728332656024 1.7820953644456534 0.5768930715857354 0.5450710419791323
Ni 0.738932550517118 0.007323207507473082 0.04097306746854811 -1.0497222853803212 1.0461101425490307 0.5027409137523534
Ni 0.5058766541834576 8.585138899174233 5.015685734881398 -2.174957356386977 0.7079419426061614 -1.2021588780479038
Ni 6.25230598812674 7.675422830017316 2.6472714781665947 -2.079937611075966 2.4586287108335463 0.3936657187895414
Ni 4.328345313673069 4.986895182458327 11.115668276267089 -2.6438458403662595 1.626559821137773 -0.39331682009055485
Ni 2.4286766107493625 1.344396242421293 10.627258097552883 0.7107488159273372 0.5652901972394845 -0.40665081819529963
Ni 2.6654776715658945 2.307253282380037 6.343257503938159 0.826681400131615 0.8029151509499527 0.28431978666384583
Ni 7.1828437471664826 0.21595014750930847 6.519021789973612 0.8701749525388756 0.21342958741118728 0.7713003522581491
Ni 4.628168515665648 4.943251824585508 0.31933531716961683 -1.4564687486132208 0.903301045668883 -0.7361505438298935
Ni 4.576287805040939 6.6432423479969325 4.15666134826904 0.2761066547254341 -0.7272049046008314 0.35619677530980587
Ni 7.829256762506883 2.369188677461322 11.040322982315653 -1.972452900528726 0.8302511197607443 -1.2304171015626486
Ni 2.301719096384865 4.865152222884661 1.792323759257612 -0.818839535489693 0.6859011607560381 -1.4160890592445934
Ni 6.317063270126355 5.645956461170533 6.2325600855545265 -1.2684588868267186 -0.11923182378083981 0.7333778661807628
Ni 0.5635134661823538 5.486807518368771 7.47525698461041 1.7531030909783614 0.07080123908327807 -1.2241857759409562
Ni 6.007404559360179 3.995125216986852 11.811438742181924 3.0758801316316706 -2.2775484862873423 0.843271186169496
Ni 0.9422545257588947 0.796345620672975 6.9337980715276295 -0.39935094209977673 0.04310145917516448 -0.21701344810770368
P 0.2257089447938648 3.6715488503516274 9.845263004722835 -2.508256915383635 0.4149220570651564 0.5987183949909429
Ni 3.742680491797828 6.4485960768730015 6.53087736795865 1.3315699563545906 -0.13780084503227882 -1.1838407964650064
P 6.845231004500599 7.337024707820764 7.629528355233919 -0.07563774123997295 -0.4945064416577032 -0.6965439851818649
Ni 7.975282561290391 3.2709139665096973 0.2119529309910132 0.47971874182556734 -1.0486123401455942 -2.257036482376919
P 0.6895586617664593 4.678999009476092 12.795609704078181 0.5439127600049729 -0.6528691700017337 1.3674802970979547
P 2.928981636425139 5.314179271063915 9.432611814061683 0.009610783616886673 0.7793607606687802 -0.19412265955245922
P 8.419907831169855 8.194595229069373 3.0071259864945947 1.2405588179823408 0.19135795232312852 1.325366141536724
Ni 1.2153017651477682 6.358569665090148 10.737594789291615 0.6131119447084539 -1.9953729996600087 -1.336967730331394
Ni 2.465288082126666 7.754654839413546 4.015916770213269 0.24143841391928741 0.24033618199404413 -1.287312529198112
Ni 2.486886019220036 6.201968639602995 12.766351576864759 0.33126684483734564 -0.2146143517479078 0.9407877297604313
Ni 8.242311601717518 5.949578708334715 9.096160702515578 -0.8546866270952892 1.360164737273148 0.5134937813934833
Ni 4.16902285678895 7.173547045280204 1.8202321295566988 -1.2703116237647414 -1.7340489025603878 -0.11971930494021962
Ni 5.474908105247137 0.7773120390704368 12.113886572978153 0.1401114954433264 -1.436484335071494 0.25388409588180794
Ni 4.836020121688951 7.174158910728515 12.597631049340984 -0.36336655358536774 0.43611771730616505 -0.1165211097178961
Ni 2.9964603498217204 0.9103352404613265 1.9390162174101746 -0.7738004929721835 -0.9358000467378528 1.486127194909602
Ni 4.997369953640609 1.4314637824839544 7.3049739171134105 -0.9767806029152726 -1.015620972821238 0.828277283863825
Ni 1.0115962324607815 2.4061745739637113 1.0572468742968664 0.2502745241536786 0.37384482740887226 0.7009503417796766
Ni 6.423244756208647 2.606126723079715 6.175740616206733 2.2249154334726584 1.3276389967313007 -0.4926333930047064
Ni 8.13663239324205 6.899741823321034 5.663539830337372 -0.0393227088590226 -0.015866277608295256 -0.589536728491675
Ni 8.344429205344609 1.5066319094249834 4.804916352578461 1.953203308270494 1.5379709190537705 1.2150488466366947
Ni 7.824197457158162 2.7403718289032017 2.542561208856287 -0.11823860662963509 -1.870227381497895 -0.9066257391667418
Ni 3.974659687588863 2.8684526186429573 9.100531430926946 -0.7232297220031673 1.1825184781091571 -0.5445974447768234
Ni 0.8187965164659315 0.8379086360215365 2.840972554157688 -1.5970942075784882 -0.7665875201635121 -0.14455153349255104
Ni 8.686352403109042 8.168686836877452 11.171725196884523 -1.0815144901902536 1.2935615954316175 -1.274518205646921
Ni 8.095025542756892 4.01033052999339 7.7562520822032415 -0.6581031647071635 -0.8418005151612405 -1.452888744571446
Ni 2.6821532881124037 3.6355766413830075 13.133864448848785 -1.795409050835424 1.6754094956506242 -3.7174547025561915
Ni 3.5339065214419954 7.378932924870015 10.186699449824658 0.7957392020268038 -0.35745507319693925 -0.004587105150050164
Ni 0.046076207953865425 6.872911066796585 12.82534910456214 1.539249528655878 -0.8083118964854917 2.9273408171359647
Ni 9.038403343891044 4.657903349989544 1.638680692258637 0.35323949245369485 0.3865062249266247 -0.16398495962681436
Ni 2.0471374082868135 8.295023353473516 11.657969189265305 0.39384929555525716 1.4467389229199663 1.3109288830654715
Ni 5.332453043632133 1.9547091963113365 2.471106283277696 1.1431037237569603 -0.1882669721026306 1.8516555320329788
Ni 7.1354744026830526 8.085546194468131 13.063867041561993 -1.0190932476405545 0.21732378025927088 -0.7020800845087456
P 6.443618962405395 3.8108167322433406 3.573793756047794 -0.9964323157079291 0.10163956462037334 1.7452889942505814
Ni 5.0453511635723505 0.02511662003716575 1.0733425885154988 0.3763557667561841 0.26789840788302893 -0.940169379450142
P 5.3404438237406735 8.650992059588733 10.25455898097041 0.2910787026542342 -0.3125052479591263 0.05799020336153883
Ni 7.325600175345582 8.857601670075166 9.143076170688843 -0.8595778937493196 -1.0592106844867306 0.5564952246556738
P 2.9071736559689154 8.356474735588225 0.502682168604066 0.12217573690051217 -0.4754733362856521 -0.8942103962215244
P 2.6553590608684505 5.643417676176048 3.622807831385565 -0.0881142764404289 0.6565692445611402 1.3611091034642882
P 4.312729046260949 2.6061997816407074 11.671228404853409 -1.013293353129326 0.044640778637826346 -0.5155990006619443
Ni 7.00218819047259 5.953998751274754 3.6337675287664335 0.21623800339425986 -1.782234461126679 1.041502211463374
Ni 2.150451345850154 3.8854186553366783 10.806857958040435 -0.6081350603191528 -0.5210247996632059 0.04151868806907688
Ni 2.9667711770984444 0.6577096953338463 8.401793874203808 -0.9100015976175101 -0.027891584203945514 -0.10905514035815411
Ni 1.240077749644307 7.58399004093536 1.7622501158571133 0.02329548019283085 -0.6161864698687194 0.18515233773304887
Ni 4.48080939814403 9.058284404801094 3.5946181856266577 -0.9942450782486232 0.2767849117393814 0.15796986378098601
Ni 9.058494448163946 7.909538988717379 7.524350511133261 0.27737266592205134 0.0005977814849989705 1.1044646712285238
Ni 4.238738988615922 4.225323610353698 5.700790564123359 0.23326847651398533 0.4579186152313405 -1.3279567850820357
Ni 6.3776379495091575 6.613425322791921 10.649940041044978 -0.36497837815717793 0.9823879217997211 0.2712459841990231
Ni 7.981154643130153 4.328564489356046 5.126784975350488 0.6650587700893901 -0.3275387452534811 0.04298935907733241
Ni 8.279434483021767 5.4032376569136185 11.425212833031715 -0.5321962428989931 -2.3691067554123135 -1.0382903893942956
Ni 5.727014934591572 1.7618985215323377 9.999387344992346 0.17142033285893704 -0.7844967963437651 -0.2301841811617068
Ni 0.48772068854484024 3.127874436406753 3.723748278948666 0.14548998614642042 0.6853925965507357 0.18296792848722035
Ni 5.085442048916916 5.697344026508544 8.864072832115067 -0.31623591864615214 0.2798023584094665 -0.9919190012186078
Ni 6.655890611368738 0.4025398858198067 4.150419407464254 -0.5401250108277665 -0.4722412025015996 -0.8478379796045722
Ni 2.631678954786797 3.097774309277895 3.484174645742474 0.9661174667744715 -1.066675882515524 0.6981853774400298
Ni 6.750930666899692 4.068950892869646 9.58026681875532 -0.6307240013632621 -0.3401335511993562 0.04631276702361056
Ni 5.513601745612724 8.077747193082194 5.640322732886008 0.5710499825413973 -0.6428472669893573 0.5458086914761051
Ni 3.614197879972614 2.9683602008000287 1.4205862759842023 1.7237974000357086 -0.7583869866305907 1.384342620070932
Ni 2.269792505231197 7.250139814160583 8.09127307241792 -0.6037487583259988 0.22221324714108825 0.754974618514932
Ni 7.394594853882755 0.3970239644648825 1.6358871155326913 0.5013556033690527 1.3181675669057555 -0.5458529144504792
Ni 6.386934651395438 4.437102114030342 1.444953132539184 1.5713939745989065 0.8848418105224309 1.084210806075494
Ni 5.709234307310052 2.437808930873409 0.34677702591036486 0.13016492575357583 -0.28074749593155524 -1.007571363043884
Ni 1.109586027391803 2.8063254448390675 8.180865698994882 1.2870088819147643 -0.1012821812809546 0.6209684646383951
Ni 3.4039810030371824 8.795355776109664 6.098992597884243 -0.616411441395332 0.41425716978764787 0.7511853266758288
Ni 4.434106713029655 4.512836444819062 3.0613518769271595 1.1167290904181735 -0.07421746385367864 -0.457817827987418
P 5.396233167378475 4.031672762123287 7.49372892852532 0.31960920599375925 -1.1956974386932764 0.9409407103985279
Ni 0.19351568989257525 1.1006363536702373 9.757126983205659 0.5385088153805823 -0.48466914385230725 -0.7696589599999841
P 6.645132738262611 5.745498750522643 12.779008972556689 -0.5688889703343363 1.7365876098218413 1.705052515328038
Ni 1.7822635954089618 4.545100931817319 5.300036046887804 -0.2928802746393472 -0.08566375801740729 0.3975488558940315
P 0.38429807637202335 2.9997662497066253 6.192034501772056 -0.5100109650512056 -0.4091959532146565 -0.8630442550313653
P 1.0985359200417064 8.203490108870195 9.693237271617829 0.28388038513358205 1.4691707695609215 -1.7101085896947064
P 7.759284925716438 1.0250207430431302 12.753426604193196 0.18741567984592886 0.22719887328113775 0.6180320077178904
Ni 7.446740401791062 1.824719751665655 8.329362703603955 0.1532698872021554 0.7165466535560369 -0.2701113563739477
