# total energy = -381173.4254524928 ev
CRYSTAL
PRIMVEC
9.18004329756090 0.00000000000000 0.00000000000000

0.00000000000000 9.18004329756090 0.00000000000000

0.00000000000000 0.00000000000000 13.43592129897885

PRIMCOORD
 96 1
Ni 4.898526260594301 1.9910137217891009 5.002435172307563 0.1675863038248275 1.267662101957036 1.1406426638109775
Ni 3.66425105981053 3.461399639885806 8.120268014381415 1.3384363444571208 -0.39674178661170384 0.7038014380752265
Ni 0.31006055725517107 0.8652301104045411 11.961517655776984 1.9343733200481847 0.6487147815137279 -1.6255372934105294
Ni 2.9987438105258817 0.5453551687061641 10.453953479746932 -1.0271186890481925 0.09360589568261943 -0.08875628089980198
Ni 7.246193850125423 0.47141909882908906 12.07205455885494 -0.9405804988456317 -1.1909023312974782 0.48751535505185073
Ni 1.7378189436317124 7.930749689550987 2.1784738808799653 0.604836849183855 -1.7352305815733147 0.09541749497006147
Ni 9.064980776910327 9.136392334841016 2.618298024196771 -1.4887574334435973 0.22753980156032425 -0.2636028658314686
Ni 2.329546183777789 5.514222594165886 4.144337037652649 -1.2539568365558018 0.2333579509039981 -2.671488027563561
Ni 6.575509056339823 8.434669814180026 3.108279170864381 -0.10598678584547554 -0.07088479993601986 -0.46096665802904485
Ni 4.518123620469365 0.7361164714185578 3.278217381038636 1.4234552698016776 -0.13699300441900278 -3.052395418246169
Ni 4.71130845465029 5.406329543599054 1.9916205226605779 -0.5497519923945694 1.709823968574752 1.2217483701440572
Ni 7.7679324390742295 8.452166976979344 5.022817622760514 1.5994943323795485 0.8984293193988786 1.3774168394853763
Ni 1.3030888064205421 3.3671848540466676 4.187775167208689 0.7391049984725271 1.5163746809402339 1.593152706432237
Ni 0.6746872927260529 6.5575345312815525 9.158676890295025 -0.9208094868662916 0.6374075840310248 -0.7746985793064207
Ni 6.954406169340369 7.322498371210381 10.383750015533133 0.29570000347632946 0.039531739546035144 0.8153929717019892
Ni 7.312795065292816 5.869159793784365 8.549344162837023 -0.4436690472908617 -0.5632867936562106 -0.7481347127749632
Ni 5.595374178187906 7.688010980873359 12.477832675060608 -0.33374615961577364 -1.687233741979062 -0.36119448563471346
Ni 6.126861973271483 0.6638640215086365 6.438399599516376 0.35905892734894934 -1.0458702586240827 0.5260901300012553
Ni 8.2721922253106 3.072064817492383 3.343784005310182 1.2052053781837113 0.9510186634598202 -1.511658506411487
Ni 0.1604579793123162 3.477730937168065 12.064973991348584 1.1810979436125466 -1.1515855359757263 -0.7014229105407211
Ni 4.06676842458581 8.963578017056568 5.718731011931784 -0.9013246386688025 1.4684485466829162 -0.5466831236612585
Ni 6.136758060101317 9.11439695075541 1.0579917445828169 0.47587905636450306 0.27522862299585504 -1.3774579771359567
Ni 5.486691643885113 4.582650145819 10.479185747149979 0.7626190224340672 0.6412207871295279 -0.6911343841305194
Ni 1.3363389237653107 6.474785619700729 -0.11704922589528899 0.13840659693707777 0.10711601435391231 -0.11727907092984317
P 5.07834495152454 5.276496189207265 7.99680561013796 0.0895864901105812 0.10811900169712993 0.8054325180551678
Ni 2.8786780223557478 4.232752790049852 5.9692039072087955 3.018171206955976 -1.1411463429202733 -0.2749933670565974
P 3.457663362205154 6.138548168572391 0.4158890160520308 -0.1554039028260227 0.6325078327365623 -0.07560431689887626
Ni 2.686603973431233 2.0254021645206035 12.349076139764495 -1.904995895327332 -1.7098561073642682 -0.241773428661203
P 1.9622342856002966 8.15699186016441 4.32435126350819 -0.6325068042952978 0.14728872991805603 0.731282674214631
P 1.6020736412636583 2.4189139066798657 10.191616296326249 -0.6418481363008817 -0.5128096108422653 1.1214097837232946
P 7.318844713920702 1.3466756526803325 4.447813667751645 -2.2794449319791066 -0.24261983582189828 -0.22666356960295805
Ni 4.3105628382592 0.5896213381806185 8.260525308100918 1.7867855708324711 -0.1364294186060489 -0.6542958751459312
Ni 7.570662485561879 2.3574167956658947 6.378408015626795 0.20155237635762707 2.4287026126980753 0.22376079413386624
Ni 1.0407782451258387 2.8123797486219213 6.62628754863161 -0.7288799783104092 -1.141055325868364 -0.6870581571786167
Ni 8.41175642575028 4.526211238741243 10.13671780053796 -1.1842110353202315 0.0960795540340926 0.44790648241097697
Ni 2.332052335637293 4.7009625456918265 1.978815280064162 -0.8778841482576752 0.08484666143275064 -1.8325139261075214
Ni 1.0698239025744438 5.205800674665006 6.398723451762624 -1.817164954455277 1.6359147799901115 1.5295924651820882
Ni 3.8049719457238256 8.55670013164662 1.3338603120361314 0.8273820257430653 -0.05810050368715801 -0.6206103099680279
Ni 6.156954155672408 8.103701707987055 8.141241659631993 0.6870856679824425 0.6104878768220453 -0.36059696126003055
Ni 1.1136494299637107 4.036180519839049 8.791392532247858 0.18431930030879223 -0.004356991417115076 -0.20021026050743584
Ni 6.463659407049747 6.797767088099677 1.2793657381592638 -0.6481247133382129 0.9010158491791321 0.3884435511586536
Ni 4.6591658079031095 7.05255919381587 6.598314120256962 3.896299610013974 -1.2863077420826816 2.5334526979229723
Ni 2.325910886574993 1.5403286690767688 8.274176032698287 -2.1907020208157433 0.02065418591524185 0.7868493557363416
Ni 2.5999260032574876 4.213116677128687 12.906236844336306 -0.8212489162621339 1.2131536864965107 0.5927452081266437
Ni 5.0137358057839325 3.307092289679231 1.5381447367420589 -2.249062977253139 -1.8016020670200135 -0.2537419138769888
Ni 7.496836576206101 0.4583357009163988 9.708609228661075 -0.17024328183170037 0.9407381074694185 0.098749644667088
Ni 6.1042056260580955 3.648314504396251 3.709751945127853 -1.1266620332611694 0.18235266350072465 0.9689299965226023
Ni 1.6056813983361304 0.7624411639911305 0.842143219153752 1.832819373163082 -0.26823779350031873 -1.582035770583469
Ni 7.01674784435095 5.823819559227266 3.4240772552704297 -0.05737108172030119 0.7114504699800522 0.7560151439643045
Ni 8.536669276857475 1.4908941351448035 0.41973912627135607 -0.6607997377027202 0.0928960140997884 1.7016224066005665
Ni 9.115874937749476 3.776348570273525 0.8532657597873582 0.26146782176633676 0.9924306507477036 1.0457998103974633
Ni 2.7273174660938637 5.589434690081316 8.408750879527563 1.3598425780470387 1.4436615695462234 -1.1240716468261738
Ni 3.0730562621840547 8.334368659539235 12.488111569701948 -1.6420571454424235 -1.3419587557880823 -0.5860328291034747
Ni 4.7538946761749665 5.486003140627008 4.587118072961932 0.1227506355673757 0.25830947864301324 -0.26876461253806616
Ni 7.692784603462889 6.7980608494898025 12.742373068907229 1.5473287061195868 -0.33318283091313583 -0.2825621805427908
Ni 8.686359065213024 2.273336777786067 8.682494266924191 0.12221584610982822 0.19073137448272315 0.2319135051479877
P 8.433173467099076 4.239591922413699 7.37677813207072 -0.2861290719584427 -0.17056672660939012 0.8448133338456353
Ni 0.4064473413725459 7.494045842999914 6.732135285519697 -0.1307799336297554 -0.728575559696113 -0.007076704341123296
P 9.39191884403252 8.45992411368733 0.3062205450836314 -0.8342070190846989 -1.142847127661464 -0.6834408721410036
Ni 8.826676029214898 6.496698383395363 1.6015889349699521 -0.6791777259892755 0.5921266007060383 -0.26626498604466403
P 0.3441249444531922 5.03750293825373 2.9381803099299013 0.1419305509299362 -1.263279399508308 0.5143638427032625
P 4.8287579304396235 2.3220277281992785 10.239166167339693 -1.4977341830209108 -0.12706828910612308 -0.05590863824216177
P 3.313435699697242 2.0071522381590907 1.799728238596203 -0.4595396957745312 -0.6906044797689783 0.4274191610909026
Ni 2.826360954783181 6.635399659751549 5.821301473311289 -2.6811394346103956 2.5146566482623918 1.1822030037512672
Ni 4.617561851026663 3.0313146046559862 12.489132390532633 0.12597119938720241 1.1385276743505037 -1.589401724030237
Ni 6.75570412905116 1.791154996026275 2.3439909821328397 -0.3235635626558169 -1.1336644327209315 0.33791134673705675
Ni 3.1115298242469827 4.242777397487866 10.41493554110793 -0.24244937168230504 -3.18687748331786 -0.5941606004169315
Ni -0.0455219994172386 6.789596849436827 4.185357143766224 1.6067242744690846 0.14204933589598762 0.17486946774980205
Ni 8.670817251666724 0.4577904063359794 6.916906609886574 -0.34005538966325305 -0.192628591505436 1.0717088169537414
Ni 7.375081660042748 6.206076568127366 6.131295016249338 -0.20201543203697467 -0.062080571380828564 -0.01456221408489105
Ni 3.722030253230732 5.972839204411592 11.581307796564317 0.7600905995852587 1.5430377920537168 1.7652595238352373
Ni 8.583368157843902 4.322965076948538 5.173474987694787 -1.5161006013432405 0.7728232166605787 0.06872070240516552
Ni 4.818485461828692 0.4714420489376926 12.710476089965724 -0.5214675436275793 3.5525078932367395 -0.1396679801480046
Ni 5.241667104390574 0.08270484737230499 10.407921987918696 1.2041915922072164 -0.28027646983240767 0.17342322222157874
Ni 5.451201595940641 4.008667929645159 6.305881082417976 0.5794240655377053 -0.20331152514057887 0.13034927385024003
Ni 1.7404719761862786 0.22130789726366853 6.28625139552722 0.20651177724543146 0.5478879426026371 -1.0930415169932468
Ni 4.600863352006747 6.977126776857847 9.43252768419992 0.6752601361024242 -0.3048428463178621 -0.13074548084739418
Ni 6.178830199193277 2.663139782395002 8.616523720741224 0.31146832205417974 -0.04261012136104274 -0.7688909714857081
Ni 6.732194037797722 2.5864588795289465 11.088625881116245 1.7542552023049336 0.009431577726545048 0.48306528970029705
Ni 6.916924051969112 4.42713102987816 1.553057717312621 1.5477992179981022 -0.004876097145378699 -0.6048430198314422
Ni 2.540687182930102 1.237653456770208 4.0938449627162345 -0.6704624576034647 -0.0768764987430805 0.7444654914534921
Ni 1.274970333359519 5.480908216517027 11.049620794538061 0.07805869197663975 0.0114195546908513 0.9516588681469803
Ni 0.19555512139749537 1.3650265595197009 4.526065276050525 0.698633777831358 -0.8347078699805174 1.5321203738102644
Ni 5.673560608178351 5.24849705671098 13.036713719773337 -0.6854435043933292 -0.046901292537228904 -0.05971798468592296
Ni 3.589452065849963 3.4968988678737185 3.5367778945875257 0.8412479850918801 -0.4161124778288317 0.40698660426816363
Ni 0.24373107137364414 7.8287135066997715 11.310936239123714 0.15755385928948995 -0.6297462108310252 0.24323972879408431
Ni 2.523649022302854 8.092070592946795 8.099764387355037 1.0202417594227011 -0.41091653545018914 0.18591209871720885
Ni 3.965062723298485 7.735857367289961 3.5342790867627754 0.3390464887827645 -1.5481617435438435 0.5854715572833659
P 3.2162924800002948 2.1374537747663918 6.382291174002509 0.2717872014144739 -1.2100243968389097 -0.761610635774211
Ni 1.1392158509480235 2.289227432983139 2.3320459096068835 0.07113368272203234 -0.08324563549421791 -1.1572267934219038
P 2.6371143592386193 7.176379619753539 10.169716384692434 -1.6737009975999497 1.0385778387277274 0.3032477339166003
Ni 0.7744211206821638 9.153200994382228 9.254340286989219 0.08904295890228535 0.8551509683262175 0.712160094452567
P 6.0103396818697306 7.361137174055254 4.867270048685006 -1.96308508616058 -0.8501835970186132 0.11697208121238564
P 7.469204645447473 4.486103628945744 12.265397289783058 0.11978255407798727 -0.15285182582813028 -0.6151150911814116
P 8.309242880640111 8.071158453987275 8.568490061438418 -0.5588917499123084 -1.494774843282271 -1.0768150278320552
Ni 6.302439484131793 2.2414085866968607 0.14685590894518655 2.257239599526661 -0.8800135358958522 -0.9989964768906795
