# total energy = -340890.6628995286 ev
CRYSTAL
PRIMVEC
9.05802528558576 0.00000000000000 0.00000000000000

0.00000000000000 9.05802528558576 0.00000000000000

0.00000000000000 0.00000000000000 13.25733560468522

PRIMCOORD
 96 1
Ni 5.924935826167934 2.3755486391946543 11.282774960863224 0.9168474168947501 -0.2624304427899222 0.05630433101868367
Ni 4.601703268245757 0.3673464016594716 6.048314282044019 -0.4646266233791353 -0.6914148914854157 -0.6116623567461207
Ni 2.5727961966363537 1.4454887244720755 4.935746028536479 0.4050307660933734 -0.87452268798461 0.5972389822319392
Ni 3.6340616068375797 4.277425964957144 5.222011328940996 -1.3106656021017558 0.39496232611377785 -1.7080234250309034
Ni 5.410666443648071 4.573179546791684 2.793837374756225 -0.9652180948886537 0.2557131786707467 -0.8364641905499917
Ni 7.380877511757189 6.140018635290506 2.3941293663520824 -0.6017939485924733 -0.1386868471816579 0.017678648226685682
Ni 4.9635442021695075 4.881478493571886 11.533033705169904 0.6844122349153375 -0.6436319676741818 -0.5537454298246786
Ni 5.74435503515224 7.912393374317876 12.311861736429455 -0.4255306858189381 0.040999068120181004 0.24853517286506874
Ni 1.6828089855380446 6.596198902000595 0.3951509159101623 1.6973546324631477 0.4792911673698455 0.8472026600134184
Ni 2.6701427937995588 1.5702720800615715 0.3158941009368371 0.8759185398908721 -0.5529131637313703 1.4148402744391568
Ni 0.48636613579414756 8.822262950799383 4.8216665413630775 0.8035381292459323 2.7196476179879228 0.022647819306502934
Ni 8.562071176023812 2.3588909307938786 1.317671836232542 0.2723988668565438 -0.35574040449867766 -0.4936152973020015
Ni 6.6851124776732505 0.7010875297099834 4.799699018571581 1.0814206449248667 -0.1392496616636634 -0.721711485586428
Ni 0.9764188878575261 7.74378729265826 2.692697276626057 -0.5904741527042798 -0.8051340129781425 -0.4951821275684891
Ni 7.949775844448382 3.8469704899045873 3.5314097242962705 -1.3506259445447772 0.032559421993260056 0.04968425459900476
Ni 7.699602245578878 4.09250637985555 12.527691832633629 0.015480355023786245 -0.7441451319995959 0.18714545690367768
Ni 7.8474654494583005 8.955153238971095 6.957648529234344 1.0672741782211557 -1.0709796520972006 -0.22981805607153968
Ni 6.912505143085467 0.7571702929309737 0.5644227624242957 -1.141281325836241 -0.40603066811279753 -1.5905584633424994
Ni 2.0145682176678985 6.470337641408548 9.066558797096151 0.05923410307096896 0.36422170249681146 0.26876615519996294
Ni 0.0378399004046979 4.657573167873807 1.3003791602630366 0.35993901596105754 1.259731791366366 0.15178816045030633
Ni 6.426596437565512 1.7067131141240404 6.990234775004757 0.34860353634358027 1.380147865263294 0.08427896185473872
Ni 3.3542501494105244 4.597944187774674 0.6595646362461473 0.11259349252871576 0.4406503150691959 -0.1815085703328745
Ni 6.290907219597259 5.634671407623697 4.6114053190712445 -0.7508428557347455 -0.37169744204856625 1.2978594514760229
Ni 5.3882478312000455 3.0248912939670247 8.89697173130396 0.7290622695245444 -0.42768989825378595 1.2322325575048325
P 0.34694501143050666 5.5587742142087455 12.460264798612677 -1.0059826784005255 -0.7259419787280078 -0.34835233956472267
P 3.9458116612309935 6.55721316140411 12.604331784117567 -0.3798964329195909 -1.3430643301474354 0.7823506965350397
P 2.4371522687942595 8.592551430927896 1.4078499122275177 0.29857681080349224 0.4264704240243881 -0.5301437312453385
P 6.333579576462976 7.6302902365072445 5.703504247160583 -0.6589637129352458 0.4059481357013202 0.9700471408461809
P 4.655073152909906 1.3682690593733204 12.554047062847276 -0.7365639772182283 -1.3457537040541403 1.8641647202435832
P 4.068792469799416 6.128741393877258 8.140017019373497 -0.04580625970083724 -1.0816147632135438 0.8390556054262518
P 4.596984037100132 1.3058230334271836 3.943010014026883 0.3354708556163642 -1.4316108090292765 -0.39736013692199307
P 0.15395653745267 5.670151692455583 3.453164690741306 0.24870075190865557 0.3515335655061817 0.6668693409355676
Ni 1.694901449222131 1.1633493545605182 2.689488924089051 -0.6132559264854858 0.29650038789043776 -0.288304996563839
Ni 1.8533444265719758 6.736851917795724 4.697763625826086 0.41865169931091767 -1.183236073001472 0.22813038395647162
Ni 5.936104371278404 5.488764737194285 9.198747994114942 -0.8412315300316481 1.095901612149861 -0.41201928159606466
Ni 8.473329702830558 2.5136382338492607 10.379008681782716 0.18002530091912866 -1.453996375813328 0.6848212974282979
Ni 2.369443530188606 5.064631763753332 7.123312564298761 -0.1793879244454459 -0.33993377648372425 -0.17028776191639058
Ni 0.47792043306827314 8.724110189390572 9.179101137387763 0.913230646077769 -0.6144322061817741 0.7142483444401635
Ni 1.4397640525257516 1.1826701223793623 11.646490000207375 -0.3924094777849371 0.10699157296090604 -2.2082423436923517
Ni 4.005177958598412 6.9864729771261045 1.799219102603518 0.37788763001967823 -0.5659394007877092 -1.1927941490035523
Ni 5.746528961207806 7.868760866777617 7.8433712220536504 0.3513088510898853 -0.4257278894314087 0.5432167623792129
Ni 5.667253124381495 3.0579983761882503 4.670665637543454 -0.3885168275987502 0.052725098307857585 0.07040631763770455
Ni 0.5207277545099397 7.170731326385797 6.605281383900246 -0.3863218768299605 0.07217240839919183 0.9625467187040777
Ni 5.293500887278288 4.460253146230254 6.6927538277585645 0.5117816837983832 1.135551365330999 1.620471448851848
Ni 7.989993476476355 6.910938104720413 8.92379073240946 1.039744862452635 0.6382748171273266 -0.14988194456652895
Ni 4.506322262557794 0.42528153104030886 10.594519935498742 0.438367175461974 -0.1451642273758855 -1.0968374937005692
Ni 8.048236578715064 7.245487208621577 4.555869660574238 0.5587976475366053 -0.7726221563933662 -0.18938771597063514
Ni 7.227108475426812 5.9633418531496005 6.968625950012429 0.6267701589218366 -0.22521398164062503 -1.2175595288736902
Ni 2.0717424729292877 5.172721178841127 2.68451787984199 1.2412442740851397 1.1041787645569887 0.43318383148882167
Ni 2.4294710633979255 5.175040033300397 11.64637043427432 -0.81061586202832 1.0629166725834083 -0.6776805726184586
Ni 1.107497570982932 3.1755262535672943 4.030217057745918 1.1200499272612905 -0.24760931861668972 -0.6466764109274605
Ni 3.6234908913923896 2.9953621317122514 2.9718438750011185 0.041606876907508986 -0.27538597450932567 -0.20278264922030237
Ni 0.9057871245096594 3.277990634986311 8.313450122678994 0.32161415223893 0.10251168281268151 -0.5193363562171894
Ni 3.8703583110523865 2.719119536226417 7.243941003714555 -1.7302719520164587 -0.8445837343333327 -0.9421203325289258
Ni 3.9065541798775625 6.860865341240539 6.15433393836641 0.7120963310941671 -0.021427059525524386 -1.440679604099764
Ni 0.8275402793496492 7.174753089588594 11.11020418155977 0.8447284874413129 0.30250648487520154 0.04251679031628807
P 0.3334856917389828 5.5069260777834925 7.951697051599988 -0.3637851291800251 -0.8370036079932295 -0.08395114620167476
P 8.629644044250993 1.358848713132534 8.395234126691914 -1.1089070232705935 1.8498477894002785 -0.48885618535046127
P 1.68652277588297 3.213769236094795 10.553409182182941 -0.05952720883135555 -0.47870187052527874 -0.876940039176851
P 3.9362826186874287 6.0882610791175695 3.8624977567564684 0.050908099703776834 -0.2485449430570816 0.15114101378461067
P 6.892233282617313 4.031428115719373 10.458194844159237 -0.046705117366022786 1.1583120560662827 -0.481561451461261
P 6.383190380656041 7.674520573712783 10.080944397711615 -1.0981294730391153 0.3167316273356481 0.9485442337773987
P 2.288781815501871 8.457387578423072 6.118154373986651 0.05136627028711799 0.7253722222674669 -1.1031410673210937
P 6.936173763015443 4.031600218198772 1.3796377868414083 1.0143904428482464 -0.2537007762264082 0.5692494389975487
Ni 5.187494817993745 3.1338412214518137 0.6062817086242214 -0.5234367515388082 -1.193393216040132 -0.5526678804897837
Ni 1.369229210047862 1.089173185939556 7.343317504332146 0.9067347539407803 -0.3671833562282967 -1.960106463148231
Ni 6.821462931483404 0.7292136038563933 9.44835727801252 -0.1881214476637018 -0.2057743848587746 -0.20640353380234128
Ni 2.639200579608668 1.6283068477199554 9.269661462047509 0.5665317829560695 -0.30583092126274425 0.566288813707328
Ni 6.335880314871783 1.9516149423087963 2.559978185131222 0.46544217730189513 0.5999944334898893 0.5938921772468934
Ni 4.162896293929735 6.888863697231185 10.374302131872417 0.21640923886480146 0.5789399268124352 -0.4284334612880299
Ni 7.9821854587267795 7.134363355081222 0.2953577461319224 -0.3899149934978575 -0.8903830520556343 -0.5026480969282311
Ni 7.510633723198793 3.8758112422417645 8.264424466915884 1.218095089662186 -0.3922289863430148 -0.259164884664773
Ni 3.0020107222321912 8.502686762605931 12.247974578668982 0.10452742769112966 -0.48630822211762703 0.5214644583037857
Ni 0.195745736858313 4.755436072475209 10.094321289373532 0.2991234273355816 0.9314564250571765 0.40245400650513263
Ni 8.579544106695426 2.2143701382248886 5.869287848158056 1.8405686780911978 -1.004903586403734 -0.39012376707455393
Ni 3.4537887886797587 3.061938617163964 11.72510550699431 1.0646367405983084 -1.1708824365321253 0.21473467937585597
Ni 1.2549803378026307 3.2904454196796586 12.864375007279342 -1.3125412218579138 0.7846937428459195 -0.3833805348134494
Ni 3.441515164491041 8.492161337286898 8.001796083353032 -0.988902325879471 -0.28846157674636125 0.6221696840353478
Ni 5.795206788802024 7.867221002488257 3.5429967501724375 -1.2436816798820387 -0.08489062729680864 -0.05190465928909126
Ni 3.297728071965805 8.33049370295463 3.6384094589487117 0.3198688874130491 1.012121701418728 0.6668084057906452
Ni 3.422946212766414 4.130423273474716 9.436730396825336 -0.3754018874833471 1.0987125992360949 -0.236660790024986
Ni 7.614130719494203 6.119103655030914 11.157771495260603 -1.1846800045368502 -0.5458359451696148 0.9291619725960449
Ni 0.47616770518597296 8.696990461847387 0.0844941651621933 1.11375869493594 1.0965140489228793 0.6686359459176872
Ni 4.540226450999393 0.5717470816265072 1.6456466254206645 -0.07557654898473436 -0.4486629009610273 0.006780513256943161
Ni 5.7502065194518055 5.601980994563122 0.3752196371907136 0.3231740405268821 1.219438491063958 0.580992952686722
Ni 7.994178284133319 8.48825732841211 11.34757697917208 0.004598160893643693 1.8163522287459946 0.24626463166333717
Ni 0.3889298641811506 4.77788185899893 5.524238681408508 -0.9408041848206635 0.5733472632160062 1.185617942970087
Ni 7.844594055459907 8.762008966959275 2.5380106623397265 0.6009459987698812 0.7878366593502755 0.4347910280749415
P 8.606183758901341 1.737437935709375 3.406843761312331 -0.5840631069716135 -1.973035769615389 1.3357580262940094
P 1.8747394821688388 3.2750467767860654 1.7504452599418456 -0.405625719364895 -1.0528778002901673 -0.9114745826186109
P 4.941904579891394 0.9749696038204819 8.276037761065222 -0.9389859006650023 0.4027252578886484 0.5770810192268255
P 8.540793874754959 1.39866779205032 12.507328486110637 -0.38339416166020424 0.4795325939566903 -0.49764832972079454
P 6.18279063043377 7.847900234669414 1.37176273970512 -0.17703330817034027 -0.2190425627225905 -0.42970204358780834
P 1.8915330609480874 3.0718209226915585 6.179058724038382 -0.3378591533428827 0.26837406196786684 0.33629052330418213
P 7.1415826011907475 3.6205470331921434 6.06016670805947 -0.05479895011775078 2.491981575262379 -0.1793367594925363
P 2.568158487717813 8.494145044812603 9.981355033501085 -1.6186837608238058 0.2607790232294283 1.620488932353345
