# total energy = -340888.7670323457 ev
CRYSTAL
PRIMVEC
9.07907539998319 0.00000000000000 0.00000000000000

0.00000000000000 9.07907539998319 0.00000000000000

0.00000000000000 0.00000000000000 13.28814457488562

PRIMCOORD
 96 1
Ni 6.186018925430123 2.2984768792494608 11.284478109773138 0.41890880962704624 -0.6073824984238443 0.5897048786384231
Ni 4.69465368857375 0.36769347347834164 6.176542186557147 -0.6893045300106322 -0.2815046858125539 -0.8920131314598896
Ni 2.8673808211153435 1.554337703634462 4.464431034835952 0.5645605181623116 0.3157916320198819 0.9572456182061385
Ni 3.9335457210890494 4.319887615380856 5.0367650513772615 -1.9510289263269949 1.3198025314060173 -0.12616943144093754
Ni 3.861584969692982 2.6272029612324808 2.0398893782354093 0.57893761281959 -0.025536967928839888 0.6379454588123659
Ni 5.491160970932694 4.568681517791459 2.727285240684841 -0.9606037360450939 -0.4919296820694624 -1.1190340844022664
Ni 5.051225294721763 4.540445593385482 11.134401901786529 0.8215240243003916 1.78374395579267 0.36680514695327154
Ni 5.662573913950326 8.12641707201987 12.420123357751365 -0.14546864599018175 -0.2536205578077761 -0.5031399489629851
Ni 1.9540621550241495 6.902702977121113 -0.045797579897449286 0.8652422911239486 -2.006794868343705 0.7943916868599739
Ni 2.262614531531259 1.6065514660970894 0.3256083275003791 1.000327536997277 0.6962177121906977 0.4793724142297422
Ni 8.220939325714603 8.955935872430304 7.089119092190473 -0.5115546553892416 -0.08163612491525295 -1.6256005425482971
Ni 9.033580125009053 2.6472586387285584 1.6575767775935615 0.3350713061851004 0.8630247146473393 -2.1694127724196637
Ni 6.6762617582756265 0.8896749380082214 4.681944798868448 1.2163606234695827 -0.595967057498051 -0.653137850282088
Ni 0.6792192471696821 7.493233276522376 2.429936443186405 1.2020259520144652 0.8165419977047679 -0.1594744733509705
Ni 8.205813586145357 3.7658279617476977 3.7083492434770235 -0.523320537675918 0.3586141265020469 -1.2038295808821073
Ni 7.876842369127301 4.008057692664564 12.712329766959272 0.32605290473657395 -1.3198832640452816 -0.4252432364855064
Ni 8.229292075056565 7.177562904923855 8.90801288098834 -0.24733009681337403 0.12575522672165437 0.4137408922728616
Ni 6.9888997187 0.9769720635221587 0.17764391244522765 -0.3113850183117541 0.19014156341752417 -1.0775580766456667
Ni 1.8705618988306556 6.51215747093221 9.215407675385558 1.1143384786988098 0.7616003513615657 -0.6375554224627987
Ni 0.15255207184046973 5.373859317130373 1.100994956822146 0.13512869751675438 -1.246832823916511 1.319396297106534
Ni 6.561248031466974 1.9610076476834974 6.898009095153944 -0.6406844550100836 0.34364207857324686 0.15382113171993508
Ni 3.6440684819378744 4.698766509717128 0.11491748860971285 0.49187517468244313 0.15544684024881614 0.9651746432452282
Ni 6.246648990762314 5.762707036224768 4.542393055052711 0.19627364445719103 0.11261920356032862 1.4759757082978966
Ni 5.347793291738233 3.108911463228589 9.140821255391996 -0.062226352930073475 -0.448068461910138 -0.1022525156140239
P 0.18676384365609694 5.888125383409386 12.377813958611721 1.0400302549035378 -0.7378083911482907 -1.469529695562237
P 4.1788260213308055 6.423336876570902 12.234912943891366 -0.10716229421081544 0.3168501551913833 0.06567008850429981
P 2.5297118498912026 8.531470940652744 1.4273595713009875 -0.46927954877011435 -0.3110386907159289 -1.1529957860596918
P 6.616158279314995 7.974751117935678 5.569964621436409 0.43101587730322544 -0.2614809343924594 0.9578734815981246
P 4.591624341255736 1.1938893323027346 12.299187350077753 0.46259648032298395 1.1094662382081732 1.739037871134547
P 4.037746269130012 6.242154848453325 8.200672105762365 0.3173641187133244 -0.6695815976604081 -1.4796490433844258
P 4.7055758162459 0.9733131961473649 3.3964630304934267 0.6473945200404077 0.91012912433431 0.5784311054968168
P 0.4013713956621131 5.630524777888237 3.425830207690717 1.0753204455643997 -0.03231285320009274 1.339164995093029
Ni 0.8015588798957569 9.183847901486006 4.724214250076456 0.04128908855677405 -0.20030641976566793 0.49769975178402026
Ni 2.3122770738144403 6.446797207331366 4.799000409728197 -2.0158235542048764 -0.5210607951074638 -0.002860866487562815
Ni 6.120159312683836 5.582605418076422 8.924012027608345 -0.6788861628907856 2.4270280532091295 2.365319006235107
Ni 8.442114680844504 2.1850883069323417 10.164805679096338 1.3447802843972774 2.264611723621016 0.6697392062841949
Ni 2.415578793393604 5.293509500090859 7.093224650073554 -0.30922014944995135 0.3197287622907591 -2.0582079327083584
Ni 0.568640648680103 0.1892306284345869 9.056096231930862 -0.8254390430840818 0.2734946710238838 0.02389686122225562
Ni 1.637393085134743 1.3758521609022782 11.236561473683935 -0.6272198448647456 0.44450825536270544 -0.31543167757730195
Ni 4.202231877639039 7.015701149197248 1.382405437505569 0.5519711115330752 -0.18059274338682446 -0.1839418623647155
Ni 5.843538044258983 7.922292220438015 7.83561973530965 -0.6823417255395539 0.3097395122885311 0.18891386165801013
Ni 5.336153917111718 2.79426702714707 4.5731411596140354 0.9155677788513781 -0.630857698727649 -0.0793910376348181
Ni 1.1160181028396925 7.5731836142455355 7.235793370635307 -0.538806034906027 -0.1947438380762259 -0.8986164957090201
Ni 5.454454269204924 4.423734079482322 7.10333692422255 -1.2167491171572529 0.24056938105077275 -2.379007045245161
Ni 0.6599425543404958 7.474657488311885 10.978412492010335 -0.4440979072981642 0.18944530868144793 0.5526072024551774
Ni 4.370285562769144 0.5929371622823003 10.236974341318415 0.5070781076751266 0.3970454338950517 0.10911196173801853
Ni 8.732281929723928 7.0942987046900265 4.931642069278535 -0.3101586021038207 -0.14118904477822133 0.24581263172758314
Ni 7.207741751459375 6.278053512473013 6.79062723910274 0.9585640799072459 -0.9997397828146072 -0.42580399408498276
Ni 2.465813317425201 5.611867277999401 2.2753424872948407 0.09227972067202816 0.7356766895172685 -0.15634518369336947
Ni 2.470806808879635 5.332994398882367 11.237690910660174 -0.1694236141438824 1.0721304778721923 -0.23192996020821993
Ni 1.817667205715151 3.738509023954263 3.4607646739059312 -0.9149162613103081 -0.6677833681094048 0.7462539508124825
Ni 1.474886715056745 0.9013588001040577 2.5851686580766 0.5033507794222105 0.48959640595059556 -0.2805806313363877
Ni 1.0226216544910494 3.534711019085788 7.904226676263413 -0.37948865595821096 -1.230861645299235 0.3173396932332922
Ni 3.7376374327185795 2.8381825147199673 7.031036615407581 -0.3784224194772257 -0.1548493158741333 -1.204206761715868
Ni 4.344328486281463 6.526093851627763 6.022984153165493 0.9799906252121381 1.480580811170076 0.8826023796689509
Ni 0.8804760188416183 -0.18165232422183172 13.046486043922103 -1.7000236946548786 0.174139531562313 0.8847795898259277
P 0.2215276232543233 5.583894646779204 7.657293076396471 -0.3807965761363571 0.8484439886196873 0.8553643698886043
P 8.504932803341275 1.8560172200851976 8.009694663226263 0.7796752065854056 0.349066849133244 -1.2544078080502912
P 1.6713397479495167 3.3244123962511796 10.253026146575577 -0.1989383357735477 1.1002334067559956 -0.45785639453483723
P 4.184836369226868 6.209869656431571 3.768292022803576 0.36177375517695115 -0.7781173751799826 -1.337197072733381
P 7.108325876139298 4.079591727518162 10.253955843893637 -0.19424350140103966 0.21147812011177128 0.7658334156063068
P 6.411370655231005 7.895073152473668 10.115467259803927 0.8427662215086195 -0.6648613093666033 0.33914496203384176
P 2.6526697676500897 8.300935058814623 5.9531951165983354 0.34689272430006063 0.747042508152049 -0.9596863664371473
P 7.281981350773739 4.18677021228104 1.5741001269960342 -0.46905637701571484 -0.04227279262628204 -0.2937925020409714
Ni 5.6597049261328705 3.2236891340775773 13.62088010266525 -0.5301175059930935 -0.16444158754825874 -0.5289239999056244
Ni 1.7637919724595033 1.0141690353199997 6.928172507261332 -0.7745458557786402 1.0851374316548215 -1.095537543942223
Ni 7.004679151696008 0.6863780981002648 9.122085675454963 -1.830011728510958 -0.03286718304166598 -0.2690734020277366
Ni 2.715932764840072 1.937374814490971 8.921806720200559 -0.07668392311630019 -0.6383041277033653 1.2214267251385804
Ni 6.531432347946322 2.075195178633326 2.279767628631006 0.031076923910462607 0.15490742280557837 0.9406416911008704
Ni 4.2965180753741095 7.316908553728656 9.903880316174074 0.22534639345343122 -0.6767845431667505 2.8055479174961686
Ni 8.116057847020764 7.453966275539788 0.09788151158226133 -0.0563845494373158 1.014229234680034 0.33625761318371766
Ni 7.470108871550664 4.044510180281925 8.015754038129334 3.0190649224148394 -1.468402266826013 -0.012118123419772678
Ni 3.0494162823178605 8.728150950429807 12.283773803819223 1.9978430584670561 -0.7297821784097045 -0.9345738876402357
Ni 0.145923438911594 5.104773681264029 9.896505383249645 -0.49422953384723267 -1.4201516593497412 0.7701690668671832
Ni 8.627491241783806 2.2538350656468285 5.609576627283121 0.5629155263597208 -0.5487497763823 0.18231641094615053
Ni 3.4109995380710503 3.106505508255089 11.656971690400495 0.769084832664069 -2.2078589922110043 -0.19432526248156856
Ni 1.3429495917552496 3.821627958982145 12.563209585609304 -1.7866706425211618 -0.5746482414156168 0.42001284132450245
Ni 3.230108040365367 8.629733773400616 8.211940146206178 0.9011140653198931 -0.1368420806634353 -1.5319835911220843
Ni 5.643898255910747 7.967115615548081 3.6188931138396967 0.3456207995661725 0.0011222865299012929 -0.8075601059211318
Ni 3.3004345581945285 8.298973978534336 3.549436371431143 -1.1232694626398525 0.49322603228338285 -0.13706988040352522
Ni 3.255665637536693 4.411858648896143 9.012683725133556 0.6927318105246262 -1.0707299979802398 1.1407321382009903
Ni 7.348639922152735 6.036777084470175 11.483415177687606 -0.6026362419881104 0.7067767186534667 -2.6872753723048044
Ni 8.1390460658619 0.06822925141830014 2.023292828455948 -0.6431802248487439 -1.333066338394459 -0.6227312129657727
Ni 4.695988312653389 0.32666331605857024 1.2776919217061058 0.13007056626755664 0.5778430942038306 -0.6578362841990218
Ni 6.353682210319246 5.824353957998589 0.22676080229856926 -1.647766022901743 -0.3312447333501586 1.4212130107347203
Ni 7.9190873068318055 0.1957303384931845 11.25319797139503 0.13111237726850966 -1.0614532006640043 0.8788737658644541
Ni 0.3448559672883759 4.60561519640352 5.714646042837155 -0.6757527594681265 1.2900255572539008 -0.7476001804277318
Ni 7.541760934384095 6.389036129816631 2.6851356332717398 -0.29775688600535816 -0.6376047876434954 -0.729409368451318
P 8.621281154229566 1.5123651381911087 3.3524794498552426 -0.6064551015135684 0.528347044356232 3.3889695342290405
P 2.105355867018102 3.6150154407484454 1.3120062870734333 -0.17289383208066997 0.05501749388646009 -0.046880466601622484
P 4.84625608913034 1.2388670716941195 8.188885650114829 0.19215216608964972 -0.39023946671681176 -0.5537251181097045
P 8.99909779674735 1.6618248769599786 12.674936687133401 -0.9147553102524116 1.1304505537693241 -0.06989415388797639
P 6.365494087377822 7.805081357389412 1.4437963293539071 0.035328757208281096 0.489803379755079 -0.9089567012927636
P 1.9413332913530308 3.2307344965660136 5.6181745116601185 1.1728734988202254 -1.1428401856829287 1.2648809396674734
P 7.136098767701317 4.02869443098443 5.571307416683884 -0.9801603180207829 -0.4784894974041566 1.2956313334764524
P 2.285856964482803 8.708948706018669 10.066221447080306 0.5940060771169383 -0.9577176727465505 1.506489817726354
