# total energy = -340896.3345933021 ev
CRYSTAL
PRIMVEC
9.01567773788341 0.00000000000000 0.00000000000000
0.00000000000000 9.01567773788341 0.00000000000000
0.00000000000000 0.00000000000000 13.19535568807010
PRIMCOORD
 96 1
Ni 6.203841178199375 2.1302784506588526 11.388528497385698 1.6390980628140996 0.48048647322952726 0.5797079153267113
Ni 4.625241069356228 0.2847998530985448 6.027506240315196 -0.39190477023437664 0.19624330543988786 -0.595095453526375
Ni 2.555403722839039 1.4922840093425083 4.621713234623138 1.1732355101453342 -0.1964237968818101 1.243472134974394
Ni 3.330391388712747 4.287234292003143 4.652669466004525 0.31286803061518376 -0.34272368052403557 0.711270235648446
Ni 5.229661126450682 4.596318774892259 2.6401006066022306 -0.836302982381779 -0.3074941678977801 0.03967289310958974
Ni 7.286975696468354 6.283846303222215 2.727256065708416 0.08406221785824232 -1.321299684776834 -1.3440598612914854
Ni 5.03168585708213 4.5026098195747695 11.357031325334786 -0.03586714621025435 0.8421252454905109 0.20331075380963048
Ni 5.505360554352242 7.95477596867556 12.383313880804403 0.004269573909631357 -0.3527810647600376 0.3686308873081006
Ni 2.0287078242775913 6.375842279752872 0.35257881742232267 -0.40586714595173967 0.7000144602289686 -0.31386227620765306
Ni 2.6508887666881367 1.5983354276030064 0.4632660972206555 0.07946997050186959 -0.1510908772729656 -0.6356306946362601
Ni 0.715694257519222 -0.09848996926831256 4.740616501623784 -0.31552372307047594 0.09497038013031386 -0.1785021794063829
Ni 8.652183726861468 2.1193875118457366 1.351626813316891 0.37464495471266446 1.4387571902660707 -0.43385977450992375
Ni 6.881044802378502 0.8160062952760533 4.7953642052186884 -0.584010142246491 -0.369113483371474 -0.20161511127476248
Ni 0.9372247883422675 7.129814400615509 2.5295629870557996 -0.6645365790373329 0.9597164483441343 -0.04371158195533762
Ni 7.584646331230479 3.881997605105849 3.8394787669133525 0.2647025266535506 0.1857920281995768 0.11264440037130923
Ni 7.779943944284879 3.8794732153147296 12.679865669948391 -0.33716855503376125 -0.039951343581957004 -1.1155978050272077
Ni 7.969579711664911 8.724795996067458 6.963386791093692 -0.035266536511777975 0.9195331912570293 0.4516644067915125
Ni 6.616795285315235 0.8027802959061519 0.48499027450880444 1.3270216748622758 -0.3037992355446961 -0.7622279576432356
Ni 1.7815159696600331 6.570003917401269 9.093764414208623 0.3192518226543405 -0.35479346720437605 -0.20276696549101852
Ni 0.17342197237878426 4.869286452412712 1.4662945148751498 -0.6281009619181184 -0.5335522427062553 -0.25809941951473614
Ni 6.132473072533294 2.1686581911616956 6.84348098071886 0.4474020319707327 -0.6664435662520587 0.9852778417530064
Ni 3.43422495022819 4.427410050832883 0.5720862301413423 0.7826965099102327 -0.6315868635841897 -1.15979455414908
Ni 5.988519744694702 5.779310940755667 4.738531175342762 0.9498338991230998 -0.2816293843158763 0.8549925883714823
Ni 5.175368714585961 2.8175435712911554 9.360112781069649 -0.3783008062976969 0.6732055675662406 -0.7342265873343032
P 0.26490135057004477 5.541260983453092 12.420299797515435 0.7298441419958913 -0.33911179480306114 -0.49991578559873256
P 4.093523438246018 6.231744701069072 12.610299798279616 -0.728371671215423 -0.6969059965069739 -0.6653691022409574
P 2.190755617511817 8.425412382518502 1.3097958713424744 1.7253829993552736 -0.6086814197409259 -0.5866254683821509
P 6.410137918200797 7.874842969075324 5.758373832141677 -0.7118790728770386 -0.9995955439272591 -0.05761019431430078
P 4.6952117449593676 1.1047811607278288 12.685223687280045 -0.5022853142721737 -0.4327963662424159 -0.2829077368076676
P 3.9205756905208515 6.181347062024934 8.309366183820735 -0.7178694861325184 0.18897582524419712 -0.2607432848954865
P 4.683554473531091 1.0769317319250848 3.6223361664879428 0.703346095705363 -0.49228603696761675 0.8557960581093843
P 0.2872313814080625 5.449310085311561 3.6394641512206887 -0.03316311701552998 -0.4633747532499052 1.0856048582095432
Ni 1.382193567416219 0.951550700406871 2.4346621591297897 -0.24489063413394602 0.8181430236433007 1.3742291857860138
Ni 2.09655079991393 6.49212649234523 4.719609070722756 -1.071379972859413 -0.37356303450239536 0.229556831990353
Ni 5.892033960606981 5.870062753746415 9.301010505085063 -0.21257700960290485 -0.6509984353415821 0.7330737046767827
Ni 8.560737706678163 2.167873827190883 10.15406402368136 0.32748475208709404 1.265060659778447 0.4731814549276818
Ni 2.301513219597188 5.033570133747644 6.885204636127154 0.2609775123934796 0.9425029126793252 0.47206276794220636
Ni 0.3360215250959259 -0.09145142959000167 9.226971054079307 0.5511097919740444 0.6799197463616226 -0.08466668421146063
Ni 1.4074014026161128 1.0321598758440143 11.322367847231584 -0.7710877220267107 1.0502272500411978 0.10481050614918724
Ni 4.123987413618136 6.877582782093538 1.7017127958204832 0.45999246704123364 -0.16601098891790766 -0.5375510794530033
Ni 5.698981251331112 7.820920200001445 7.868153336128857 -0.39136766678398405 0.7900082130802975 0.5976105066387449
Ni 5.231067572191449 2.9019032687036765 4.702098821250212 0.374012206224672 -0.125890466747938 -0.21175117126749982
Ni 0.7557599297754196 7.298858359842267 6.767132614622014 0.29246298459627046 -0.30280730394507205 0.17257321551645763
Ni 5.08868297229448 4.695563356394559 7.267922864519879 -0.34299801723134477 -0.9015925476182085 -0.3124237439889136
Ni 8.151407902048124 6.9695336802350685 9.213287959843658 0.3034891605034451 0.6635824426541798 -0.47423175056906713
Ni 4.618650608865842 0.510770605250613 10.581751551499533 -0.13476745752259373 -1.0278900199965781 -1.0873483232632113
Ni 8.194205324685425 7.1924282831131 4.6925980999577765 0.0589944762563371 -0.29138646370264015 0.5977953689560414
Ni 7.1663549428419655 5.9626357336579 7.2798118388682695 0.6793235075385204 0.3519593401896906 -2.0115120713137165
Ni 2.5345955384179533 5.145076037092526 2.5674071962958127 -0.9399081553689556 -0.003464561509832743 0.6727538247408027
Ni 2.4212684681523355 5.180823199670344 11.23956696051508 -0.6511593863994786 0.3174867603341177 1.4569649715233488
Ni 1.1267794146218708 3.2377552990564844 3.827378825703847 -0.9204374482388535 0.5941616288581961 -0.8652944845181226
Ni 3.5291780690855874 2.5558995851194375 2.6253085839940526 0.28952421368292075 1.2272741850582927 -0.38001470366501006
Ni 1.1607414729902545 3.2431647057517403 8.09674945366369 -0.7653068536788755 0.40764840622187865 0.24402802902333454
Ni 3.6832469874443103 2.784329814182282 7.1358107279372005 -0.3673365939767093 -0.6717796337529914 -0.3053753217825644
Ni 4.16922808494613 6.70008211706653 6.066155549585019 -0.19606615643207523 0.8252464674573012 0.5798660381711304
Ni 0.8891054110846157 7.326933180590646 11.247827124538734 -0.8430361873405545 0.11532117587252398 0.7241427207357399
P 0.2383609981875527 5.533390296711493 7.924009066528507 0.07385725230078248 -0.912818498241015 0.28024021727783355
P 8.507851740554207 1.693982753652962 7.955717205440534 -0.4666048301514287 -1.658897356928214 0.4497378791927609
P 1.6658718701932804 3.1968962471516487 10.390009721779482 0.6322700056941434 -0.8051509822590069 -0.8833613693221626
P 4.104252094858277 6.228372837562362 3.872850298384171 -0.5588912356916761 0.11501084372095677 -1.1824593427364474
P 6.845685313947177 4.041133334402462 10.267833763728207 0.18363332998536117 0.1906277590253233 0.5653053667481361
P 6.307043642267038 7.854260176599874 10.276952220280844 -0.4228413119122331 0.41619681001252196 -0.7980277409506644
P 2.487218151445334 8.35895782126728 5.856151562861782 0.47699902890155915 0.5278209966494329 -0.10487812616232907
P 6.9178828619731965 3.9880129606550456 1.4921965572676017 0.9219903945482701 -0.22167074437405695 0.9676971525567658
Ni 5.298036027078721 2.9295092742051336 0.4126962587300527 -0.21414075454559892 0.8935318820972611 0.4630556793475897
Ni 1.45779904166025 0.9393975666981953 7.191614167405464 -0.1618242045300697 0.13934762069410842 -1.3084202577110047
Ni 6.746224356177065 0.9200679534404799 9.192518542837222 -0.3007771608889207 -1.2742703513021731 -0.5002196899923965
Ni 2.690990501655636 1.5229012512376587 9.181170509158358 -0.03797647924377331 0.3067457197675298 0.751511599666996
Ni 6.5814718595952115 2.040536393584552 2.548431899176636 -1.0034845945690203 -0.26594128415665813 0.6683520961286812
Ni 3.914697468578673 7.010726312219443 10.43267100768162 0.7707997584726468 -0.1655708160566955 0.03633842941971806
Ni 8.181051450738128 7.071248557461536 0.34711802136346154 0.36636523120237546 -0.11908578512127876 0.16687539380073196
Ni 7.638776460894341 3.677603173125593 8.24183244593381 -0.2255543956991793 0.3388361725441713 -0.4843390142063982
Ni 2.988102164392584 8.595826724774724 12.312454259367676 0.668729534072758 -1.204611967574087 0.8829260815569568
Ni -0.008091570848320764 4.724161086456814 10.133016923797902 0.43487870269274137 0.05090604282124781 0.3097996761025052
Ni 8.655979327225973 2.15461176510968 5.842243978248278 0.3416864975087728 0.6517450836996195 -0.258956882419025
Ni 3.6634034805505453 2.62889952847192 11.56336773431864 -1.238523789830183 0.31156345287114723 -0.45832304975861066
Ni 1.2059731286404218 3.242740968893945 12.453037526835127 -0.9135237518381558 0.5958133055290061 1.0458118945823216
Ni 3.1594361057869995 8.39560655162764 8.012075109095061 0.25279780479616465 -1.0854909583394983 0.12992607026989236
Ni 5.680390923655081 8.04026262581626 3.4662747833298004 -0.5916172651697875 -0.006693867080407827 0.36888388385917115
Ni 3.055882030284144 8.458292559547834 3.520943148959842 0.6649602968383129 -0.7523351240095559 -0.23244289528889645
Ni 3.18309324440092 4.229353640363902 9.265277767591765 1.0352094364761266 0.21033989274227 -1.2218836101703408
Ni 7.419677458380814 6.223143744423615 11.274124955187723 -0.46569980183865606 -0.8812384094418888 1.2740111841035155
Ni 0.43677262636285563 0.010271561746509021 0.17142229503710457 0.46785618606002655 0.39214079750458275 0.19784484559905283
Ni 4.488202766409738 0.2951796029789589 1.4869584484510285 -0.4403111865622223 -0.40163151060383734 0.6866964029638238
Ni 6.098042198917989 5.570616030452682 0.1965787408733936 -0.4655262523752692 0.8173189850801086 0.6571953081809133
Ni 7.851501379185293 -0.16898084948197892 11.52132672705089 -0.15895999560839721 -0.49930052061223684 -0.8418383103777115
Ni 0.01695127744736791 4.682734046848977 5.838601644406805 -0.12810367234917291 0.2208886147923938 -0.13645358697576498
Ni 7.946427451009214 8.68883245722183 2.3653333997878208 0.9406792292070251 0.726696083285213 0.6974035049686829
P 8.595123501904341 1.5063935451393018 3.626835891290613 -0.5136711875116121 0.46904275016895997 -0.34285866344000304
P 1.7448131452327196 3.2591314711805714 1.488739946389333 0.011854585345740874 -0.11883613100431793 0.6009349430262876
P 4.59613846133575 0.9998026081285565 8.240341252821484 1.4097160658387142 0.5793883272037635 -0.8923977684928178
P 8.293035185007756 1.7283234704900137 12.369088944331445 0.375105953509483 -0.2053177569373303 0.33194047386560255
P 6.361309007098283 7.721414163842206 1.2932016147369936 -1.1263442449104344 -0.17257912905372857 0.18273370098922723
P 1.8791918232207097 3.0951723542473557 5.9253081227572855 -0.3391223363260224 0.05957631690173611 0.265793188614568
P 6.775588418854482 4.057352538810405 6.056113887623058 0.6194160325496106 0.19455897575892944 -0.9967655306776317
P 2.370167606237815 8.527614106347542 10.169343794459895 -0.2310709546420343 0.21580014452589283 -0.6596926206814703
