# total energy = -381180.59606561833 ev
CRYSTAL
PRIMVEC
9.09725970764564 0.00000000000000 0.00000000000000

0.00000000000000 9.09725970764564 0.00000000000000

0.00000000000000 0.00000000000000 13.31475914725401

PRIMCOORD
 96 1
Ni 7.351022334846109 4.734950715629563 3.9494906022485345 0.02843408697097684 0.5502204473905556 0.45103191541383614
Ni 5.850229242574075 7.661084229979268 5.44674849948349 -0.36222344111986005 -0.29395808108455823 0.1866273796166786
Ni 0.20458099082045406 6.03212894603878 3.523777976420913 -0.14905636334144007 0.42603642181076307 -0.1408468309474542
Ni 1.998285824638668 4.98908265942984 6.644743858323618 -1.4994863898253274 0.4251290795051453 -0.1791272145848915
Ni 2.080816162714777 0.6229894270050744 5.437574823015682 1.6489397314948697 0.9965215329876257 0.5494689139365118
Ni 0.877612622817709 1.2430495364549783 2.2620044604875122 0.057532546998829946 0.9183414849417733 -0.4958840387315202
Ni 8.166591647954926 7.030562272118042 13.252086153713778 -0.5952890575944199 0.33086600985450115 0.30042029177013424
Ni 4.9913478770423785 2.286941868196312 6.768757699665495 1.2018040658116462 0.5031870001508366 -1.3587683711462535
Ni 7.53904449394631 0.858742177461528 3.0305855186143065 0.272263369719944 -0.1617812671072762 -0.7118618464858578
Ni 7.574578389506857 2.1039413963335463 0.7765557157940693 -0.27565722589284136 0.4792703414342392 0.08291576295862495
Ni 1.3483139259918677 6.97529642072779 5.3107381020546445 -0.9120163140546939 1.3369389339759878 3.17760762798016
Ni 2.9650424931803405 6.0971561568597705 8.717013145749316 -0.1998150819515462 0.5137290373327411 -0.26773077195691314
Ni 3.288331803609209 0.537710806837608 2.5504421698174418 -0.7270454962048316 -0.48166172448455113 -0.8492256039807181
Ni 4.857681843383618 3.3223828458731943 13.438053241895616 1.0819880873925625 0.7036559136362979 0.5741751584339402
Ni 3.153364861843649 2.2209594451290697 12.166188136012059 -0.0064490980594534095 -2.421353371421856 -1.4869206373451747
Ni 4.882062498811746 2.430960583152538 9.080452301202998 -0.3824827055895284 -0.662113314307821 1.5239923453864916
Ni 8.280643990157326 5.642356863270824 5.972361770653813 0.42812827134278525 0.3461951840124038 0.8446858071288357
Ni 6.234406510756845 7.905873288285259 9.920999959688311 1.2490933378159133 0.6373409924591475 0.23224851988990322
Ni 5.4905326996738015 3.5691369122286156 11.277734309062371 -0.5424945395012076 -0.9876306582558989 -1.0486845881444262
Ni 3.8313108334163797 5.46669787981496 1.5472946438714428 0.006458611141150167 -1.3154270280461409 0.9655137717522017
Ni 5.550929405415346 4.6905469920681115 9.359716334065121 -0.051447517147014614 1.804232562664325 -0.8339460521138283
Ni 6.0764053079673985 4.144201976250341 2.117139700398892 0.43800310725433594 0.26778759333677754 -1.7970733259117244
Ni 1.0358685488728232 7.596211672569575 12.0066640519843 -0.13303016311651283 -0.28546032802619226 0.041638244366076674
Ni 8.000302841771813 2.4903929793883433 11.68119776735993 -0.6689568195922156 -1.077078308795771 0.3579255850754545
P 2.4797491857872576 2.7493828597552694 3.4144771328491506 -1.2185190645734822 -0.39846673972261054 1.972447501212087
Ni 1.406672845608076 4.10320972499693 2.073160818855535 0.096054357223112 0.9200597531844605 -0.14204959300630376
P 7.153320691650562 6.886079596927922 3.4914763371564903 -1.1012965579131873 -1.1501516317426772 -1.6177244822343302
Ni 5.714407158416633 8.494575144279658 3.013569094741802 -0.4794266645064452 0.011179927876219454 0.3222576993601998
P 6.186782357336604 5.974998156453466 6.8675393820911586 0.21251607445798237 0.3890624156895751 0.6048520186925067
P 5.172556188785988 5.4792702924275245 12.471002731872478 -0.5733503485397997 0.09994186520297627 0.06664093705800136
P 2.7235557400685324 7.3183085897268745 2.4382383907430243 -0.7531920726932125 -1.1154592225668145 0.6555737134170904
Ni 1.2808122605901116 6.413813565121808 1.0852257302255492 -0.42202652932042156 -1.1653951881653088 0.04186912942996015
Ni 0.9083122346862759 2.3245226471416833 6.877286185906717 -0.8338167256248156 -0.2115783931350614 0.06720015199558105
Ni 1.0031002201966608 3.4119453655336103 10.980615085002942 0.14540128308735603 -0.7028331606246863 0.5330462496041143
Ni 8.695588189928875 8.2169449792216 9.661934572067635 0.6528995090190368 1.4397879455234301 -0.6980704491287203
Ni 5.966510413351062 0.27489007050023995 7.92028425704037 -2.153289641605556 0.7236251576693731 0.6908273944130618
Ni 6.527483822425709 -0.1335186580550529 0.6574562140276665 0.684051509141809 0.7005551632237871 1.4195114546625813
Ni 1.0077489197950835 5.658158803001666 10.323158870975275 -0.2316818487531558 0.18923936331822894 -0.2704926509727664
Ni 5.7707100973885295 7.663376739370272 12.326470931481122 -0.6422674832264874 -1.3450085983579998 -0.7961176684121449
Ni 2.4047968648647418 5.5078083954417165 4.197158033456562 2.6298898924068 -0.9241791746694729 -1.6658123388804924
Ni 7.757560666850647 4.294297660544623 10.185737488599823 0.7678684437584646 -0.06767606319073506 0.4216061539535513
Ni -0.22134633033108697 1.4639491913451992 4.787334555213983 1.2487742639135977 -0.9832718670665712 0.11753978079039756
Ni 8.696406943282806 8.131794630412916 2.1522241913407267 -0.5986626020523431 -0.7865377380331937 -1.3034559717271939
Ni 2.550917046762721 4.183647693390775 12.738070068938894 -0.866750500238359 1.9952261896694994 1.2240361377369693
Ni 0.9987881191992979 0.8762443949906977 11.237283344748503 0.35655621553175365 0.27601589478384075 0.2500148427343888
Ni 6.462629459534993 0.8584910930996562 5.469529856693608 0.0011428553551915803 0.7752151139315229 -1.033668317241252
Ni 5.4364585892764925 1.1147963721916418 12.148332944814749 0.5770306256048644 0.07220480429902404 -1.1219779975219386
Ni 6.95601932787249 4.347252808024896 12.778373657649057 2.3466530543944875 1.221890037928244 1.355544207782001
Ni 3.3895843017118423 7.940242734631329 4.335006077302006 1.3248897161209376 0.30393704667414106 1.112923343518838
Ni 8.033471449865452 3.2123514923645367 5.891048645897213 -1.862933161829327 0.855833853325855 0.5166878628507489
Ni 3.2280897512789624 6.352325188241692 12.927285788483935 -0.27988746192410513 1.658982974663485 -2.125488303122572
Ni 3.2050191012171223 2.7400490715204713 1.4861001084727916 -0.800512455045731 -0.0774115453109441 -0.9887758276039358
Ni 0.8421660609482479 2.6454648646226198 0.03577224375913544 -0.14601114875721305 -0.42595594628181477 0.36552550890989954
Ni 1.4037435280529051 0.3154028961786281 8.728769534185798 -0.09407743600239928 -0.5017602950066391 0.22475838216044516
Ni 8.586675799337256 3.0702159101223487 2.882698648923737 -0.11908449956969815 -0.15737028252377414 -0.5212546562858248
Ni 2.9121237347380204 8.134023458987501 7.196972981578295 -0.5268421776759313 -0.05439245870795149 0.12443573657928247
P 4.365702050266777 0.14783774448933373 6.157543765341828 0.6250606324298977 0.6681744329002364 -0.08057040265489995
Ni 2.004544739166486 8.585711489831516 0.7844048312804083 -0.9654006432131053 1.4172771660154235 -1.16745258491497
P 8.827371090873598 4.433858718351677 7.997096967528204 0.6668194615342387 -0.5307705661960601 -1.0255932535426013
Ni 4.290667854008868 7.854282729728204 1.1544558749300455 1.0383456681122634 0.6592298221124389 -0.9517105473205223
P 0.4639866159459866 8.994269413442414 6.415237286231697 -1.5909212459985569 -0.8756372612050275 1.4485638919438473
P 6.564527863061282 1.241748628348179 10.036771683933965 0.29063364469701564 -0.09913685280317765 0.14463946522066704
P 2.0841730514658887 7.573459426589819 10.113265080613767 0.5872708152756337 1.1595929796612352 -0.29081207925640884
Ni 3.970435222768004 6.240028617120496 5.95812819845872 -0.33141391193817116 -0.6459166499433006 0.7510847965422226
Ni 1.6155823124929711 3.704795245715272 8.668187244350698 0.5481293691894817 0.03217375651906717 0.3502927511205451
Ni 4.3621905081043675 3.815226878641406 3.5885004290490525 -0.46704654567453757 -0.03201589078496422 0.48051629802619816
Ni 4.293078627773217 9.007123841099109 9.747468825226717 -1.7549450292831066 0.9005062565325652 -0.2581660110866134
Ni 3.205492158710504 4.503552823290067 10.354248755275881 0.37971337037450736 -2.016522380044114 0.36067023770012724
Ni 5.440643328641021 1.8199886359312536 2.2357743322054526 -0.2533513633067894 -0.41922351265398766 -0.4491100158007749
Ni 4.119575694816035 1.427296332867615 4.341490603865129 1.7720492930635612 0.27122130160867486 1.2568755528644935
Ni 7.605973032000315 7.872950306197799 7.382648047730565 0.876392137093181 0.9143233649213157 -1.6856216602969358
Ni 3.194320724059108 8.718003837307572 11.885805140232899 0.5501227454704268 -0.1985945792808838 0.20852289413818925
Ni 7.677204573792195 6.091452175160727 8.627018506263216 -0.9395649130969238 -0.8852930391272366 0.08888432183723402
Ni 5.614400984863869 4.4884149835018565 5.56137487875959 -0.2701326965301864 -1.3851134367986855 0.15264176669985324
Ni 4.358051255037279 6.464285160761827 10.61388636051836 0.346683436502732 1.2492008099280552 0.42174216531078335
Ni 4.9594619825365625 7.191638348614469 8.143985867852928 0.23070637221376394 -0.6532908309201846 -0.46295926297904144
Ni 7.8918453141545974 6.610578190590081 10.86921004531158 -0.6050371381201193 -1.4666621442064545 2.3382357768650697
Ni -0.3957007667763558 1.8788206130408434 9.465501996570678 -0.43623547383095196 0.12672324706187854 -0.01646148799013294
Ni 3.0075085004708253 1.6450756277534149 7.6542949452232945 0.44935632748362603 -0.256131497155088 0.8101425219363273
Ni 7.866227431436088 1.1800328199808592 7.340653278481564 2.1081528971679178 -0.14580906004873598 -0.6805195847291505
Ni 1.2256009927567886 8.598165638070736 3.729757216024689 -0.6176543126634976 -0.2522103077238108 -1.4809060557199787
Ni 8.106003899764131 8.15445590379779 4.757510099708172 1.3098636750257504 0.7714983272015681 1.1785533228138219
Ni 0.9073897725741817 6.918202020180429 8.11595812109602 -0.8379137785123246 0.34051381735691033 -1.095483807886152
Ni 0.8767629387815198 3.8753961528957475 4.714609243414155 -0.5718807059728086 -0.27518877089685506 -0.35104968389122765
Ni 7.066514641615042 3.219329090391915 8.185913317381717 -0.8214204088429917 -0.4017438678119855 -0.5439227873073019
Ni 8.388801308211434 5.246598783759692 1.5914463733450739 -0.9548467789566586 -0.985486872440019 -0.9053828678985762
Ni 6.23481588743381 6.493005208965783 1.3684907378105406 0.4840271393929341 -0.1687947223106319 0.04656267825088754
Ni 2.8284653364853862 2.9233406556868564 5.681008389657945 0.8559315552459839 1.3547389382718862 -0.5346498466458082
P 0.12607982897162756 5.31909484462042 12.313529170133341 -0.07146689769173499 -0.5842381990968971 0.4932795112291376
Ni 7.716286400553105 -0.04777061929800012 11.719077846142458 0.2615328706763173 0.3569891893041142 0.27000337004117375
P 9.07772767198631 0.5634487733813611 0.15710603245581742 -0.03508398818732667 -0.3447525380286063 -0.1364849544343327
Ni 4.890723089844424 6.224417719838904 3.5542547054320215 0.83446927160715 -0.656506766754321 0.08329011557890817
P 2.6341114847814615 1.927318103371943 9.839486695222973 -0.1545454114804693 0.2684820483006409 0.9117319500450557
P 4.315348719000103 1.0400987745347932 0.6325815774093347 -0.9113192879876693 -1.1778871499847328 -1.3898442666154516
P 6.623760119588349 2.6228217857567206 3.751859007951046 -0.05508562812023416 1.1150097937342216 2.3920548795680543
Ni 3.911139285424521 4.3322150380910545 7.6869959541792445 1.1827107966256212 -1.267025496814302 -0.6021778142944532
