# total energy = -340893.448691755 ev
CRYSTAL
PRIMVEC
9.03042617268709 0.00000000000000 0.00000000000000

0.00000000000000 9.03042617268709 0.00000000000000

0.00000000000000 0.00000000000000 13.21694151319722

PRIMCOORD
 96 1
Ni 6.434386220682359 1.8217168662407712 11.390650641607772 -0.30161842584329346 0.14493514208421493 0.09868279598489454
Ni 4.669064364775516 0.34992449206317705 5.9109863422275435 0.12875287589739762 -0.09333387296815539 -0.2748594125818944
Ni 2.7337898916573797 1.779138407678006 4.722055807552222 -0.5339844451476674 -1.7380901625092973 1.1610682786551811
Ni 3.3551825347459174 4.23957730449023 4.764165587005887 0.16257625220474584 0.871663364158944 -0.5661214348915282
Ni 5.197479741827524 4.506724396677354 2.8984750613862422 -0.34001528045393703 -0.7503391766254497 -1.515261907492029
Ni 7.241290904970237 6.201816629627118 2.6606894962767376 0.38933083885961334 -1.162615311427327 -0.5489744907985965
Ni 5.037270954263999 4.334911511711251 11.603708191217295 0.5099484872443862 0.29955177312225184 -0.0906547834740955
Ni 5.8760078901815165 7.804211539746175 12.305011976971318 -1.5951751361789044 0.1655502472314052 -0.13277151013848748
Ni 2.051613451201722 6.458732249162788 0.4360359252162974 -0.9403285307358258 0.10591042408158534 -0.4500042454802702
Ni 2.9300029876598757 1.8271893043932708 0.2694209534524697 -0.9547747880681429 0.04323489942923522 0.1373976960565892
Ni 0.34335576019497865 8.998512468760262 4.97220041367742 1.420670507967689 1.0437928072697638 -0.12193559586524806
Ni 8.700210406893065 2.5898719925874345 1.5907510788421044 1.0710287601675814 -1.338756446800701 -0.8519954534163715
Ni 6.965637151496555 0.8234511338370941 4.7249906960003445 -1.1775649907586236 -0.20058204202455776 0.3486680710329286
Ni 0.6601548436261437 7.242762864407296 2.410637903539279 0.44021682707620313 0.055230124117898426 0.21984063314385363
Ni 7.343957818098569 3.770997530075949 4.038886020237198 1.7022505271028683 -0.04289371403973258 -1.5395300360107744
Ni 7.591671433546123 3.7667622602846578 12.48719450010659 0.19790192408923335 0.02816000737398376 -0.1530462012271235
Ni 7.7751696897487514 8.905264289943906 6.989303188899616 0.2751383772748939 -0.6708614928140962 0.02795020535602283
Ni 6.584806026468147 0.6468385774550613 0.49671226051408685 1.239663302751265 -0.10714223960615743 -0.5349475803918851
Ni 1.9091494507168465 6.439894780538836 9.355691102024599 0.26576156404568424 0.08497881613524075 -2.133407300859332
Ni 0.05176872309708706 4.847352065179478 1.1051281814489244 0.04415226903718203 1.3630153193480654 0.5831375098335505
Ni 6.5618597140168236 1.9798396253996309 6.926827089701178 -2.1395838619836898 -0.12943010447008033 0.584489910096387
Ni 3.6536381138550156 4.569178822853406 0.7214497631045376 0.45455818339953974 -1.2955012356564914 -0.19601524858948177
Ni 5.9355635496134225 5.728143694952095 4.674673162360529 0.00867258807333345 0.9460749463012997 1.4462707250342963
Ni 5.192693616050587 3.1622384529533303 8.974515014723211 0.8555201787401783 -1.6709843699997353 0.0704885929388657
P 0.184756194543624 5.858082494582982 12.375273206419378 0.14063857159139007 -1.1008013634443237 -0.1397631109649722
P 4.140062010033883 6.127433010712697 12.56422222775212 -0.26224120959725156 0.7724792030575988 -0.2765504271310721
P 2.3727624908343046 8.489575720577795 1.5634981562341363 0.12735368155702584 -1.6668202113197166 -0.7147880189937174
P 6.277022017307014 7.687448131640861 5.765467348628822 0.29233931453421264 0.30040280826863747 0.6206671313478923
P 4.693392332403956 0.8490415550195257 12.578747667963828 0.4315434676719213 0.2668185445552889 -0.5501098899546203
P 3.974398845169847 6.083951509550509 8.280876254553085 -0.7118219943868579 0.4734033411305008 -0.8933650175020936
P 4.644646092887135 1.0926002714671377 3.696447751323233 0.9714252521406301 -0.17208753412929073 -0.2812434617313672
P 0.09958392569390292 5.465565998318048 3.644095662706919 0.556031654755694 -0.3934762284865546 -0.22285036650445492
Ni 1.4394408730532875 0.9520687821450261 2.6735623685315035 -0.251604812929328 0.7393608232370751 0.6265019928621146
Ni 1.838287697940172 6.425292581706176 4.798199456492917 -0.7176015771831125 0.6260157972543154 -0.2849111403909416
Ni 6.046755184880301 5.393891507201894 8.903143042877863 -0.18681224193397505 0.9368174322587737 1.0599190234076648
Ni 8.729459956688357 2.4251570224527916 10.361024948853956 -0.732222412420081 -0.033714104422993545 -0.7339113700867296
Ni 2.329271959246123 5.251879028016729 6.8042661481075735 0.2799918487124533 0.7823550674104139 1.5535543753143244
Ni 0.5340521689576031 0.07875795726602389 9.287861766296786 0.27900737331199693 -0.6287648207543622 -0.3770237393574862
Ni 1.3453799558974517 1.0667642226976632 11.54458870136091 1.1218954651104613 -0.3409444771364257 -1.1353266509147026
Ni 4.15878208311991 6.771636509862644 1.6348692250368853 0.3286756870714017 0.5407587877570235 0.6642825540449978
Ni 5.3474480263136 7.834553771086767 7.896131342898781 2.647380850102712 -0.6535453701331518 0.6572071352554552
Ni 4.979918718774684 2.6675607474157426 5.122687947658164 1.2751509541349135 0.3190379068713215 -0.159211449497571
Ni 0.4827846345031954 7.250212965852531 6.829060988759913 1.1239114670992256 0.614112103838194 0.34714186419638926
Ni 4.917933874750331 4.7561537930638105 6.845860290236968 -1.0419637244808249 -0.6348447083998551 -0.08081877122028017
Ni 8.19211348832806 6.833937418796794 9.23283938071398 0.3926555323574722 1.351160219781692 -0.24841664500933347
Ni 4.748035440095004 0.0881297333628294 10.088186882205271 -1.805512200707697 0.8253449407083786 0.7998617088356095
Ni 8.202561691203378 7.12060829198343 4.75171533868765 -0.8203878538134194 -0.4745042875041635 -0.04721650978480255
Ni 7.2757690714161845 6.0690964587900105 6.994748535774134 -0.42560601914156376 0.027226954036753112 -0.7412220448155299
Ni 2.2385342388561615 5.251508780550966 2.633198170422522 -0.39796100373078563 0.19149627767320568 0.2671345331338109
Ni 2.450677006312468 5.254055360681337 11.406510778781428 0.0694472961585449 -0.3024262664565695 1.186459722145092
Ni 1.048558883893308 3.211192392268018 3.711012925409317 -0.5980398808666797 1.0072980547778394 -0.1019514394338373
Ni 3.452295735887801 2.6623231003390924 2.6286775391698134 0.6983771817358618 0.30439470303684996 -0.3573270322595072
Ni 1.2158565558622991 3.492219249208264 8.183295277344701 -1.0913258198537206 -0.6246914220159371 0.6982830793601588
Ni 3.2994828672135443 2.7022375832335617 7.343411477325918 1.4930987411314285 0.3473169563216728 -1.4273733739091612
Ni 3.977162155524079 7.019855829165875 5.964210769994899 0.350930384704544 -0.6270910325963651 -0.01809670960071077
Ni 1.0635584214697138 7.464676552789353 11.239964438255159 -1.082239027061104 0.1838523879747027 1.3205558646322741
P 0.21815070987026378 5.447640602719513 7.937156568190539 0.41363521993293284 0.2539370606069304 1.0235399705579984
P 8.596613359887328 1.6407380988905311 8.172523785218791 -0.23841608215319585 0.5288072718221022 -0.4069344108739895
P 1.8628685174964494 3.1581747612559297 10.489982141179269 -0.2942668705742287 -0.2493399281545512 0.4903276276896653
P 3.89425381447111 6.1886954206575115 3.8478220731366095 0.39705674674896135 -0.6807602399850469 -0.42599297016733734
P 6.883532518357072 3.870910163276041 10.340327212475193 -0.13297025641285487 -0.2054825646499687 -0.5791152760480348
P 6.373214114997487 7.838825162582035 10.17315867559792 1.4321957349984689 -1.1492805419916337 -1.0032488244091302
P 2.47811144048292 8.645919485815792 5.778142454554315 -1.625642451529826 -0.04213832393094678 0.42921816197285434
P 6.9343828471305455 3.9817134902251676 1.3315805619356782 -0.3495075362150884 0.3305636481227339 1.197856136907492
Ni 5.235822930598999 2.6410925688266724 0.6445809709565054 -0.8231011389795243 1.0181547949866852 -1.2808986552519683
Ni 1.4038971163400222 1.0623483443864878 7.059512041876909 0.17840627725846692 0.05206278213351034 -0.19196087601445005
Ni 6.791187382140138 0.8840597409399269 9.165539227949425 0.2958959215372194 -0.2976851522271583 -0.2250311762058576
Ni 2.8090946140232127 1.5604395509498927 9.31652975665805 -0.7176260026631447 -0.8668443455037459 -0.48015582936298595
Ni 6.552793166318623 2.1873136626169236 2.404571263356359 -0.7480292975453504 -1.577874697227244 2.423129489485672
Ni 4.300975170824958 6.703827041072016 10.374545302652509 0.19873290463096097 0.23049991262991273 0.3583660150469828
Ni 8.095641447431767 7.3918190758679545 0.22695898738502973 0.30869795839789416 -0.020724119921228825 -0.04485006643515502
Ni 7.714909657089295 3.735905294662395 8.069907442476028 0.28338570488535064 0.44353534992647486 0.6578558245830477
Ni 2.9423295191419916 8.438174535818673 12.555631583503814 1.287052590668506 0.025445950876930374 -0.2810431727951031
Ni 0.23879606977825837 4.831801671617424 10.39611537818231 -0.34945482860028204 -0.08816235606954494 -0.4723869840508445
Ni 8.6251133843251 2.4327877324179106 6.058011610882101 0.9412019344797147 -0.7651243053544242 -1.4858703417037895
Ni 3.9906987640894207 2.3092695656689166 11.121527692213112 -0.5110905712686294 0.28916323079907624 0.7704596015244086
Ni 1.0081928796991273 3.274071248465799 12.484035657093811 0.06713715996812954 0.6479655620525293 0.8983341885819109
Ni 3.2018278405120078 8.509677448840936 7.92998008865293 -1.888756293540018 -0.3392490917118738 0.02897144753168559
Ni 5.716620871383466 8.027967435031053 3.648523280571887 -0.7553466571423701 0.14921448618585917 -0.5081307173093571
Ni 3.1684604164633505 8.254811736005957 3.756756548283058 0.05173290959791735 0.7418555646344708 -0.7728964931006754
Ni 3.245408676360132 4.3215916333697715 9.359815297576162 0.5077008288607902 -0.05682986450485051 -0.4546152618897203
Ni 7.167990937175123 5.932375809237461 11.13901330606573 -0.3075342771070962 0.1591507714629646 1.2171774629439231
Ni 0.6705226757101121 0.20846106277846158 0.43222057023373783 -0.4083922263664386 -0.4634986804222792 0.22530654135443132
Ni 4.403840753325162 9.243544047687532 1.6123211543719076 0.4251054253560614 0.49446453267617424 0.2867746759622416
Ni 6.109128337222406 5.71633189775165 0.38968726380094354 -0.05532602626581439 -0.10062577864387831 -0.26396744825973895
Ni 8.08583440480204 8.811790350477695 11.1797080177661 -0.6048183372410939 -0.26616497013169005 0.382667825017141
Ni 9.107997353514232 4.696245947018131 5.853122081584355 -0.9551015752799421 1.2583778484416328 -0.7843970375411071
Ni 7.972060067700815 8.817750431633883 2.413717278803309 -0.14700128058462425 0.7622909496706871 0.5594699910132817
P 8.563363331376598 1.6087884517229671 3.671296208844121 0.17594958818785827 0.5095970174422386 -0.6797829636734422
P 1.8831327934274877 3.5139645150023555 1.4179927082744062 -1.200445752011539 -1.0392684370368488 -0.6623989638690398
P 4.781565411811558 1.029315046099617 8.015585817950374 0.4827914672136201 1.6613841279058097 0.33800930576750177
P 8.382483898712294 1.5148539605310507 12.458619523133066 -0.0975121727155611 0.7304534934451162 0.7083211803224511
P 6.274782471660448 7.6973816002345075 1.4503875554434855 -0.27288557668497515 0.49966561726113945 -0.04970842296872084
P 1.7479834379979335 3.380937309681444 5.914964244877998 0.27918940741581594 -1.6164186189387129 0.047001822670835185
P 6.627438667586877 4.01432235849031 5.90539560549452 0.9956800109229369 -0.45631733218249154 2.0041540882867483
P 2.5458215745876105 8.473004888878394 10.087658602284609 0.12406446928279277 0.5876911906425041 0.4278840165424631
