# total energy = -340854.7259639258 ev
CRYSTAL
PRIMVEC
9.42527777860336 0.00000000000000 0.00000000000000
0.00000000000000 9.42527777860336 0.00000000000000
0.00000000000000 0.00000000000000 13.79484675065754
PRIMCOORD
 96 1
Ni 2.3208992851736268 4.709010227183103 1.387830702256162 -1.6708912960652964 2.6208856320256606 0.8895880669581647
Ni 2.0571046067944736 1.5990738010736885 4.724721222945222 -1.7524574869745626 3.3274299229533466 -0.41845809524287286
Ni 1.148554941853839 3.1287775566682225 8.239952139766595 0.6928094578400972 -0.5900949149879902 -0.48375640223005073
Ni 5.152215070738302 9.16426369697011 1.3602363160945694 2.29699425371678 0.9984845702512676 0.19565426570563724
Ni 2.015322349782369 6.154715905969184 13.173140717182386 -0.07282495438152618 0.33603624120153097 0.004869926497791613
Ni 3.901367587636466 3.720487079105155 9.239774311013077 0.8584316959600184 -2.2222481710531405 -1.2425419098506407
Ni 6.055232097540857 4.548460043121701 8.069336701416175 -1.009744716546119 -0.4133873655881848 -1.1159451610642974
Ni 3.554724716354899 1.793507859251606 12.932572751177457 -0.49028906114224596 -0.5416576454222091 -0.7814659799372413
Ni 0.375138314012155 2.037679109004727 6.3564997958678395 2.4754082442847305 2.49707004552888 -0.2592312191263342
Ni 8.524155372422381 4.5757650732512 0.2814435112812887 0.20940555385345871 -0.25868691658709 -0.3674741479958381
Ni 6.845117513489298 1.1961997217311657 5.130965781671352 -0.42380701825961203 1.1149992522112604 0.797769345082955
Ni 4.736767670652683 6.340554110685553 8.78962115257646 0.5861063626538873 -1.7896297251494857 2.5952946709304334
Ni 4.266879865310597 4.84298112751472 2.6246769350102697 0.869482297347225 -0.49363483768602723 0.015516607578360375
Ni 4.174945704494881 7.467807924443892 13.445272053880332 -0.1284404868633014 -0.8183307141740745 -0.30576330124960244
Ni 6.61797774093466 5.273650351438495 12.777325228472927 -1.0182208723379302 0.5030160217906111 0.7560287708110593
Ni 8.950686899339996 8.79620659425802 9.445249139744565 -0.9595490695283345 -0.06579478700762217 0.8318274631089286
Ni 8.255412423136088 4.909287957670406 2.713639305698326 0.8894772524119133 -0.22535204988038607 -1.1946522852582135
Ni 2.959339335529805 2.159010711647818 6.819372366855289 -0.4600505739726786 1.3055845880344223 0.7703950668350603
Ni 7.255880550449491 7.630488221314843 1.6677416633479247 0.12193739563746098 -1.0558155427622526 0.21315910735862
Ni 0.7517064426845258 7.993531076174362 7.565245505036139 -0.5478252076855018 -0.5269900161077054 -0.9969102837856121
Ni 2.277656110084176 8.984759279014881 9.310003941838387 -0.17153654672182717 1.6299300231615865 1.3466003683251517
Ni 8.834228165380699 2.6538566529177303 12.613608151030956 -0.17897577660869177 0.284170148459859 -0.32952235134241314
Ni 7.361339985078058 6.7025978860857265 9.19661030825814 0.9219415435882057 0.9836914711024929 -2.513803042012845
Ni 3.099889079848439 9.294511612523973 0.5911694540122103 -2.396013092884854 4.5867565084614945 -3.832254715817922
P 5.198766518377099 0.4947667689353981 3.5080300044917436 -1.4307140082466199 1.368592813435843 0.5641869368729766
P 3.3590936478813496 7.082351758694504 10.41035047219538 0.6029761418260325 1.6694684475758408 0.48596446562496304
P 3.741873034701922 1.0133210542811617 8.336184227313085 0.7520569306475048 -0.4633040479129698 2.4318681549102505
P 1.8307188564733043 0.03843534082329388 12.446966409850917 1.0630097465178465 0.42210520507715693 0.2905089461936932
P 0.5912354309576388 8.122893015603898 5.186311013607982 -1.1494769742731559 -0.6800894391702674 0.27851037907092036
P 8.840222642136778 4.943963555132064 11.820528508395983 -6.016381397408994e-05 -1.5588727022034443 -0.22086933151868413
P 0.13548742754868126 6.094450678959168 8.666874815717822 -0.39288333209756204 0.9738523735248842 -1.304649477814663
P 3.705651691661651 4.54973245564068 7.172300013452821 2.5419892746390738 -0.8577256710319293 -0.11344529900604977
Ni 4.4296355644048955 2.2114152568739183 5.157534697595427 1.3461972193494622 -0.990997517845603 -1.5141108246067214
Ni 5.601989333002602 3.0810008229000387 12.34298108868878 0.09533856210300999 0.5745094018449073 -1.1927373276236877
Ni 0.23007574662620847 5.625505401408918 4.321070500702227 1.5826412653779518 -1.110729678301629 2.4698088958200817
Ni 0.5785047080733055 3.1891558870132584 1.320231666497868 -1.1141461601823457 -1.1424385793691356 1.732039328329527
Ni 3.2398167558244615 8.902552005010914 4.0993040790888475 2.1177459401729912 -0.6339005993190308 -1.0810195528317061
Ni 4.5091754847579635 5.208238922685054 11.05531469992665 0.12501860566594597 2.1553506378996428 1.1571424612382135
Ni 1.1445397734606162 6.917343418177716 10.384705233507306 -1.2244930227687298 1.405718514643547 1.1766903014631542
Ni 4.357720693887782 5.678824198593099 5.021793730070741 -0.22475838216044516 0.7512622026603514 1.1598436622194606
Ni 7.080824863671729 0.5737402300855728 11.096975370853608 -0.12451569788759846 0.6692460686978603 -0.79155678851434
Ni 7.798757707991383 0.18779771999559783 0.3872874972489254 -0.9053777256922537 0.6689059117496221 -0.255691838514508
Ni 5.068226419207766 2.59293165645343 2.7293380485991516 0.2886384686438577 -1.1107381629420612 -0.39489496321095213
Ni 0.6410065535333482 8.360570248871266 0.7530250390653048 -0.7481971905817824 -2.4393680628317216 -0.8327746575135464
Ni 9.223567545632452 7.565444378400216 3.260550482189277 -0.12568734959819644 0.6497082557752488 -0.802975828984559
Ni 6.449698828980201 7.257944686313613 11.168349230418206 -0.29236811088961906 1.1526471444710211 2.1397676958597214
Ni 6.195433106576513 2.034926927852565 8.652914094065144 -1.022344921808633 -0.5790026617295706 -0.4705077647502607
Ni 1.6323073310138376 3.746830730886981 13.169099158010994 0.5904450992385573 -0.9906625031036873 -2.0398924222286223
Ni 2.0850599811003394 9.430273315660077 5.883529924646449 -0.27283132640827207 -3.2440814433326777 4.493484599079526
Ni 5.702425094500682 4.071870865179659 4.342107721016014 1.93381179111776 -0.9509034780381945 0.9272179614957966
Ni 4.879032815552459 7.1110517299559195 2.6194345954320757 1.233235030627418 0.6771709799718919 0.7162718026280954
Ni 6.999824025241314 3.145083287466991 1.434857183902044 0.6123092463015003 2.1408719846674935 -0.5026313847576828
Ni 1.85752434687313 5.314273299266642 6.99859496900076 -1.4975814594931305 2.0792925212927993 -0.19387120566328547
Ni 6.733870958218855 8.670237754879095 3.960031459928152 0.8129573656773033 -2.1403698482200944 -0.9201199169984347
Ni 9.151332215666114 0.8638154108844986 4.759401533045841 -0.6774391460316139 -2.5200240832218923 -2.7430207454962243
Ni 2.8495536983367087 1.9979232867450702 2.9210585692643725 0.590216528167519 1.0509733841786029 -3.3527704586006646
P 7.035564679107749 8.815236230375197 8.039167329327285 0.5510498852703863 1.4804144607955407 2.002785490073996
P 6.640541856271222 2.8525320861589116 6.532908010026888 -0.39354282005843194 0.3946293682543913 -0.19278825701175184
P 3.214613562670758 3.691504349506188 11.314809566519445 -1.8518450223359655 -2.864383499577138 1.2332517427979663
P 6.9768734735101 2.843078532406793 10.423524183141877 -0.315663848192766 -0.048974630126489845 1.0899117131150133
P 0.37852010372926376 6.06627852326118 1.180682886694164 0.34561051515352736 0.8978965868238601 0.41155776857861376
P 1.280932970217252 3.8654572787675017 3.279711129669518 0.4939099457242849 0.18718942276773567 0.6227754359401468
P 6.442337686925959 5.661255480553271 3.1456525742532606 -1.2143927011099345 0.8331387257211845 -0.34133888436136695
P 8.991903639676998 0.9801817771201962 2.0898499073384516 1.9312093204979064 -0.3830452629612177 -0.27742845886065126
Ni 8.259729200422697 4.274655719593246 8.43916292879354 0.03328961529106525 -0.6376585236995662 -0.4840572212999212
Ni 3.0802845017782436 7.539958426908963 7.869615062326055 0.5180659741451981 -0.026056844988051896 -2.376497905670062
Ni 2.580160404874048 5.498198172565584 9.313315041971109 0.03495723280147528 -0.352875938466689 -1.2029134968257411
Ni 5.126097625626517 0.40578554769150527 6.769807657865992 0.08427124854525486 -0.652367804885283 0.36335909738620004
Ni 5.785141333512238 7.4092392474591815 7.276395610366602 -0.6780281857658647 -0.8051584384581746 -1.9359164961655884
Ni 3.8406216714526145 3.3183858725519384 0.8719720463950503 1.4329899487649902 -0.8139685805506369 -1.4425205139632447
Ni 1.4101818063117686 9.380696353809487 2.6673856968417495 0.12608484214693125 0.3774986221113757 0.6947904928258679
Ni 9.10459226246895 0.2172941272411159 12.171028203401743 1.187350866500794 1.8175807018364567 0.43139485790919896
Ni 7.152362723072106 1.4361390216989414 2.7715915695071747 -0.3753088135489085 -1.1549282271957142 0.9953653078959953
Ni 8.27929607738122 6.243049610620084 6.670001504932858 0.8983791828872335 -1.8776442427872564 1.252136495517611
Ni 2.7866211176757965 3.9891074997785103 5.021848396682668 -0.8674063886548029 -0.0841159539143132 -0.3615423558924354
Ni 6.663605511337456 5.031034272541905 10.486677315306078 1.5867192921020672 -2.2705088058317413 -0.6238884664986675
Ni 8.875473181551458 1.8797303016487938 10.007305795322534 0.19653024055268734 0.6317971798227828 0.06500648677837191
Ni 4.394403875546053 1.5676782003276202 10.605382092993324 -0.19591780377966903 0.32251043880095426 -1.1186602460026152
Ni 1.6865686559898554 1.7028366856769506 10.982505370535085 0.24080232299718526 0.3947137004380815 0.22362118323220845
Ni 5.273471271158047 8.766630072150196 9.7035158926246 -0.5063085764989539 0.15939296938075775 -1.8002558374047641
Ni 2.6572591782462593 6.38047958794774 3.4629479576804196 -1.3152313670955673 0.3695120043614733 -0.4389716418151923
Ni 0.9705962694772207 1.1248220920554 0.381456077800834 0.12929846398822248 1.7624647346989195 -0.7995189807842101
Ni 8.194223518890073 1.2072744232852426 7.431325501205283 -3.3536106951137725 -1.3144883182819553 0.7274013368823536
Ni 7.578413560815885 8.2013207531626 6.095445988307347 1.5444588407709594 2.2288047412247356 -1.5248055853164062
Ni 0.6868982317178594 4.4596267987411276 9.848858390764722 -1.0023232272710672 -0.31801306515123295 4.163912368335784
Ni 5.120593263322193 9.209448479310744 11.97910032662232 -0.4780333837033445 -0.043970749153995244 1.9544862887479761
Ni 8.190453407722726 3.263794662848778 4.581172355192965 0.34098947144174824 0.22519058460185737 0.8017972352954256
Ni 8.614195052376507 6.680995149096837 13.075307274917567 -0.0001414106738707242 0.16533093213174752 2.074542151092008
P 5.966125520100651 1.8584951504987213 0.21825267800541345 -0.9405720142051994 -1.6384917966886685 0.008825054490797703
P 8.651311796819021 7.8334898571205525 11.470015618001135 -0.702778653237667 0.18010680488934142 -3.690217206996477
P 0.09173717250722228 4.35422391578007 6.409016501901169 -1.4376634429812594 -1.5211407348703094 -1.1450235664874924
P 0.624129650892727 0.9635084604826114 8.387598175829966 2.226839647078565 -0.15081294102123058 0.10094562387714227
P 3.093366787528932 7.909090011303745 1.8171266631872325 -1.2247907565148068 -3.7881782943239988 3.6974345506805224
P 4.4013220295381315 7.66206290234136 5.608791556076284 -0.7150217322710782 1.3808482337644286 0.6254861500030906
P 4.602957000045678 5.4085826301177855 0.05721614960342469 -0.49327076947838916 -1.541248818474094 0.49391483082029125
P 6.319997579545603 7.803197013890932 13.453134620719831 0.43196332881815924 0.29611189420276746 -0.1490458218184788
