# total energy = -340860.9597503305 ev
CRYSTAL
PRIMVEC
9.38856347680597 0.00000000000000 0.00000000000000
0.00000000000000 9.38856347680597 0.00000000000000
0.00000000000000 0.00000000000000 13.74111165884339
PRIMCOORD
 96 1
Ni 0.4897328266879979 9.497564827086126 5.634378391440707 -0.6656938325702277 -2.1247185148360823 -0.7246803384067648
Ni 3.0957849626668175 2.374358346798919 12.086063165695206 0.3018171721176609 1.4722118703800904 -0.46247075337839705
Ni 6.2761421062752945 8.726425766936913 2.1203639024912735 -0.11097241198552502 0.27973448128600853 -0.39244187368476935
Ni 3.0874291410595713 0.4673739624659107 4.966724773612702 1.2518554739420826 -0.5816413849039983 2.813556389622941
Ni 0.5974572054762525 4.463294971483342 13.301134822704745 -0.4244742195299657 0.41966239996361915 -3.6781841870913428
Ni 0.5691750964766239 0.36637930606875085 12.620702430955813 0.11329514658143068 0.6941662289783076 -0.5582250628625871
Ni 0.551570600863424 5.698801776032579 5.379617840343005 -0.7445858190814402 -1.5075789370254744 1.4609414396725935
Ni 5.47707206940523 9.053654762778454 4.762229653192568 0.6824695093666697 2.171770731128879 -0.15100834486148831
Ni 1.0330330418729685 3.295958527260192 8.660377221985252 0.9146383250585731 0.6824450838866376 0.809604132934354
Ni 8.429390391644706 8.135537739414133 9.222662990489518 1.4130903816275855 -1.0873511514766887 0.18664563444912372
Ni 3.071280811661297 0.7293993840801165 -0.21205385297743015 0.14386170651437805 -0.31979921051737825 0.4488364504244141
Ni 8.070108839660312 6.02927921488098 13.287064182431958 -0.2362432428715931 -0.44942754704119375 -0.6795549068230361
Ni 2.610048847504893 4.921456875341354 1.1005640410176467 -1.189486681896874 0.4392076690853985 0.42380701825961203
Ni 5.5229915339906706 0.4152430242002961 11.797719722587257 -1.3557388402913102 -2.079294835285645 0.563075706086669
Ni 7.296763467064241 7.48850610154154 3.918992996561862 -1.724275625223708 -0.5533605356814342 0.31812902190380693
Ni 9.199017893053732 2.2410689093179315 2.4156736597931316 -1.4930282929048093 -0.05690931159253424 -0.127132052464523
Ni 0.7092956528356256 0.6439559444360388 8.817630029208189 -0.10187276367710196 -0.07388424888397598 0.6267220792927206
Ni 1.1047710563684412 1.85247626176295 6.698778624313463 -0.35389203843602923 0.8533275419642337 1.1729943406688057
Ni 2.8342008035419832 3.485992443161627 6.383859913069027 -0.008513951008282112 -0.8119618345332532 1.3982636010273983
Ni 6.123728164733677 1.8083781785166166 2.0170164720550394 0.762212788134584 0.29530791024423336 0.1219898461419512
Ni 3.368935832151346 8.284928563475377 1.1149125827731015 0.7711126617273752 -0.7621436254595455 0.44383745454792595
Ni 5.493239175930711 5.239287919015642 3.897267860383021 -0.6938916351606823 1.4988207312168704 -0.24324512811072305
Ni 6.080080732540318 1.5231723933650043 7.9237157839577135 0.20975213855960004 0.7605497986098644 -0.9396903829311946
Ni 1.4685778960097926 7.948648992319921 13.297589701088008 1.5542655424487362 -2.722574818937047 0.5339633621017449
P 6.672949746983468 5.381703040319375 11.44913549997286 -0.26262610374049605 -0.7037659568516008 0.013728148219369905
P 2.936066718641562 2.790844416820338 2.220068570249292 0.0832345797506244 -0.7766135369409464 -0.10572633309523725
P 1.1085452589371076 4.371859750547417 10.78579686597709 -0.49259662622950007 2.035466782357101 0.43477303035281256
P 8.699396092322011 7.65333172416718 5.338724073854595 1.6029321544165038 -0.9824236601336628 0.8529254214298084
P 5.108026411273042 7.5791151288803436 9.119109950510365 1.289223887288212 1.3505362130444483 -0.8160689147230914
P 4.447015202194617 4.422266948535401 8.401769237522773 -0.39953966107181516 -0.07468900417345847 -0.36173621707079634
P 9.00046854996379 2.0737553173373247 13.30081936696766 -1.3152028278504768 0.9970195556699669 1.3789849553034443
P 4.7793327995093335 1.8111384162160888 6.227952487010492 -1.4300393507770983 -1.3057828200881576 -0.9334685703911989
Ni 7.2014977121780275 6.309678055467525 1.9615845148263822 2.77913086095522 -1.3836602492919268 -0.7222095082687692
Ni 2.671778653198877 5.158893648877605 9.477272385713203 0.8807789533069669 -0.4194793374185356 0.1763051717550641
Ni 9.251941226087494 4.4127281679140955 1.562941409933696 -0.7472291702415583 0.9345090958405713 2.3575115943755462
Ni 7.9478227987228 0.7588944954973363 11.342366876959456 0.48044559268926285 0.8420110885101497 -1.0876563414219333
Ni 1.789460222855266 4.188172503642048 3.35916609286539 -0.5914154335716265 0.16343165822650563 1.2861858717928365
Ni 4.366742983383428 0.5062163278069223 9.722180578165238 -0.8556875575559778 -0.06742178108808389 -0.26386768945708106
Ni 5.107566371656463 6.552907572747228 1.8544178167161844 -2.2886343117878587 0.6472659648823434 -0.20406151593272598
Ni 0.45825015635588584 6.8017796167527225 3.2997909389232007 -0.49991578559873256 -0.529036614224089 -1.339632678758067
Ni 1.2136971712979627 6.909522772668185 10.503843279257781 -0.9399999437518133 -0.16830261316556175 0.36649995700802684
Ni 1.3272049052660642 0.6239010337222869 1.5645496708790008 -0.035519275952532375 -1.5201747714126141 -0.9601296246221528
Ni 0.44525732318479766 7.658439102767565 7.271755150193204 0.8626781299411982 -0.9164992895267119 0.35995881345539943
Ni 4.554467312638366 4.058882594256214 11.151681394743926 0.5133906801567159 1.4140571164162294 -0.27368493265781896
Ni 5.713861032052829 3.773808248995053 6.242188366002702 -1.4039236275266531 -0.22483268704180634 1.7964801724124158
Ni 7.42552761688827 3.5457600390624484 13.83358936921478 0.3456454821565209 -0.38910920976711055 -2.307302320511007
Ni 2.484289038034031 5.506617879065909 12.277806739028867 0.49442519479780656 -0.11934340965803963 -0.21017225681615417
Ni 5.88458267262156 2.4923632027331677 12.152666574755845 0.49710042763712453 1.6411035232799027 0.6923032076276399
Ni 6.449839921506382 7.689909567966992 13.535269638421592 -1.4347562966367935 0.5393858186688969 1.3547163125640669
Ni 8.744761631654837 8.082849120470463 0.6302129650330192 -0.030106846687709438 -0.06581509872259633 0.9631146753924059
Ni 7.1777258691335915 5.477250452113698 5.750353439923848 0.7295392091609629 1.2332633127621921 -0.2700383370441672
Ni 4.5901438543322275 8.960895754374413 7.07145108456574 3.0138764362353645 0.8249669885436696 0.8126092383092649
Ni 8.362421767459885 5.309345380626062 9.742654218815712 0.00843758924439192 1.5772008110886708 -0.7929814367760085
Ni 8.019279156310162 1.7959758859961976 5.647651942663545 0.22434366322052976 0.4213248752677067 1.0195645308500183
Ni 2.865211229124832 6.551630728097131 2.888134346019499 0.16693427206312542 0.42333779193267734 0.677593155110975
Ni 8.056777079343133 3.615657895091606 11.035651892591886 -1.872212530248724 -1.4910778540466578 1.160460212757537
P 8.41352371915454 8.138035097332704 12.0944865849604 0.6939397147897984 -0.41282737931965674 0.33446786827314656
P 0.7535927736303564 5.596269272917141 8.629569589376242 -0.516889951559226 1.3620665822815512 -1.802011643753606
P 3.7916840740963984 7.1514285024797735 12.865789006116316 0.27052067599722446 0.6212803394518591 0.9107161071860316
P 0.8400820992598805 6.254801901204203 0.8380438421015286 -0.47171824011859403 0.7900876601679813 0.34696728629173795
P 4.801987403484936 7.2227909744311 4.322032765790137 -0.6758481473954102 -1.4761867958674384 -1.313789492442718
P 5.119273910470212 0.49845480227578665 0.4772882856313627 0.16069394758036842 -0.5332473098713268 0.19820659981384572
P 7.2520175729292555 0.7797530672555606 3.9174945818107196 -0.2510476548742773 -0.12296892222576887 -1.423254209534465
P 2.366603393262306 8.864634811746212 3.1003243331691817 -0.8876198874882003 -2.2438986594433805 0.3289217416439368
Ni 7.244722659009221 0.6641929932837016 13.530048658201606 0.23891564749743371 0.42427830146907575 1.3765763458619518
Ni 3.317862046147502 2.709041862141755 9.058127474479232 0.48417806314850165 1.283821485325718 1.839025501973794
Ni 8.983841403821728 8.9989569912236 3.1005308815684622 -0.06413359725511535 1.1417608365758207 0.18361790336639344
Ni 1.5539574934213654 2.6764072150554754 0.509901339021354 0.6844376888366341 -0.5027188022651665 0.023565960245398122
Ni 2.985619557341615 8.698382127452817 11.578837567300894 0.3959617139125697 -0.33697160853160674 -1.1168864419316442
Ni 8.381264614612407 2.4787216198170676 8.337900717039878 -1.3936417859846708 -1.8281291667762647 0.20963746735860672
Ni 6.464974286035463 3.837857029899138 8.86895355100389 0.06981393546934428 0.15420833985602472 0.3002410858797926
Ni 0.6159198158028258 2.5530039350491287 11.518844645873584 1.4999227060317974 -2.122493739270622 -0.6808294026600855
Ni 1.9818506682212165 7.274963222376571 5.112545126935478 1.6650374083876809 2.681106781600247 0.30602349688952457
Ni 4.5200394499037895 2.606697130298391 3.827435724299089 -0.15848228464103029 0.7579419286733721 1.3894817410697102
Ni 6.6347101274258105 9.32847679658443 9.464946140557974 -0.9595421275497991 -1.3073573636641291 -0.09903015202198429
Ni 8.806604100112066 4.399349464778897 7.101915095746856 0.03807675226706346 -0.0019355264598160211 0.11046101956674524
Ni 2.91511144467822 7.553230859025087 8.945944466835604 0.03784792408570901 0.6822311681036186 0.5913187600927623
Ni 5.600879057646532 6.040104228715986 7.531090748334965 -0.36769423442644417 -1.3411809970817934 1.1212704299319527
Ni 6.545021179320164 7.756455706789647 6.712147938885058 2.34223512783245 1.736848576792712 -0.8799795973341232
Ni 8.523717290170554 4.6726881055354985 3.9123280552596325 1.020959611425332 0.11584465247616178 -1.001200940741166
Ni 3.232210180391424 5.943815120396974 6.98574758170984 -0.38911512330438147 -0.06298559969360121 -0.15781559759130886
Ni 4.759231884833923 4.073603861986734 1.655790548548331 1.4610337422760837 -0.5371420169400426 0.7254413849425054
Ni 6.4154590015898245 7.582316629069188 11.283857348581522 0.9554900689676125 -0.335180578069455 -1.8826591795033447
Ni 4.08033546209055 0.7035301359266254 2.820157390103647 0.4004367189647878 -0.6900784320621792 -2.0967310284842213
Ni 1.4263387483569812 1.2914250893725627 3.7922173445090857 -0.9946477130036805 2.239592832979175 -0.06739092785014845
Ni 4.326747702431889 6.526929417255935 10.749012473777997 -0.5396876661800318 -0.6279294693372606 1.095700037662016
Ni 6.706175873576778 3.5179323365412363 4.281523930409477 1.3125137110540879 -3.3828230550116705 -1.1261709525573638
Ni 2.8585922917842606 1.002501433033906 7.793065471705711 0.31243582817377163 -0.7278139989397401 -0.7580486294545654
P 2.2164896498035818 1.0667004309556494 10.602325556034604 -0.46812769455385833 0.10465752551109073 -1.4951707931691087
P 3.965062678164962 4.200049036600662 13.439673406096531 0.45660221041276206 -1.2677551758914747 -2.7958450883861072
P 8.086322889003812 0.19659839957310515 7.433693789510723 0.4642396723533618 0.3083840267019012 0.6261546368250248
P 0.4382393718910709 3.22074674423137 5.359308499555594 -0.5901270537775063 1.9500673337446737 -1.8397857771785864
P 7.134360093848342 3.761725167637158 2.067404892915817 -0.050976233937550915 1.4870358227668001 2.678162354259942
P 2.7347008064705243 8.351690639260916 7.019537022119369 -4.055462722772112 -1.204894788921828 -2.37774129115886
P 6.475395591635511 1.9306454423269215 10.112386180947325 -0.2579783205558396 1.4110268142303375 0.4556352185138024
P 3.7294191202770066 4.408400040092814 4.804593668741308 -0.26096594242925375 1.4708658978751572 -0.6579632966951894
