# total energy = -340864.51348631375 ev
CRYSTAL
PRIMVEC
9.34010858957816 0.00000000000000 0.00000000000000
0.00000000000000 9.34010858957816 0.00000000000000
0.00000000000000 0.00000000000000 13.67019303349349
PRIMCOORD
 96 1
Ni 6.762154445392471 1.5307970718249246 0.8755511047313235 -1.49780000326184 -0.6032098551033934 0.607638066078076
Ni 3.7998456543982786 7.681548019113978 4.826822333108396 0.29603527532856116 0.22731123048928592 0.7538075947900243
Ni 6.745062046957866 7.394965472027098 8.405377468429142 1.39397654361627 -0.031367715678004046 3.654578888967577
Ni 8.991713049505982 1.1779464553973216 1.155940225915478 0.8082728157174404 1.0283569323306676 0.7174331699260483
Ni 1.3074377187292154 6.689871346220116 2.9778460613745006 0.13555395797963107 1.1632400894955193 1.6865331163676116
Ni 4.488417128385143 8.80288407729155 7.430569965378308 -1.5031209012541211 0.7188850718812265 -0.6547455610888402
Ni 1.399848751577294 4.419225605104511 9.939268918178321 -0.3801311746382163 0.5821430071307652 -1.1413054942059568
Ni 0.8262213220360408 8.333375506520657 10.233984831689712 0.9499123177695189 -0.20263943877421878 -0.6614232302193318
Ni 5.535555365161347 7.7695038202389375 10.506513317615635 -1.3560450586778194 -0.1270317794412328 -0.7319131087097782
Ni 1.986930607318027 7.950188217898739 7.661637709964772 0.9994759876302594 1.0261594104587166 0.06643164926067269
Ni 0.8728041788408222 1.0876929875975458 8.520070263957875 -1.3256674748272264 -2.0269618302098835 -1.8275897493330266
Ni 4.7474183352658 3.471223279249018 10.844577608381039 0.2935050527075397 0.7603137713396583 -0.7523788327632979
Ni 5.049907087016138 8.889476222585115 1.748691527475777 5.293626301049399 1.6448128538106899 2.0608512838684763
Ni 1.0987329957667826 6.59855310605884 0.5974540461569239 -0.6294163382954321 -0.8016398837819548 -0.17728244806666887
Ni 4.178138726200671 0.9977851038098359 3.6865090426141953 -0.6631908636427158 0.1996980967577077 -2.2541630174838665
Ni 9.032445262387576 8.118991997630225 8.321689162847774 -0.24369275717110286 -0.6977549747708305 -1.3578905965269905
Ni 6.339617279937223 3.871530986630844 1.4903245139578039 -1.2125569334527762 0.11708263864832094 -1.207617072948998
Ni 8.705971112178181 3.126806780737507 8.444474228323905 1.3035963539598001 0.41152588689941383 1.444436242928719
Ni 3.417508315643873 0.22745312262242356 9.366870646907012 0.04814802046013643 -0.22126785250868344 0.7901663359247165
Ni -0.35787466075436486 5.328270338680913 4.3057965262469295 0.7902594098591551 -1.5972412746793136 -0.12289873110946577
Ni 5.767246094980371 0.028863737094240605 12.521746321511007 0.6239131490890159 0.16662188302902917 -0.1915934653727023
Ni 6.043068837151041 9.018733983206154 4.196489237241365 0.6895387575086254 -0.07847341091655517 0.5024493506538636
Ni 5.379276670840137 3.824120596218792 3.948703632568508 1.0099730305068413 -2.687155044676856 0.42738959340454774
Ni 4.328047466569749 3.7437863235761473 13.839840169952813 3.536068259623478 -0.06424775423547645 -1.6502656493951449
P 9.131777315585403 3.0796765935784807 4.613211251185472 0.5294819292916235 0.07329469492909312 -0.043246469393461
P 8.236275739238605 3.08808269116927 0.16453068012283448 -0.9677424039724043 -0.42097366257587493 -0.019460936938089063
P 1.6917645005801079 3.281077351745361 7.680639226563329 -0.6012560738111322 -0.31450839443208417 0.33498928799425537
P 3.8865592211014888 8.628083947945301 0.2520456281296997 -2.2886826485272906 -1.1375467984944732 -3.250087540317441
P 1.883040581204304 1.1841015868554663 2.6140002692981454 -0.19000220962618244 -0.38132133829157555 -0.6129581927394088
P 6.268837938222776 3.573618888013267 6.332402046171795 -1.2029605480135928 -1.157004650108769 -1.6050887957481905
P 1.1679712195895846 5.391848456792585 12.030549084945035 0.13232773773284953 0.35062262365613805 0.04547895826840555
P 5.533668663257636 7.213991531005837 3.207123307174126 -0.9274493607803124 -0.9958610165854914 -0.5614176016579557
Ni 3.496833856575623 1.8973963278676853 7.654638232704174 0.11229215923821306 -1.4035595593190149 -0.9260100572306247
Ni 3.266460082045821 3.1775329096437033 2.0625583993206726 0.2370045465176499 -1.109465723987541 -0.40457928037825164
Ni 3.349913950905492 0.11652158876014926 11.912356550786006 0.04449988218458788 -0.7056415766077588 -0.029059122149485434
Ni 6.81865276131101 5.377810273815966 3.156351411736601 0.4839440927608246 2.4341716062324465 0.44952010675500004
Ni 7.8385272215677535 6.479494743847959 6.011986824303675 0.2719208987788607 1.0175675550246475 0.13073879597917484
Ni 9.015941290784324 1.7528114493061073 6.4064672380333985 -1.748271731027989 1.7617844208024431 1.5143905606306693
Ni 8.1343564760045 3.37850402282261 2.7247291228073975 0.7312034842372632 -0.8242216257372128 0.521908744930056
Ni 5.174915098299612 5.8080063281872665 5.795341141150477 -0.009385040759325773 -1.0073962709186006 -0.7337938706722588
Ni 0.970409245989165 5.903238073782476 7.29524860636178 -0.08224367659226481 -0.7339396522215037 -0.10454773940610383
Ni 6.26833357236733 2.876435834050061 12.46394879650927 0.6764829527659317 0.8326072786977466 0.8215939583063785
Ni 3.3586656325083477 5.494253405665267 10.766328981951755 -0.39895576354388707 0.22167974323512143 -0.701320837745218
Ni 8.477997745515973 4.087511654063527 6.375148920442646 -0.11389627050053933 1.3080595319374764 -0.3195413288703013
Ni 2.194402435967144 2.217612605426157 9.673930447725054 1.9753034826036435 1.8928448617870952 2.14616794295911
Ni 6.801289499731812 5.753749638292937 11.395869102612721 -1.3995640650063768 -1.1869199496109621 -1.7510719194809456
Ni 1.6898124179173577 8.958639725540444 4.398562483215508 -0.26499280420045973 -0.03349118977891006 -0.46904095039674704
Ni 3.9572918622737645 3.123855306472296 5.714291416201772 -0.13331272735393815 1.1651774157275483 -0.5341723927887575
Ni 7.4003080140514665 -0.3428492283162505 6.326401026502815 1.948083727655742 1.4671758506180796 -0.19172587718550854
Ni 7.707251997524925 0.7006127417802482 8.790098402855959 0.23448126587516394 -0.06842399710035313 -1.1312907902824323
Ni 7.68093157195732 8.441020256224933 10.800709921098083 0.25740702143340183 0.849953226175362 -0.1305801589141235
Ni 6.688965355701997 5.14057151958702 7.578181039072571 0.24739231750987717 1.1134393639233082 1.0040391815209095
Ni 7.43658499520994 1.7374563110402652 4.679785676082838 -0.27650671837733026 -0.014050307445479027 -1.326952255076921
Ni 0.5630226704250504 3.996520317697448 1.2515371697504658 0.14722213834617873 -0.10658379599952612 -0.7766731865342882
Ni 1.3882670171188727 3.1743666128845063 12.056221306987306 -0.05491207865684737 1.3344290230699405 -0.2618429457175684
Ni 3.1859483473429275 8.076354402628054 2.4527199469104164 -2.2711037591032626 -0.1865294205862336 0.3317263009722674
P 5.499455846063123 5.36450995940565 9.433130310150144 -0.051234629805260154 -0.4941228330660393 1.236201826565226
P 3.532886675131675 0.6148266478445553 5.4794782881331905 -0.21749450150918026 -1.3037138533742707 4.177417859021386
P 5.944950998049659 7.6353611829068075 6.670794174743241 -0.9285994152243555 -2.10800531584646 -4.273461160500904
P 0.4144215452367619 9.091867032246022 13.144532609763196 -0.20641381821498644 -0.37552427199382427 0.5572102484448274
P 5.520144186244899 5.505900520882728 13.195495043412778 0.3277896849220226 -0.9838740194269442 0.27923902970682873
P 2.0778378827081974 4.953675949818469 2.4729515557897597 2.330588801842773 0.03414579264377345 -1.318061894565827
P 8.62058384087263 5.79335169805399 8.554861233864465 -0.3306775479927789 0.2362463281953867 0.12688008435471695
P 3.3108629575420583 2.211476154184881 11.689013075874634 -0.2365144942551088 0.04049538901088509 0.6117477173710755
Ni 1.6525173649395555 3.2353948813936375 3.5507776528374055 -1.5883627412427614 -1.2959362663113811 0.7191732925456066
Ni 0.6600449148070985 8.575564518219736 1.8456259748385437 0.8223480628635836 1.15432813171787 0.11870166230898266
Ni 8.085022023255002 1.3035335534037154 12.496278647843445 0.6617903837507635 -0.9599172515010308 -0.8476245780421854
Ni 1.839992021431028 1.8562157897812515 5.500598141324628 0.0647869145683981 -0.1461114217805032 0.4707733597068215
Ni 8.669955654055867 4.331876911027775 11.115138133459874 -0.32837949598722155 -0.06124110619866873 -0.09590986122544773
Ni 4.011081546746383 6.280802617127 8.085768297918895 -0.13458645186003917 1.5900187887889454 0.3159160734128882
Ni 1.8015294548989491 7.570783673192676 12.216504105794261 0.7150348448972009 -0.34529581212658594 -0.24882853573577143
Ni 5.629722338395057 1.4785018047017802 6.095155819856102 -0.5982090594546923 -0.6652827131747381 1.124502049495373
Ni 3.6221033908952536 4.028229985831593 8.608147486492479 0.14937826545723307 0.21546358712208055 0.6106917653027353
Ni 8.544041652254275 7.382309625098743 3.454539977563831 -1.5973950266483588 1.6934357570247156 0.20933741961968463
Ni 4.209390729021539 6.41401124361571 1.0568865079489893 0.1640124704306401 -0.23405831940513236 0.26117445889563407
Ni 6.732873205451221 7.3387473593615855 12.929896917945038 -1.1263678990595183 1.1757487634854913 0.9272719546621837
Ni 4.075313472448448 5.528055258088676 3.4676357435994376 -1.351685496157543 1.0029001828204598 -0.3679063504372503
Ni 6.4025135701331966 1.4777265757017406 10.452065155498406 -0.9618990578177498 -0.4266432021568265 1.6353727914437126
Ni 1.7207655372683313 1.7427428124140285 0.09405115588912571 0.9462050441212608 -1.0316661992095588 1.2818291374860376
Ni 4.445872934467314 1.5062139064260824 0.08227981722949028 -0.7541330964502432 -0.37276470697081615 0.45946307690032484
Ni 6.4358764374601956 3.2692060739254796 8.912049396648914 -1.2345102977954159 -0.6788324268347148 -0.0015717153624940675
Ni 8.786482846881075 6.927614466304509 12.088893006290174 1.8069988125555525 -0.3529520431202631 0.41495573851656925
Ni 4.185274569044408 7.0224445872370485 12.298170277899624 0.41276875816757946 0.9504859308848017 1.057268216048379
Ni 1.72213853320816 4.21695621685325 5.6899856520234255 -0.41751244350015193 0.5878295159925812 0.4673406798761887
Ni 7.796767596758398 5.307815501209992 13.751120347957935 -0.18120929392490082 -0.5401368379023085 -1.1684010648711685
Ni 1.0889072016939931 0.9611251782055596 11.438998921329375 -0.862695613442695 -0.4299298433278983 -0.38168540649921356
Ni 2.5659612895884707 4.698868451624773 0.014366954793502541 -3.004566214578032 1.977418986284749 -0.3245981745679184
Ni 7.549039900757834 8.397327228969697 1.355525267002748 -0.3477468447702398 -0.5806705363502968 -1.2608144829075836
P 2.976916720585297 5.95826065256841 6.1132149195136485 -0.1232661417512135 0.7009274589615413 -0.029148853649814316
P 0.41096477110526053 9.296004442184126 6.196466108020297 1.0734761932668093 -3.551048535082394 0.6322337531395692
P 5.136405831225362 2.179271460303723 2.3055189039764157 1.737016984049776 0.8473754381458568 -1.90578702377006
P 3.088484315831941 7.5847471353018205 10.060728622267638 -0.3433047498384862 -0.25154490622567 0.5091110789447554
P 7.864203179653398 0.24901009288858134 3.01400442315586 0.411080314721563 0.7061028325148936 0.6645332366032233
P 8.54984185959192 2.188312685268039 10.49151777352451 0.27950513888402184 -0.41545813207428445 -0.3056018359710737
P 8.680930281466063 5.789101948716424 1.8928299488542 0.10951999580971462 0.8757910131740723 1.7010233395639867
P 5.465569932663808 1.090728522838664 8.458609548428239 0.4564199191986268 0.8734896187344052 0.5632906503109525
