# total energy = -381166.11021167826 ev
CRYSTAL
PRIMVEC
9.27621832246141 0.00000000000000 0.00000000000000
0.00000000000000 9.27621832246141 0.00000000000000
0.00000000000000 0.00000000000000 13.57668316944829
PRIMCOORD
 96 1
Ni 0.5663140501945745 8.834976351700803 11.496694408883858 0.8931045647518555 -0.0737019576698408 -1.3613890965985522
Ni 1.0752435592120881 3.7435199026794823 12.660283742839116 -1.4153172140755754 -0.06069757499037288 0.69447090470292
Ni 3.066328143675738 6.878826005068586 6.847291501216234 -0.9427818773723247 0.7476994250097574 -0.8014750760693164
Ni 4.119178912095187 3.9918164358802173 10.036278150845572 -2.1411242098876158 1.7190729979768458 2.1558653727525323
Ni 0.5166241320342885 1.2688475097643552 5.586004109304406 0.3300188313628575 0.7077779062244713 0.7580609707497397
Ni 5.37047581697981 8.988117438360156 0.2519068373334999 1.0591962863090274 0.14315105360059863 0.29009551280535845
Ni 0.7138087028210042 6.5483792832764625 11.27405032955966 -0.5918640910732711 -1.1446052480031512 -0.850019046416291
Ni 7.946361026936564 0.3085242352634392 1.5955865271323622 -0.9490774805730493 0.5036490273889197 1.0933613622265106
Ni 6.507267084107872 7.797709629897606 2.5187056732024424 -0.26394045167654545 0.026375918890367476 -2.070121396316493
Ni 1.8272387419738456 3.0539165636920793 1.238564367750416 0.37099450244427074 -0.6017062739746734 -1.8347153046342144
Ni 7.5464818117381 5.718491696088114 2.9544356165928662 0.3191284097025988 -0.6627375781553813 0.7589423449134285
Ni 5.796096537749762 4.379525252768845 1.1135636166952665 0.6543578387321182 0.7840432537461143 1.3340168752331865
Ni 5.917104804481319 3.933274222668806 6.26831355790231 1.2656550988293365 -1.5200855541329175 3.1212228214325277
Ni 8.518202775570796 2.2790647792264846 9.769428253575095 0.48931641281633154 -0.10428754376618167 -0.3363092923572595
Ni 3.7620630629091782 0.2702013949147936 12.253296161615634 -0.18779851710664433 0.23733519038419126 -0.751409526871493
Ni 7.638780183066501 3.7041423563187728 8.249233262436144 0.7193872083286257 0.3336944804422317 -1.620008136062184
Ni 2.7845630151229552 5.189858571941087 -0.14614589049666588 -0.4691795328571403 -0.24409153527141833 0.9267939865845005
Ni 6.014959630525872 3.02126427554374 9.723702063461907 1.8380140299901442 0.3142489701231104 -0.3606481262129401
Ni 7.814054326408224 2.5038089943565853 5.973007005986191 1.535442496204962 2.8699291119857153 0.6764844954278285
Ni 7.450806896976178 7.127549244307623 10.78083658945718 1.3019655032245963 -0.4690126682619729 0.482599405807472
Ni 0.5572864346190167 6.415413971254221 -0.050401404098063735 1.4170120852794952 -2.086031639788846 -1.2110592658613273
Ni 2.7520034891568566 0.8098175614389891 3.0289848719715424 0.7169624009372169 -1.0685574158089535 -0.08563958964769122
Ni 6.230928543216107 8.01632226478167 8.526564358677874 0.13978213712836574 1.7012431688842764 1.8098666210216507
Ni 6.959000359178272 7.108236157965338 13.235188498730901 1.0232977726402055 0.2205893383844201 0.6109712442163672
P 5.4452514120831506 0.11072928931758697 10.170375161491137 -0.682887827851011 -0.18513459712123598 0.22388600685782087
Ni 4.317801296706616 0.8709589709967537 7.282628132953962 0.21385819030817363 1.3721273089516628 0.5415992813804479
P 4.732939890883493 4.824811556173593 3.1900997958162125 -2.429705600041293 0.8926901029222561 -1.3056925743671965
Ni 2.0660364277132457 3.8420147877814887 3.1640864970507616 1.0698535089125574 1.062206791000577 2.126090455482945
P 0.3922550914401909 6.233729961119743 4.406706427408692 0.20741937666136534 -0.7134446175919454 -0.28515539519126376
P 4.5257091757602295 3.580174975973773 8.083598037450939 1.2318756883860462 0.1909424620522647 -2.304958759979495
P 2.383477891555377 2.170310396768779 5.022503536097159 0.4177847233249321 0.46788781062891033 -0.6130530664460603
Ni 7.693602632770104 0.14080278879966499 10.389678874632883 -0.35231338109499966 0.39137846541726146 0.8224707044843771
Ni 6.537999195083851 8.112525923982357 4.6509232798345295 0.062439754492460205 -0.4068379945054413 1.6101093888912335
Ni 5.009899938396265 8.09189561465227 6.550817073425719 -0.6610871870361518 -0.04169583707688948 -1.0342018211472188
Ni 8.444289868762283 8.635379964175858 6.448774962474871 0.023618924970520615 -0.9999117896160973 -0.9529372206387716
Ni 3.027173226552403 6.203971853057278 9.682876499436437 -0.40880823085793466 0.10131174896730939 1.2913609882358728
Ni 0.3114360401639402 6.618424007085584 6.739601100988817 1.2757592771428738 0.058841238507924463 -0.3207680021885508
Ni 7.1901266124464565 5.95227094776835 8.790345682959865 1.6417190453767143 -1.6462213041224423 0.48597115049318246
Ni 8.847870295032106 4.289156334831028 1.3151191415091121 0.26380469742962953 1.8094858406434644 -0.5680960421193959
Ni 0.9725929283457478 4.359544278714436 5.908531723598736 -0.0577901715355908 -0.8364888731403399 1.1986539502184388
Ni 5.266563620435011 0.9034730434935555 2.4138797691625835 0.2942151914006868 -1.6641174676765729 2.5075652886332493
Ni 7.726839322666552 2.652052237793688 2.558729771973362 -1.1117002697450145 -0.877969765992946 -0.633052906606755
Ni 1.2445716466722523 8.610900024282827 7.846304954307465 1.534395028777054 0.9841540125612082 -0.6849454817109881
Ni 0.7284233846328529 1.8702711183147955 3.168499194059899 -0.24589953501443454 -0.4431041759263272 -0.8699337830623468
Ni 8.7966470179994 7.162808149776894 1.6281562569385077 -1.9850068259343365 0.3274708681300232 2.6601353215549026
Ni 9.169634476566603 3.7722947316102062 3.9986993898023955 -1.5039511104649002 1.5770961671900066 0.016980593718396563
Ni 4.674759450182817 0.7703732263070668 4.730930662016184 0.7496033269006896 -1.142933002507051 1.0953549956177717
Ni 1.580073907396434 0.9050444348606943 13.350468700709161 0.9840108021151248 0.862531834171321 -0.5527144174570029
Ni 5.082755356327246 5.694382804924042 5.288919306354754 0.7071798676291563 1.4664999075969776 -0.3616932796480029
Ni 1.127570706213446 8.401331702167125 4.566136790023891 -0.7916478055662496 -2.1715740417370406 -0.29943941591410367
Ni 3.5819003525634288 6.193870051411386 2.0918818269288426 1.2723962742079118 -0.5563299027224032 0.22084824847276155
Ni 3.8725242695200928 1.558543804898623 9.653482946750175 2.2935806000495407 -0.6205128651582152 -0.3807927194816152
Ni 2.5729075439068625 5.643243013855351 4.737040906960306 -0.8494611170302918 0.45409229950671476 -0.5808844521333157
Ni 6.5898347025193384 0.6873705532608959 6.28309892212948 -1.4993431793792436 -0.8256334184830748 -0.5630921611469012
Ni 5.560304346714926 2.0199707280130608 0.6966115218556048 0.42619145933138863 1.8616260129821294 -2.5000558676300813
Ni 2.631774424756112 2.6635269197367264 8.003386578468357 -1.5377132945170098 -1.9185024144541991 -0.47603615076765754
P 0.7905044750967046 8.784151952051726 2.4695036841207365 0.22045589813034933 0.7285120534480293 -0.8268572635878471
Ni 3.937086748358854 7.418572038647917 4.506318169184864 -0.5697960555296381 2.3717814740309993 -0.5833421696451889
P 6.607607936636446 6.746435818576231 6.866665810598796 1.2215059151159477 -1.0068267715683756 -1.7614591762525407
Ni 9.031428101247826 2.1541512246226406 0.5792627232134001 -0.8867680810108663 -0.6145715599731157 -0.2781643085854113
P 0.6289544966173309 3.7966448044481007 8.413456647007662 0.0664064524496921 -0.48499593106410666 0.11831034040783496
P 8.024160669180915 5.304679601117262 12.739382055634822 0.5973181722093068 -0.702946546274099 -0.07130671796478688
P 4.258108832435434 5.542874332672104 11.913444282166237 -1.6607498367559204 2.7001141759406853 -1.1716936195795111
Ni 5.00012280438821 5.972595141897047 8.25921261800148 -1.6199880814575263 -1.2013497518830472 -0.6333061602681416
Ni 1.7014161179840535 1.1621802764070406 9.815357592867388 -1.8025605742785409 -0.7628792180739894 0.02453526613720291
Ni 4.7458060055601266 6.809198711079542 13.756302320385586 -0.7404041768999249 -1.2474203209888646 0.013857474708382587
Ni 3.6835955329527015 8.228821871856143 8.669608281800446 0.38613212941665753 1.2759739642568413 0.530800133882415
Ni 7.287601113543827 3.173524121471818 12.505876452392194 0.6449874532608117 1.2950132402764796 1.386372248906451
Ni 6.161922755848068 5.147837303386549 11.14974251200584 0.44028393286871265 -0.01622520360961077 -0.25294718588983534
Ni 1.6952381566468961 4.241281772577171 10.545063878480613 -0.3183203119790066 -0.12886163356112 -1.6075675963059863
Ni 2.9039572198835435 2.42817998717664 11.561142790238463 -0.5263328421396807 0.3926560465781044 0.9906205941221585
Ni 5.851716742220626 1.795486246993231 11.586952012202987 -0.8316611127343936 -2.1424146465642653 0.4707479057855248
Ni 0.5182966341800684 5.866577243815409 9.068681393635249 0.02461625588678341 -0.6327747132447038 -0.4428588926847405
Ni 7.944023419944125 5.479026122636588 5.559611413213596 -1.3265727602503152 -0.6149202015617862 -0.2827861236281388
Ni 8.652476034362616 7.8438959204347025 8.723670081609686 -0.5571557410578082 0.6876947623213511 0.7181196544701116
Ni 5.298399601379642 7.625607953188478 11.53946055776178 -0.780013820871747 0.014085274448472518 -0.716189013106302
Ni 1.4599097765232574 6.062806364125057 2.2532945173785017 -2.125126548907779 -0.4406569999374153 0.9467285207248985
Ni 9.147594182066475 1.6832996637926598 11.79466230780843 -0.1107574677612415 0.5068945309094108 0.8034306571337905
Ni 4.136302810936617 2.731029959752483 3.734619371293593 -0.09231905855039585 0.3069058994944779 -1.1502267079549866
Ni 2.9914319577354855 8.570177426279644 0.9030992118991299 -0.5327726842277534 -0.4521912258292599 0.23276659717690235
Ni 3.705255502505648 3.881902526144516 5.754871168718839 -1.6935244600837802 -1.0604975216189543 0.8420028609800337
Ni 8.429086147093212 0.35028762495135146 3.9630063573202423 -1.0252533537046795 -1.1569282883448784 0.06136374781946206
Ni 8.370219266243963 4.335370454022796 10.741912650167622 0.7150728972239878 1.2996162862661296 -0.22971521194508823
Ni 2.5735754316189876 4.894290430671052 7.699337190876156 -0.31339047877755705 0.5616104343950521 0.6896215470304188
Ni 6.226652206614861 3.8953159376963624 3.982801807010173 3.3623239066170543 -1.3982116647435403 1.1070866822324028
Ni 0.003551863957954247 8.617912845260141 13.61673419623153 0.8430007061169288 -0.07989651651632693 -0.06466221606507574
Ni 8.666279047079868 1.2060753410428187 7.765780886770736 1.767408966078072 -0.06380475316078689 0.0797381365615917
Ni 6.585038897697552 1.1422549596619744 8.472339297427894 -1.1232938881198846 0.48529237925860286 0.9402763373416517
P 3.3693636406160596 1.99005492424079 13.763769676055873 1.5594375735679786 0.1839475187916703 -0.4115737094182138
Ni 2.746048157057074 7.271673846853288 12.141953714273443 0.37745182803384025 0.34427714105408447 -0.13790214649683347
P 1.8298453592947783 8.082007166025528 9.884124053805248 -0.1935873558742795 -0.13092417251710356 0.25613818202330724
Ni 2.5733156975087166 0.14422385808066138 5.852813191214698 1.708246339674987 -0.033585035044296996 0.976833310530079
P 6.854448103576019 1.7126959993443887 4.370646984306693 -2.351088978678654 -0.33592105577990533 -1.795071207880031
P 4.362438458800311 8.108333073345127 2.546986079701829 0.34686212817244133 1.6078046520174567 -0.41206427590138706
P 7.411178892723421 0.06499938871710943 13.08167729096441 -0.8601677048145185 1.1645978890749942 -1.5717791258524674
Ni 4.7479024308787405 3.760513934465777 12.707693566559954 0.09515318556508129 -2.3211999044287057 0.2686422280275889
