# total energy = -340866.718407061 ev
CRYSTAL
PRIMVEC
9.31634400523883 0.00000000000000 0.00000000000000

0.00000000000000 9.31634400523883 0.00000000000000

0.00000000000000 0.00000000000000 13.63541116215104

PRIMCOORD
 96 1
Ni 9.15586079991081 0.9203718859779246 10.717923837848652 -0.1451202615118275 3.0271096470961867 -1.2446090767923146
Ni 8.020207765084566 4.762664187989512 2.5146284827402496 0.8473088465739795 -1.2930316910700763 0.3876647640111001
Ni 2.14402617595528 2.8119801020575226 9.337993464659874 -0.15186375088324813 2.068111564975316 0.3952348630488742
Ni 7.787718396967608 5.241468378933327 7.360340425699435 0.7959626308915195 0.43318743103324747 -0.2318065472564782
Ni 3.1880902315005066 6.638398285281914 2.0015280340986212 -0.44980678475748337 1.0005962172776315 -0.8446752656058745
Ni 6.487995225418954 2.3401818019100995 6.9286163798880205 1.846791261962142 0.03120959283358496 2.6019671978546026
Ni 7.484564558517366 6.165100053727285 0.8222866199251994 0.3307004308109144 -0.5568538935466733 -2.2855009083651994
Ni 0.48810469730290706 7.3789917466759976 4.586693353257381 -0.25944976289504346 1.4131572303097792 -1.5413238946864036
Ni 0.65669046603198 2.5838600993441663 2.7263461299534373 1.7329559266065253 1.1489650676337437 -0.4479327076632221
Ni 7.522864049293917 6.273887004298381 4.593975007840439 0.0795833561512823 -1.527522470026937 1.4090645482976443
Ni 0.906606987504961 3.2188714325527377 12.146792966826588 -1.5584857511776709 -0.6737452421197945 -1.1708724092297964
Ni 0.9140311821534245 6.035165001948997 8.573278125007787 -1.6175504185503111 -0.35934560535143273 0.04830485775297487
Ni 0.8810746147435372 8.013267088697182 9.774313263037591 -0.15090164408029497 0.628494083591479 -0.6675853931659858
Ni 5.497360403540357 2.991776227695236 2.5300638017182573 0.8022029553742764 0.3824371970635736 0.27473060031351393
Ni 1.3457552279648388 4.512436500622116 0.6170298573759713 -0.13398712771314342 -0.6632235166528642 0.8808758838961475
Ni 5.102384677205494 6.50975820533966 4.708457971221261 -0.8574423354635556 -1.6438944557614785 1.4293873190153965
Ni 2.922602372425014 7.5713556205641535 11.638873337163515 -1.2197382816925637 1.5114399626427777 -1.4459207978940454
Ni 1.2623925805630944 4.413003159571735 6.7449474499895885 -0.29097097343177636 -1.663363620229684 0.40892470183114094
Ni 2.5784473033964224 2.6043001583964043 13.503407325525833 1.7193727886054515 -0.41406382282991916 -0.2623967613385094
Ni 2.4271126091190487 2.3672457816488195 6.7301530954886974 0.49246729974048736 -0.10121533259876116 -0.7196283778051542
Ni 1.1971036408009772 8.420465858549155 2.199746298646953 0.8210956785137213 -0.8148589535753903 2.082792306915942
Ni 4.994166023627191 6.745638722725083 8.231207122164239 -0.9909867192123257 -0.55203256089863 1.4857590129369056
Ni 3.5203390127128906 4.516395946883375 8.132595482667371 -0.618511004236838 0.3282877076043636 0.5091545305881812
Ni 2.4223519572613945 0.7637753205279423 10.434635240016956 0.6473775507595432 -1.0571283480364053 1.1408190414878419
P 7.899998976592756 3.008471116401531 11.486007035908845 0.09298368871758825 -0.690655901832204 0.3092324907451255
P 2.1499513708309514 7.527438374268688 13.594573342782706 -0.4688038946852765 -0.16063584064892333 2.065974721137971
P 3.531267084393964 4.657836683679674 5.9709194927310225 0.09796442976163128 -0.648373081903593 -0.10847741347781319
P 4.90103984756239 8.058190500160215 3.309546478473216 -0.7268956008905287 0.2567989555357577 -1.8184623331104617
P 9.03497191829648 2.687709387518869 7.3919060629286015 0.7893584953114406 1.6299400504639157 -0.02970935413897464
P 4.786905315452558 9.06791451119015 10.60458678479756 0.4328935539419125 0.5131795925871743 0.7715178675855938
P 6.789155366222351 3.93901551855044 4.953363231179111 0.5023994712525347 -0.2837520870858339 -0.3042458361638115
P 2.8228709083620194 3.49095526328228 11.273976359532414 1.0324598987554476 -1.408491963623626 1.2312722504740923
Ni 4.44401726922757 4.4653423809735004 10.347545123323142 -0.1608142752083166 1.5965010540791795 -0.7790203466102261
Ni 3.035590994205116 5.610367658008748 12.907825555638496 0.5328683292653532 -0.6606475283955718 0.09784821589874117
Ni 6.245052919172275 0.7976253253412524 2.8326614544230937 0.8151196634359446 -1.143742385782224 2.2219998024877605
Ni 6.288019898365038 1.181060896184772 9.321112249070696 0.6699634064798591 0.27821444509705634 0.09851541716909486
Ni 1.1346096042821014 1.1409633509884032 8.351702854055688 -1.5922379079274516 -1.6019656767381765 -0.4535392552167221
Ni 2.8234112563223794 8.234697956315047 4.227236188972043 -0.5396982077029931 0.5456238291588087 -0.8462392676588846
Ni 7.826986787535149 2.454456079182093 3.5696420375580815 -0.7969995567964661 0.14276795922956703 0.8973826233019189
Ni 7.020796947022191 8.18847957301598 9.919270919748302 -0.3579903768751189 -0.6789643244268887 -0.36922789746215123
Ni 8.583324870532826 7.963620290753073 6.955150259644939 0.04260035116902986 -0.4910722191651736 0.23741335192029434
Ni 9.105394163682016 4.334624756287104 4.813041387314522 -0.8177342182406562 0.526963533745144 -0.506528920039876
Ni 0.5041204245210942 6.522465698752264 1.446403420291616 -0.2251389054283155 -0.9487985158800499 0.11621103467664502
Ni 4.409062345998764 0.09090609125525269 12.905712608786606 -0.9818186795598123 0.9261216431078244 -1.633078338982581
Ni 2.223382795375045 0.6047825913640879 1.0576444904041362 -0.7303874160938711 -0.038401482596333865 -1.5022706374386838
Ni 6.036739464109355 4.483248394418533 12.009416019345961 1.5429210639701942 0.08469213813275737 -0.8123546990962978
Ni 5.112660604796479 6.833529113380878 11.573273231506983 0.6787462948788117 -0.10906516766048314 -0.26449966661412516
Ni 6.135017578485864 2.219935748041714 12.411756315726764 0.45390538030688926 -0.9931806415398508 1.119723654270123
Ni 1.5776390337124266 5.05072554892625 10.607599690493775 0.6925364066843686 1.3201830546738877 -0.0717484334878958
Ni 9.230438134784633 8.458420644592373 11.8707441000293 0.49956225891405576 -1.8450010028309385 1.9370529237628769
Ni 8.367930993920362 0.9798651280479738 6.331207674914017 -1.10471329690422 -1.467378967767821 -0.03939804218164828
Ni 4.690639531411183 2.235242501470532 10.707902246452804 -1.5547576515938064 -1.0380865009136058 -0.06340443239857467
Ni 6.655773267110731 0.7667844996864988 0.7550459060648853 0.9617946710294016 0.5321767025149673 -1.9977345579136496
Ni 6.451381992932493 8.469395297994165 4.716502634389724 0.48887058352816454 0.772143931205367 1.4699415862886749
Ni 8.89400631505153 0.5956413944898599 2.2307119633132384 -1.4392444143151342 0.4183583364402149 -0.9097699412226783
Ni 0.38669535965955343 6.184599162020965 12.672369863546045 1.088505576796106 -0.22022989816247232 -0.3231143909335403
P 5.329414667653986 5.559556317046621 -0.05887277355004954 -0.5888186193787278 1.337133052264665 1.603997876676857
P 2.206874233551633 1.2818171581036215 4.152446441451734 -1.2514849779765413 -0.1773374696743204 -0.8275339779398972
P 8.87407865492722 6.060235284040871 10.453438417403069 0.26492775529047924 -0.09454717654996621 -0.9669908705183604
P 3.4671613203381524 6.473247452638784 9.792516467860821 -0.38774061155435807 -0.876064321440117 0.42583844686734407
P 8.484990858091452 0.058857867399418916 8.821606209804193 -0.7882938014923521 -0.24634819251607898 -0.8335968963045257
P 8.139661929700699 2.7435422379746868 1.253293307237515 0.020242809409436104 -1.083300892666715 1.5505950355756843
P 5.9491006147454515 3.4752758560876957 8.661663213537638 0.07728993213141527 0.4181261658247509 2.595644855181001
P 1.872575856627539 4.9341221856182225 2.8249437949340903 -0.6308697829125071 -0.7158324010978317 -1.2327519203434123
Ni 7.817791555864885 7.563492626106502 2.6786082509244613 0.746972831256378 1.5214654651995796 -0.3099701402420984
Ni 4.16223512424398 9.142286886492801 8.487511860816856 0.3499333108985973 0.4437649494387777 0.11782568746193257
Ni 7.533466048929946 6.757563643229579 11.913859209093955 -1.305049541466559 -0.6063484007323751 0.46133843954616677
Ni 4.2071771683953 0.8584843434628321 4.030913800457043 -1.119263169693937 -1.045583066400967 -1.564098726489074
Ni 5.799321749940149 1.6972888415555878 5.07118703557002 2.6405861957783814 1.0570118770631989 -1.484899493150088
Ni 0.6074135269503924 2.1469701407048274 5.220617469104332 -0.03160091473473268 1.1136293684469272 -0.6644558463980685
Ni 5.600110363106053 4.4648765637662935 6.850771803122849 -0.8497562796732074 1.846369343933375 -1.661072767312978
Ni 8.82880122238671 3.784047450056853 9.793252459048208 0.38068576159010564 0.46077099707847097 -1.3391189723464423
Ni 5.8173488758590555 7.779939249607253 0.42857977966276783 -0.31541933628212776 -0.9654615783580275 -0.1454349645387689
Ni 3.1813731473725833 2.355162483293873 2.3184290699679524 -0.8349755218196071 -0.5318684272459291 1.2955099774072398
Ni 1.3523046178981677 9.33348621736294 6.05755869836826 0.19250929231875233 -0.5602215244673254 -0.5420829058850858
Ni 3.974380360921587 7.889620569216187 6.311900483309706 0.5610918428874208 2.3396892214821445 0.05285673878971542
Ni 6.5583895217720585 5.516757032048452 9.601633892691584 1.1163480529296708 -0.5975254031241064 0.37746879731470473
Ni 6.649428836748573 9.057908757579346 12.095932249240496 0.3679688282440695 0.5218997460689916 -0.1859313819909185
Ni 2.5706681560360667 6.3323656964911335 7.102699723296548 -0.22161649409735382 1.4030057436980738 -0.7113828499669104
Ni 6.52743131018109 9.121110836253177 7.400796650145353 -0.8722991979707299 -0.3850440385588014 -0.26159869091724625
Ni 6.039823174021064 5.968068691422916 2.5970278201574906 -1.4598739176400277 0.2554560683546181 -0.6520392179012706
Ni 8.388026348239267 4.105172516361136 13.304425120757683 -0.8768947877612124 0.6985360759112292 0.5268725166932345
Ni 4.380433220443829 0.019513082809896467 1.5444691220216389 -0.04202031029584376 -0.9070612840422637 1.609759975971615
Ni 4.0453429542674835 4.9091078015912135 3.34655286068256 0.5808314874081932 -1.9397189006308144 0.4662502750254873
Ni 8.921796969633494 1.0619980180226918 13.274959387498603 -1.2506331714992074 0.8885074322994763 0.9187142949001598
Ni 3.754114036321738 4.161098530258395 1.135644650116515 1.3365563538255885 1.7928891126270476 -0.92565704476658
Ni 4.14704016694489 2.3002333182200374 8.197391587824264 1.629265135884078 -1.4990166492777603 0.21838744563709486
Ni 2.5025749966865645 5.937976899837351 4.62659059705465 -1.3298563160975936 0.6372733724460058 0.6659655981743756
P 8.043321614906171 8.18433379987184 0.20091068800598771 -0.07100101379890998 0.7143856413489761 0.0703762357307175
P 0.18206745034005475 6.142908521975948 6.167800861894671 0.046455463249061926 -0.800714286643892 0.9643053532663973
P 1.571974696472791 0.8998349369465873 12.593925314217993 0.4944182528192711 -0.2104630485836956 -1.548814546636494
P 6.182353923082228 7.045848596425777 6.631036510139215 1.9124456667371579 0.20739855072575897 -1.6957962868370924
P 4.696033694670638 1.9938839737283562 0.659619524630897 0.09761321706979964 0.5747557135277586 -0.3462332363391908
P 4.220508856865561 0.9463542381615103 6.256594937932447 -0.23535826916347857 -0.05171825430989803 1.5733927501964902
P 2.1844311605084052 8.507126491777923 7.876495703585926 -0.29256017229576714 -0.8757853567471175 0.21313879564364585
P 8.41946900972573 -0.0661087780468013 4.218196540248986 0.35002149973702945 0.16995377561573957 0.2575317199367242
