# total energy = -381170.8234162925 ev
CRYSTAL
PRIMVEC
9.18965085407143 0.00000000000000 0.00000000000000
0.00000000000000 9.18965085407143 0.00000000000000
0.00000000000000 0.00000000000000 13.44998292907371
PRIMCOORD
 96 1
Ni 0.04198935176653217 0.8909256032879223 0.4881955961483713 0.8378898672529248 0.7630519962064277 0.40584297758202365
Ni 0.08603810424454116 4.8571806633215475 2.640621303261676 -0.34025387882730435 0.5588683528735406 -0.14232495815487747
Ni 0.6238734363285854 1.0850404319745222 11.242920949148337 2.706701085129584 -0.09048740465829577 0.9934014993014052
Ni 6.439022799281559 6.589806587206197 0.3099926475685189 -1.1577993780959221 0.7010899526813344 1.6361580063491692
Ni 0.12814600250450506 6.988968252996947 5.478379911309928 0.22179210044326964 1.6153613813187921 -2.913442461887318
Ni 2.510768782630793 2.834400709699419 4.677715975706953 1.859069565108863 0.2046299868416863 -0.5623056606898639
Ni 5.260036568675052 5.076142469445411 3.6685903288169404 1.7330186615236605 0.14228279206303238 -0.11369443890237838
Ni 8.249981305337686 1.003482282423622 5.532408624397771 -0.021136010647666827 -0.3744009570226584 0.9450894424595788
Ni 7.410203459657697 5.287743365395724 12.227446820203665 0.4192247982055683 -1.9040427873854435 -0.676373423771261
Ni 0.6067889567984357 7.576692360549377 2.853171490124508 -1.9986257022693517 -1.2080659875609583 0.22746498245833086
Ni 2.3172531191668098 4.061356916717834 10.632399156254397 -0.6407510465819609 -0.1297491783723959 -0.7390695172489014
Ni 6.857942213977596 3.124766101401931 11.03124561702773 -0.8495608758329498 0.5755792378703184 -1.5416493963466225
Ni 3.661781716647672 1.1471440910917035 6.082808046855449 -1.410203546998094 -0.5794623749748085 -0.397084000442471
Ni 3.2229758979371947 1.2745494077535267 10.356621415999449 -0.07155097276510904 -0.0025219950909053344 -0.11731403793283667
Ni 6.41069110631644 7.4355301368590805 11.644201748379812 -0.3333818342978194 0.8836177083073427 -0.7442556894355311
Ni 3.114243951403533 0.24663092527685676 12.486667566875987 -1.1655905920055667 -0.18266659519671766 0.0589458824065888
Ni 3.7381293342779682 8.92728612746163 1.309693388748175 -0.059728269098568106 0.6253779065600004 -0.2903459382532677
Ni 2.5961222579016394 2.0152536297368115 0.8077463993617231 -0.44894263698497516 -0.15227152784462808 -0.5828652300087703
Ni 2.048501785801618 3.339179030452252 7.171490337384001 0.1638846866035242 -0.529278812141882 -0.9224969018710436
Ni 1.7086409356786951 1.4832647533986019 8.602609337113687 -0.6031214091546451 -1.64655683308499 -0.9009543998135773
Ni 4.141830687491606 8.027711224978518 10.5220020450223 0.8845471621001476 -0.5812706318281409 0.7111589068815624
Ni 8.284028961009358 6.345582431435524 10.355168532231112 0.21263305965182092 1.1410910642023058 1.7055875618959013
Ni 6.015049076726028 7.068127903727252 4.822437351095396 0.4690682040902567 0.7797811360356506 -0.5574365055230206
Ni 4.729637501899919 7.102074473241733 6.982047527089703 1.9778388474309874 -0.5663620901474247 -1.556704233797216
P 1.9564306759029735 2.6641256727384466 12.133081054536811 0.9335359332940245 -1.6948730036918744 1.7930276950874409
Ni 0.6314034360741637 3.9570819507511787 0.5185480932922213 0.017118919068473744 -1.0415628894979803 -1.2814874378759027
P 1.3307073628978139 1.3382612557350917 6.063372854688103 -0.453934947993244 0.785358373013112 0.9468030827165759
Ni 8.66089653431442 3.495586884576908 6.906956134703757 1.6407865062601161 0.04151200320085754 0.1156253373765041
P 3.712628053714165 1.3537274377851383 2.877879703836903 -0.30271654400347864 1.123570024599407 -0.6745029462214254
P 1.0671573718025726 4.813474684812918 4.452791924239017 1.862341550991915 1.1500963530247097 1.4926071462069908
P 1.1379544404380808 4.589991570567471 8.63659726005611 -0.32732534369109434 -1.2230966566418353 1.614395160750781
Ni 5.516611614924194 1.9537932461653837 9.420341210875637 -0.4993054057082433 -2.5714505173229845 1.3870073113872887
Ni 7.533023140643363 2.961383302431175 3.650796408256331 -2.3206391468292296 0.1849962717711588 -1.2655406847386592
Ni 8.000372014283991 1.012267588448485 8.068146606819523 -1.1128043014424704 -0.48308483008432285 0.353489660791288
Ni 6.326486337377297 -0.25495674876903873 0.23142848620056894 -1.8631784450709137 1.210139068039903 -1.8791488523572413
Ni 5.842044713520929 5.106688868218053 6.091174304810507 -0.6691604509625895 2.4620536773546955 0.8776663758199142
Ni 6.2784612230614645 8.574908973148473 9.598176573429344 0.3112217532610124 1.3701113069628985 -1.3008277900757272
Ni 4.401585352866902 0.06680600335663987 8.014535103871353 1.1976933860773824 1.0951343949665333 1.2615570175005628
Ni 4.391145909724386 3.120152896773812 11.40098569728584 -0.5851427131890374 -1.0481888794549303 -0.3322574908853891
Ni 1.586933202422118 0.43256420798653655 2.251015955185629 1.432431505158359 0.18909872397530658 -0.26400035838020336
Ni 0.8433360784130725 6.680159232432613 8.594660289298304 -1.5280395188726716 1.9877224250932866 2.113320557411786
Ni 0.29678620061419786 8.795791416258945 7.148759736492266 1.3501688024027003 -0.808703989717588 -0.5622876629677348
Ni 5.084927775470275 5.400408482409137 11.318954280726278 -0.3322189243379698 0.5905859956917958 0.2733959406624904
Ni 5.009710484870375 9.288531294655533 4.136501609077571 -0.2026245263758833 -1.411728982503685 0.7283888976066035
Ni 8.723395348409706 6.169839552335647 0.5138632093890045 2.3706049372243947 2.0264949178757936 -0.15786033478631523
Ni 5.431239760352041 7.801774474008554 2.295374398890665 2.199294133360129 0.44783706262562234 1.868135017745241
Ni 4.888903337377852 1.652179722062838 0.050602811324172596 0.2985387584767052 1.6347863228126234 1.1288320443292945
Ni 8.028391259126886 4.761654244777141 8.884964110341437 0.0999161541713634 -0.4472799045705716 -0.16164859818415386
Ni 1.8775742836442384 5.828186720335267 1.2626092946592749 -0.31459144106419373 -0.5987245656385302 -0.25225890157355907
Ni 5.967143427868694 1.2612244143057738 6.31001940237107 0.04279009858233276 1.2256757302229213 0.8470391378523606
Ni 1.3779513569080875 5.715144827645056 6.816827716953288 1.408178289037949 -1.7719055683968454 -3.2962828079265813
Ni 6.936311554751689 8.506023351848919 6.686967844601883 0.1442028919038807 -1.8939254964457835 0.5164307525346202
Ni -0.03998784585417318 3.349590904642806 11.54574750713716 0.3612291955273908 1.2895385903151533 0.7047095517117928
Ni 7.357850019884009 6.235058503024405 2.7078316512470755 -0.4680456763630133 1.0039486786896323 1.1200386144073808
Ni 7.563486832560121 2.2299698172587026 12.928298284197387 -0.7887265181543964 -0.3933967813988709 1.8322097646035413
Ni 8.68651728033672 0.8670049426365427 3.296577647952189 -0.0007625891976373964 -0.47132666110713023 -0.8530012689730664
P 2.330054302527306 8.321100011746072 9.597181334263556 -2.273105877134956 1.2543838967908914 0.3629490064319749
Ni 7.293981947841332 4.634726789949306 1.1807965917852692 -1.4425716789161545 -3.6978816655202698 -0.26612228981921265
P 7.848926571512291 7.50731968776518 8.531713939216186 -0.8118409926846728 -0.4457141027453485 -1.286604447387494
Ni 3.311766302552496 4.587464416637725 2.743998440359472 -1.9991049558986154 -0.033424083986400496 0.24835056765808838
P 7.768131162965641 8.09961105169246 3.8285242518973917 0.07861585003169042 0.12834407049475316 0.66373516618196
P 5.545935790159904 3.87174685478164 12.94757173851323 1.4742456129806676 0.19841794449370342 1.534848314264389
P 8.29124283677245 2.555935915593348 1.6546168174161788 -0.3683804618601914 -0.15950326970637693 -0.6685624123672743
Ni 4.17550156748648 6.428197390811591 1.2193912866003531 -0.3693973331604799 -1.7664635714456673 -1.9472699735051948
Ni 5.231300531081175 2.310544674189665 4.329630388249037 -0.5782459860692042 1.8865304895332928 0.43416342179327155
Ni 7.911085368533394 6.122926385748904 6.841804268464769 -0.9787333557662692 -0.24951167784572512 2.111343121970441
Ni 2.828280402364106 7.178936711308631 2.896144134510978 0.3682539635846561 0.1946451077148325 0.3414167887871539
Ni 8.506133627656762 8.45227308517588 12.549143406844639 0.40214470279483 -1.4124540335951674 0.40221052303575894
Ni 3.5979687825089166 5.09072644503271 7.908374421590575 -0.6946516532551584 1.2638694676838234 -0.686744739703256
Ni 9.145145175507059 8.628319222747328 9.753981586471124 1.2681827503471967 0.48679158951194873 -0.5089128468910203
Ni 6.362500578288843 1.1649903926610383 2.4216291712906544 0.026081784688716372 -0.2854605851365084 -1.1224857903962928
Ni 7.95998349966132 4.879823962532073 4.899385052913374 0.6168917234658602 1.5046080273226088 -1.1130233594318122
Ni 2.8504274604393367 7.703151143193877 7.707781808158238 -2.7008783078002194 -0.5997974869877348 -0.9534308724457388
Ni 7.694733423195158 0.6190139490629498 11.024237589439277 -2.6406607577700587 1.7901858547632719 -0.026848744761727956
Ni 5.707793107122158 6.37669858854869 9.130143989780086 0.3613364105292164 0.4870546133653483 -0.39491964580130057
Ni 6.829849451929471 2.966841954919427 8.070150869627078 -0.7502227056522434 1.02557808403395 -0.9757567896364487
Ni 5.135121647340362 4.2139418761705825 9.274516158443694 0.20089854482371208 -0.8320876587488508 0.4549582470514358
Ni 8.932211780211972 2.4683125966110566 9.49747638156695 -0.1325802200632878 1.0008795528460053 -0.7448285312198656
Ni 4.414506001685895 3.508902688374007 6.448042441398089 -0.3348684461456749 -2.312653043299959 -0.050815025769338294
Ni 5.059610287919544 3.213924092043377 2.1816543099822163 0.025765024779245947 -0.44981244118443825 -1.436846860617235
Ni 2.8387198455066214 6.11277182177665 9.889503202590225 0.3315221553812613 0.5276623595843816 -0.22345097620293128
Ni 7.817792035097818 8.503928111499892 1.6276764375600188 1.7860170680975627 -1.446772090150747 1.1080508459178853
Ni 1.0703278012780726 2.6986144316414915 2.6633923386162874 0.9453300977154752 -0.02162786268242082 -1.4633649615124216
Ni 1.3524133177416704 7.567383244437257 11.503824320855335 -0.24175800204223527 0.09506242562348789 -0.2428296378398592
Ni 5.346198733203418 0.6139908860156799 11.565841597256373 0.5849809908001926 0.09320968868546527 -0.714289482090744
Ni 3.449721338164678 4.1380077928197 0.36437791910172257 0.712955850880985 0.0698699855182603 -0.6892114560761937
Ni 3.4177597331913785 5.446365925327904 5.085680407858807 -0.8991191463770516 0.5339610481088997 0.5677067771007771
Ni 0.24076976608997627 2.883243702923423 4.728986874633644 0.45136075950816457 -0.4930162302654219 1.7492646910688778
P 3.472677085497427 7.8228555326079645 4.737043441361674 0.823750342527749 -0.06620667773406017 2.0157237954022187
Ni 2.986351583257068 6.104501136188389 12.360130672200931 -0.1581395565896309 -0.2483446541208175 0.44797178843127367
P 4.457982238928183 7.748364224409699 12.77436336506362 0.4982021453417355 -0.27365125120640615 0.37885745013211525
Ni 1.4855621660620075 7.9543226748586875 0.6712653837143823 -0.2712166736229845 0.5376451818287064 -1.5582643791954842
P 3.781458537109798 2.283811980438277 8.26673587640937 -0.21670363017676875 -0.015002129835787066 -0.6339983012391597
P 6.785316404862018 3.3557939188340016 5.794857695344708 0.02115709369358937 -2.77299903702587 -0.04399903128876939
P 0.5841456575879098 5.400270637649333 11.994196945243548 0.02368474521144953 1.112277482404723 0.42827251023013335
Ni 1.5887711325528426 9.15174334467636 4.416785954013059 0.5749439182791647 -0.611598850498037 1.8838521713701815
