# total energy = -340867.7344164599 ev
CRYSTAL
PRIMVEC
9.31199803736707 0.00000000000000 0.00000000000000

0.00000000000000 9.31199803736707 0.00000000000000

0.00000000000000 0.00000000000000 13.62905039887170

PRIMCOORD
 96 1
Ni 4.2168265556337605 9.113708326063836 3.147206697616312 -0.9672148136037084 1.5528290671125258 0.20965957884579378
Ni 1.3591233578033863 3.8457993068545693 4.381017566976108 -0.18360016275458058 -1.1922557600015788 -0.05145754444934364
Ni 7.838895798258613 5.254853597996828 7.42863617065622 -0.2766054487387236 0.7827505030766196 0.426176289822737
Ni 2.7595361147907638 5.296869333025734 11.853130525149274 0.33074516800592074 0.6792340331485076 0.6953615348379896
Ni 8.730873463805777 3.510101778531864 6.019924561040793 0.2782103313319983 -2.3725083248946945 0.501344033404827
Ni 3.757139773784931 5.008318450636394 2.5048967355607257 0.08344438176858532 -0.8988126708802263 -0.11736828820953982
Ni 3.7424081929303807 1.2651746098630878 1.251431963197383 -1.2026417312215933 0.7270550092865286 -0.005176401994616891
Ni 8.946697641723539 7.683729975389229 10.408451323213557 1.4095844253568561 -0.29610392378296746 -2.073977022617157
Ni 8.341138411021028 1.7782098283210934 7.933906113972248 0.49504483065967647 1.0041847059598383 -0.011399757196509399
Ni 1.325078693072518 8.47827620573971 7.947440171882489 -0.4526918196147623 -0.1994453573169533 -0.49322320406990533
Ni 7.944046879807018 9.276984899201432 0.8044001866464878 0.2743814445042113 -0.7193542982081611 -1.676759067699983
Ni 2.960200359945437 7.593431530669528 9.958461124894335 2.165070436290568 -1.7124886598911087 -3.224719750976614
Ni 3.1756520579427305 7.123622606981951 1.5369750702289346 0.563343615036075 0.40943506580865613 -0.0835423407990303
Ni 4.172119653179466 6.91816268285124 3.8377220797791987 -0.46600833421801036 -0.5186768682563196 1.3148842681687938
Ni 1.9896946151653916 8.493641002459057 13.590875066110414 0.1057661851942372 0.4150218158678143 1.5651523645645689
Ni 7.128865261862554 0.6729296739177424 9.932061610531093 -0.33389399804754755 0.3716326502489019 -0.035261651415771526
Ni 1.6469944643378691 9.244467402144485 10.259567374202883 -1.7935084913786017 2.772005048543716 0.47664987309225654
Ni 9.213849552681932 1.9996584530379378 10.407075009907421 0.11478690063560876 -0.17114188238656977 -0.0352793920275844
Ni 1.2751291357376222 3.0090045415248903 12.81160703089777 0.36804056202226937 1.589345673981321 0.3109258192871484
Ni 5.362602726990503 0.2447854229340299 7.646742719286657 0.91175688974572 -1.1787047607900216 -1.1297288451119512
Ni 4.0949697496523205 0.9130982082375586 11.226180703814029 0.10328327087138342 -0.48886261310836454 -0.8333665254612744
Ni 4.72632321484731 6.290124288948425 10.787761594224177 1.5080764454871833 -1.0618157262097454 -0.30956313461166685
Ni 7.971219290005232 3.710430791758115 11.53576459611245 1.4289587161184099 0.969640906546698 -1.2350036924920667
Ni 0.0780429241364704 8.828314211000471 2.6169824620284623 0.8442559186802685 -1.063314422242459 0.433614234158021
P 1.707997363312683 7.539161206257191 11.559956235747112 -1.301510932185681 -1.1404009801138166 1.82770442053402
P 1.3794700734590066 1.1145157940313806 1.309397288420772 -0.010853397774736146 -0.29007674375228104 -3.2145500095324637
P 7.944447295721521 0.8329610157482512 12.021408572418967 -0.1574175908219418 0.14132479902513723 0.3762117849791521
P 2.025713423474746 3.174888474105769 7.356062182952036 0.00012187028984495142 -1.0696794452285385 -0.7876186298021984
P 8.336119244092709 9.089916171143877 8.221302308608132 0.6583710736565694 -2.33722301932984 0.5867509382164218
P 6.467294363119514 6.622841977907377 6.640972438036206 -1.6237835439442163 0.6250758019385493 0.03984824234518944
P 3.3851068292204722 5.307289458800854 8.96221794880968 0.9635239950156825 0.9655973326049435 0.8494027529885306
P 7.923104196278646 5.459009842405898 9.87239312087136 0.6998707355622528 -0.407047539413086 0.33801984729046297
Ni 3.70905261605238 2.7259942979525285 12.492550974221821 0.25789553103404617 1.35453479268088 0.34965845997065587
Ni 1.1311097744882754 4.2064157418566515 10.628274073077554 -0.3962285944207111 -1.0747766572457877 0.0191554898825283
Ni 0.8189716011352359 6.646392020879031 1.379137635129988 -0.35822049060805405 0.3463563921806164 -1.004689927731031
Ni 4.813520764229109 3.4481397437618426 0.876807489586262 0.2941632551168289 0.8357779631162445 -0.24810245620302432
Ni 0.8189017611501481 0.8060707590897914 12.527237235615697 -0.6419134423211784 0.03812560322712789 -0.27441692572783705
Ni 3.4597052452924055 0.8807464647452219 5.7969124518577795 -0.09983927818684095 -1.3157239904612694 -0.9175714395449681
Ni 2.053062761635184 3.3238618182973534 1.8112869764585435 0.08586738938778116 -0.2317615529511557 -0.65444139958486
Ni 6.731149826781756 5.310055122210337 2.072146770360414 -0.7869434581120447 -0.8879093937041611 0.9074811451885015
Ni 5.848204799305965 7.630279106801925 2.4222499596072584 1.0767515215839714 0.37785446278889767 -1.1002909994668082
Ni 4.381323000510892 3.768658715325435 10.147618534105918 -0.342434688528707 0.6580730828001764 1.0940054235684125
Ni 5.173047695463819 6.203112979526861 0.45905635958343644 0.0959420000149638 0.22101794128140645 -0.7400694192683255
Ni 8.828398018982577 1.7469587629937424 2.3160801454763713 -0.1126665118584963 0.16104361761030328 -0.08015079861897809
Ni 7.017847621566762 4.2839381253042665 13.563698931112993 -0.744897436784588 0.694562950196094 -0.8453895180640795
Ni 6.970663727641349 3.285570882473138 9.304075363817143 0.33310698336987793 0.5067155821293854 0.8214702882443207
Ni 1.0666521242511113 8.903992818841765 5.053964933690072 -0.19258591119295865 -0.7161255068582182 -0.2808025175392067
Ni 1.5523659405427144 4.876898222696912 6.491284863597122 -1.391408525778778 -1.1828159547449177 0.9726658094159506
Ni 1.9628108769055401 1.8928125878513995 8.849928289585488 -0.1010582381956066 -1.500325855007487 0.6882102685051888
Ni 7.034376418037574 1.1621187278673215 5.758655039226406 0.49766247078818165 0.5547440462925219 -0.42962465338265365
Ni 6.443390464223414 0.8743193237175289 2.2779866240100044 -0.8640287304318217 -0.45586353247452455 1.121549137514636
Ni 1.6153895430860725 1.3282820203885515 3.330026360981116 0.8922129061755214 -0.6871142072275327 2.011673022371613
Ni 3.998953738153419 2.93274858980687 6.56624458519191 0.43361551970960155 0.3960920688428469 0.4440763100316094
Ni 9.143711583657616 4.389713110719456 1.449558688893861 -1.2065202403403932 -1.0401079022190085 -1.6908582261055267
Ni 6.192255189845189 3.8688465019335894 5.582104212923096 0.6496421784240037 -0.23655614612632161 0.42546100892326727
Ni 9.161832731788433 7.911296582799778 12.566039400130755 -1.4063502346902748 -0.24434736003596627 2.423924731693458
P 1.8770287512215247 4.953759454285695 0.19323978913992448 -0.24269774024768526 0.24828654718937238 0.7760116416908893
P 3.470758586932324 8.524445091881844 7.175722304657755 0.05384532795522985 0.7503486897071464 0.07406242633305309
P 0.7504092221745032 5.255235389915309 3.012742377526797 0.4006012695671101 1.0636617782795488 1.9701293946018716
P 4.934232194455106 9.05258437111487 0.4295941290741381 -1.1249026273679013 -3.776042944513045 0.46925615173134666
P 2.2542484786785137 8.104790589485424 3.353809203903063 -0.3915720694853063 -0.18241668396944066 -0.04275770268250056
P 7.670935290121119 7.102279507539077 0.9627684056321026 0.37253536456882935 -0.428389752534288 -0.6181248245420129
P 0.507176109309028 6.642927957618669 6.71428393598292 -0.7577956329034949 1.8278093215430007 0.33606092379187924
P 6.329085688629483 2.48228999798766 7.3964585615267024 -1.0234116725102502 -0.05839875165386717 -0.12910563125112604
Ni 9.194638900783742 5.446047541173576 12.613618122771866 1.7410065648251436 -0.3375637335896509 0.5296307961646621
Ni 4.730020078057966 1.8624647863311858 8.93951250405769 -0.18820860806086942 1.0747627732887168 0.8687973554650587
Ni 5.4135579801106655 4.477711491930263 7.943596179103249 -0.7702716538833186 1.2025897949377353 -0.3662701003854079
Ni 3.0509271565736786 6.456930109332463 7.072387062721637 0.523240319257286 0.12663814354723996 0.500822356573402
Ni 8.320232975484704 6.663991697121192 3.1564739980375816 -0.0338647710682449 1.1501362051237094 -1.1443810478074872
Ni 6.259692679446105 8.44497650084978 11.927354598901136 0.5403646376423983 1.6613692155074744 2.3585703746573636
Ni 3.565908582616135 4.851159860192503 5.160012760647006 0.6152683289298242 -0.993066741669806 0.16715512982467987
Ni 5.934918124791155 1.377421433896427 13.550519660326998 1.2113063488751268 1.559885716848991 -0.8164106143332263
Ni 8.412766299727222 2.3149254577229175 0.044572809682925374 0.10405151649597562 -0.18607562087826665 -1.2507414149422975
Ni 1.1442769396768553 1.2891064447532223 6.591867478920974 -0.3958182463561699 1.0079495723189094 -0.0010204708447143717
Ni 9.302378717779407 3.936460919496729 8.533625790721604 1.0014441671002237 -0.7309782556003347 0.316729570453119
Ni 5.042009259442818 7.252323731502011 8.308814603522727 -1.0136322245259832 -0.8049764043543556 -0.27621721216136946
Ni 3.7409182732485045 7.963695195611757 12.142365839392474 1.5232544387792024 0.2570542660796734 1.754805932602081
Ni 3.3826019017553186 2.6001333328260468 3.791356710479016 0.2608607843099572 0.5936443229021454 0.905944396829001
Ni 1.8924028599388836 6.371557711560964 4.930309049692767 -1.2900432978657137 2.1514389615500624 -2.464592641726465
Ni 5.592469397909949 8.589731509942052 5.297284648137056 -0.08978060839925828 -0.5782722113214493 -0.09459242796560483
Ni 6.090866155493521 2.510272552012895 11.510441548719365 -0.8890918440480365 -0.1566927968407753 -0.1624824069393589
Ni 7.12598785447693 6.323489177824437 12.033224566696044 -0.6300388023707795 -1.0987989883023142 -0.3205890534085253
Ni 8.530833122517889 5.524147268497918 5.041113445234089 0.6057256795467116 -0.24546836101428696 0.7939399440345358
Ni 1.2652211698531461 5.96706314192763 9.070541628080681 -0.20005470876617806 0.8260465947610935 -0.8003412195751894
Ni 6.851200105148922 7.579603213622116 9.749649812679204 1.181074803684095 -1.8954249638094456 -1.519912261779847
Ni 7.921586340602736 3.4678532435526654 3.5499859972158854 0.30257436199865956 1.2480327577618828 1.3786196015442256
Ni 8.081156738531662 7.779634242911992 5.75763351304452 0.08554163061724622 1.0065472926547439 0.4389832117794181
Ni 5.520422469293228 2.9447517552439844 3.1663558903276248 1.2419837233543256 3.6844317106629516 -1.1184725554718415
P 5.190833611666215 8.683447457932058 10.187987907886352 -2.565673248519575 0.488773652938984 -1.8244892560308321
P 9.203233874948564 1.7978767681218577 4.628398243756005 -0.048180416359968635 0.2494628268856607 0.40252856849680996
P 5.171576399777967 1.4245867038258169 4.334065541801186 -0.25209820762597873 -2.99985235404213 2.358528722786151
P 5.392894656522647 5.112678012353803 4.117609079218427 0.39851996155804914 0.7509109899685196 -1.8648118669092788
P 5.139887670544065 4.775676804309456 12.430825464201298 -0.5704331748930047 -0.7545622135678618 -0.6880398043655958
P 7.032802690373593 2.972724997271208 1.603280220871625 0.020196015331900703 -0.28165098158243107 0.008610624487146461
P 2.2270760684802986 2.192156075936328 10.89044220270007 -0.2503742829563365 -0.12044872690707643 1.5219028098473144
P 7.360920252314753 8.59996539575694 3.7641666074845785 0.03587794484353176 0.24060949026008885 -0.07437070160209128
