# total energy = -340862.5434237553 ev
CRYSTAL
PRIMVEC
9.31828472128650 0.00000000000000 0.00000000000000

0.00000000000000 9.31828472128650 0.00000000000000

0.00000000000000 0.00000000000000 13.63825159625776

PRIMCOORD
 96 1
Ni 1.030863192817695 2.089001004767774 3.6935928463400702 0.2815720487153796 1.0892982479007305 -1.0807447019037646
Ni 0.35350217330159817 7.402426679032354 12.869558390212065 -0.7369005346220406 0.9008476990323842 0.03337934679139412
Ni 8.853469962699883 7.585689382987462 4.921676601670576 -1.1505195566050572 -1.0482945517948592 1.0282587161899066
Ni 5.205007432513541 7.8836042611157335 13.290803560995904 0.4301882391956075 -0.4102513910623644 -0.5811549321858831
Ni 5.746847047583536 0.519526050678328 8.18276033475765 -1.6006225324467207 0.9749314655216759 -3.4309502495362008
Ni 5.743194280005847 5.383993043820284 10.753774771740739 -0.4104197983194287 1.5300547495304875 -0.682375921211599
Ni 2.5888990206868083 4.207270741580242 2.7334190926068236 2.2523030814569918 -0.6757512168062297 -0.3018691084015188
Ni 6.6545225175006095 8.40323840389585 9.388981530672917 0.7717410393399935 -2.4284552725739594 1.8566753538450733
Ni 4.887216653254632 5.179876018847659 2.916308133347989 -0.07359654244022808 -0.5326662405568762 0.5849203127655862
Ni 4.3178135522285075 1.9457603333284132 2.4010964484565736 -2.128791913574508 0.7664890469124348 2.609422368581068
Ni 6.157969765766244 1.7170150820603005 9.939939087260178 1.7396114842498298 0.9170675033253561 0.5018669957878324
Ni 3.571130085984205 2.4175450844977364 12.688428641610358 1.0441648458972017 2.566459491866296 -0.0991049711239777
Ni 8.634341181177115 5.043987473986859 0.4913354441661306 -0.11917474529065927 1.3874811656999135 -0.270489822759289
Ni 1.1098449734005744 9.387799040352487 11.074614493732863 0.06123956353677195 0.10686456046473855 0.26761892896939715
Ni 5.2227494464623145 5.393451102726798 12.96629523034221 -3.2674085480943917 -0.16643959181489398 0.31049644505921364
Ni 1.4132576394646537 8.084506477888608 5.942090270096383 2.5449481001570815 1.5954980667359617 0.19114712186390304
Ni 6.937034271123985 7.596563821158794 3.510581736070161 -0.515060611659971 -0.1174708752256751 -0.43879423569706366
Ni 2.7831666187981656 0.42864109330019495 9.473552418381045 1.3760364141980819 0.6924397332055042 -0.29348268411003653
Ni 7.015568774044291 1.7358473353115982 6.162253381213856 -0.2777765862286894 -0.3278051115409903 0.7864590622764585
Ni 2.7504967128609814 6.174994271797972 7.483854509332436 -1.3694739304892156 -1.4654023036574246 -1.4770406592273013
Ni 2.9947941811881815 3.1984546102135964 5.273543416018387 -0.21036688932546352 -1.2499315174464924 0.1001238993067953
Ni 8.52437610417634 9.197985582297596 7.826719860720943 -0.10855968877897433 -0.1336449138823763 0.0663041225438729
Ni 9.017136314063462 8.843480761569062 3.0383431844390176 0.4929028446160092 0.6112838903607795 -0.5359683083469157
Ni 6.480568779897825 5.8265929275066455 1.231661044802635 1.974141086864426 -0.19797880007375582 0.056342897566102966
P 5.027354335909884 7.112162112591027 1.8706223451582802 -0.5335332165428618 2.55063178080542 1.2241322969952015
P 1.1894883521926778 4.392639377863302 6.95209914189656 2.733060291849403 0.3985950377703587 0.8618306943392383
P 8.763147829713823 7.3128593271018865 1.3314906236037867 -0.2110011804753527 -0.5865570770380608 0.7341114019126775
P 8.006596300038979 2.2853745352070853 11.887714033727102 1.9342864167613332 0.11672216998510866 0.017999007680581904
P 2.89693355593082 2.704930300986243 1.08127697636058 -0.7150199324988653 0.22477252322783225 -0.5560632793245778
P 5.20243558595374 7.4800666266275115 11.045006576127383 -0.11596677987632287 0.29246272748595437 -0.05092532609495745
P 1.5031045399342293 9.611531054485916 13.193685603024107 1.1040962321455114 -1.9616362695291958 0.516940088070871
P 9.200734476265499 8.015914584675938 9.819050185179494 0.14040228721086787 2.283236537811055 -1.450302986122141
Ni 6.148045792627881 3.166483575624184 12.004798280190514 -1.4341299759067043 3.388749190688119 0.5260291948563328
Ni 8.66335831953661 6.31309125011773 10.660312376832021 -0.3705988096677489 -1.6085692980976232 1.0235654244792953
Ni 7.371135879221439 1.5543737420067876 2.8620552165346753 -0.3303625878555214 -0.2966906495243729 -0.6203717115946606
Ni 1.1970454810332531 2.268331392606084 12.70254491100689 -0.8266366629366086 0.5050595345832011 0.09505394098305565
Ni 9.045016621697249 2.678065686377886 7.115580059395864 2.6615473714110807 -0.27227056880879563 -0.8183818791269841
Ni 3.480099763365735 5.983997391594187 0.9188946846199745 1.9896080721517733 -1.81090868913292 2.1536984470082006
Ni 0.33551695212380017 2.754913579778901 9.956837796449305 -3.3270020913873086 -1.3120709670897144 -1.2138792518086257
Ni 9.049973949124112 4.900625664847218 5.66496168950778 -1.1142952841657003 0.6073786417691024 -1.3039295689295027
Ni 8.37386717072015 5.685663190657251 2.946381033356852 -0.10035606992225943 -0.12109664490372048 -0.1313867139758189
Ni 9.24203311377651 3.035561676474885 1.421133453639813 0.5619616470868838 -0.8787290127564736 1.77232362977087
Ni 0.17659174398350705 6.790168786960847 7.245280331429257 -1.1827892152720403 -0.5247858093675348 -0.033925191992535124
Ni 8.121742343297903 0.5701094270016058 10.622902259500016 0.7440358601152411 0.8445377115867455 -1.0688700619533658
Ni 6.918872934366549 5.613772624683098 5.042225386362009 -0.8269508517429177 0.7058932876072489 -1.4811857917439264
Ni 3.3092490145470594 3.2902490321722966 8.266171096028476 -1.5580149821888394 0.671744923860314 -0.30412987941123754
Ni 8.902157999928004 4.980790867578992 8.428466727721958 0.8145607056086811 -1.188105485278631 0.39590720652555045
Ni 1.563282022119722 4.352393706516269 0.5769611616951631 0.7541204980447529 0.4954124984117404 -1.4020467222189144
Ni 1.5583153764082218 7.0352769460514635 2.23050847526466 -0.7771632387968294 -0.2410882296687203 -0.08429875934908063
Ni 5.2369505122490425 -0.2483220354619036 3.0811672251450983 -0.6845104510560985 1.0406146666520981 -0.7048977564631989
Ni 5.208939748630339 3.591024623684116 0.9519578221688387 0.09462071010037898 -0.024962326372292495 -0.2660173888102322
Ni 5.849981821945417 3.408507382499965 4.592926587850137 -1.3113451446672837 0.10505887471456746 0.18108330986999782
Ni 1.873152259437215 6.7431114495441955 9.874953370202013 -0.6857319821680254 -2.748050337500332 0.5920255563517997
Ni 4.477258720651543 7.119439692892492 4.268963376847704 -0.3151480848986121 0.17085623282535092 -0.20345370714539798
Ni 3.459981586834537 1.102129433721171 7.054126904043571 -2.3172941416163964 -0.07663070128086157 -0.34293913896895134
Ni 2.39907624434728 2.4956975377479265 10.508586475402245 3.0056584192009463 -0.7346546760106574 1.033712025994994
P 1.5593869791414723 4.410260254111795 10.172035193683742 -0.035592809502945154 2.34630621257803 -0.08676290461885704
P 7.538445679878071 0.25661996793111713 4.741529000269605 -0.09417333815031524 -1.1936806653735637 -1.2462311857767698
P 4.471835478992832 1.6052888492631412 4.539764842167812 1.8712949035304611 2.3383396494327857 1.5710455901205524
P 4.869502594159769 4.890990558532601 8.350591959353949 -1.1272657282834393 -0.9189217829252755 -0.5048898417745563
P 2.3443313221051354 7.678098811732201 4.110596333957165 0.033808978129645 0.3776559736248464 -0.6239460592094803
P 4.36900820802397 1.1114477183581315 10.813428566329634 -0.3170100778080154 1.3734766238907055 -0.509565907093987
P 6.738368442663982 3.985411702658843 2.7665195032942353 1.0187291794329165 -0.109610755751308 -1.3097081232844927
P 1.2276560460656694 0.9194435315850915 7.780540305717093 -0.16629252471406847 1.6371543088241676 -0.7063013216789449
Ni 1.6547968955393135 8.24003796676412 8.330816695697392 -0.6800164198404869 0.2452397899432486 -1.3659499764963572
Ni 2.0948901606583332 5.310136319787732 4.887621998636339 -1.4265297949619433 2.074036672210499 0.8043639675813373
Ni 3.1042747073878334 8.335373336884865 0.6183296863409504 -0.8289547695468239 -1.5958446514421032 1.2087051638068538
Ni 9.291475932060223 4.145620970422109 11.9774807969488 -0.0028593238256660433 0.6695384031272985 0.3065834831580526
Ni 7.302516031154861 8.660478969583789 0.5495365181801238 -2.048891026182807 -0.3961056956896017 0.2421747778646797
Ni 8.19567361360755 2.969625494383751 4.504537067097782 0.9815453712937676 0.8966763412635138 -0.0678185023058703
Ni 4.6759525039654575 3.527250283628756 10.113036474504824 -0.6582594877793696 -1.1136720487594045 -0.009013002131887703
Ni 7.516184297880371 2.0343399470873624 0.47603388896377735 -0.9364014277672776 0.026991698097495447 -0.6954155280043766
Ni 7.405222164423442 8.1645505429201 11.784595100449103 -1.1667113358735712 -1.7228134388558844 0.6323623082976335
Ni 2.803992984961773 0.581772192053226 4.2507703579225025 -2.000314145715368 -1.6509130531711567 0.2851348263659734
Ni 4.909310306128865 2.7601690923141464 6.6804655537583715 1.353562658575598 0.6105513830701291 0.3219784775568842
Ni 3.6457229545030754 0.28317428366106423 12.60002607525951 0.5804046842834197 -0.5287558497588765 -0.8104487403228364
Ni 5.106541118754777 6.503417213827653 6.525740096503957 0.019391774263050474 -0.18176310954584177 0.39504203031177776
Ni 1.994280641433068 0.3623592028490294 2.0267809545898596 -0.3571653098706623 1.2575481534514856 0.49290464438822207
Ni 0.21249602651818056 0.8670999312938917 5.401225347599415 -0.0919840438084803 -0.5057761010342515 1.0096051056444613
Ni -0.12379900237280587 0.31774511966418867 0.8409826431134182 1.3006467844131728 1.2338893763819654 0.26774928389967434
Ni 6.61325183484351 5.992626123168012 8.585988602195926 1.1957899984070826 1.2111675093044172 0.05929323844367853
Ni 2.8554019613038855 7.626335740573884 11.732796619809166 0.8979837472210276 -0.854749876233057 -0.01982449092509489
Ni 3.184495819827429 4.610827012637738 11.63464246858574 -0.614354044645671 1.30246866811326 0.8056492620516641
Ni 5.158732831006395 9.290711832719992 5.613409211582258 1.2708253301763661 -1.256498629141049 0.523122305622183
Ni 6.938814063489645 4.239949965802063 6.994432109002274 -0.4289332837425839 -0.22986870680381702 -0.1095297660017275
Ni 6.233093776509422 1.0236228856547764 12.353064509354605 -1.2244804243632395 -2.7813954886196806 0.832231897636199
Ni 4.2301098572254325 7.097895818811839 8.811115563539506 1.5366835677009147 0.9567568514951781 2.826507293356655
Ni 7.649911000705395 4.306119105009121 10.221228281939187 -0.7904818102826063 -2.3520742254100586 -0.028043022180145254
P 2.067811225503325 6.289413488855213 13.264249245265958 -1.2509874695148326 -0.20509844183767256 -2.062105467990552
P 3.818027355725117 8.374193310682443 7.117599331676693 0.008741236527739785 -1.4977534662946204 0.3058064957827121
P 5.658267433824587 1.045576764259456 1.3003517118324548 3.091454331920844 -1.3338034736707995 -2.939444028157402
P 7.285705845669783 7.031158264241926 6.6564076064826665 0.9943777471717453 0.001959694829532109 0.23401563909265505
P 0.7279173728139273 4.4568796321505095 3.3921873387867927 -2.008627036456437 -1.3820916192532262 0.807078538299023
P 4.162188880506625 5.041480855419517 5.0313285843075475 1.80872967920373 -0.47956576118747085 0.0045742496342437355
P 7.439634589587738 2.6177670664921124 8.294702751758386 -2.0046145728629345 -0.5339697898596482 2.06055817810809
P 7.129466167161863 5.430193099050335 12.588338150839371 3.496645020630849 -0.13457539611644564 -1.193935718807163
