# total energy = -381174.73918395553 ev
CRYSTAL
PRIMVEC
9.16395915098229 0.00000000000000 0.00000000000000

0.00000000000000 9.16395915098229 0.00000000000000

0.00000000000000 0.00000000000000 13.41238052464895

PRIMCOORD
 96 1
Ni 1.83699807725837 6.312923128670748 6.6064016680410065 1.1822055748544285 1.044343023346279 0.5653968980206778
Ni 2.7451922438794285 6.0674573202139435 2.161954816137667 -0.4385414962563093 -1.2502943001025497 1.0977443217855545
Ni 1.217486950210457 2.2003673834977953 0.044662387466435124 -0.3418315077270694 0.29974743407282567 0.8428698369660192
Ni 3.5128937535359803 2.304369155325477 0.3242822714895254 -0.22237291264740414 -1.1953320849340574 -0.20838148346431856
Ni 8.011325488498345 2.3495108178528503 0.41059210387844397 0.24834979632714002 -0.1069846309823706 0.38113801863617586
Ni 1.7547148884980606 6.72045355381383 13.550930516980056 -0.24417612456542467 -0.34161887749563097 -0.9885961074929619
Ni 5.039783454845038 5.823586040640566 1.6514123267497207 0.5098816385621929 -0.11476607470000234 0.24823615356741116
Ni 3.8120695262788056 0.9433837695656613 8.184837722892537 1.5661296408761738 1.1399111849615915 -0.15502492222004916
Ni 1.373979879763838 7.983430396997466 2.074921947375746 0.4695168615919011 0.20988686436525145 0.4977514309575621
Ni 8.88671268154084 1.3221027072978495 11.50992804781763 -0.5334583974408683 2.238025231381739 -0.8929703531668363
Ni 1.2340462243044408 3.8214442564382662 6.949651502076037 0.3909627180360815 0.3642790380973081 -0.3328789265194719
Ni 5.282289304512493 0.2164398844029679 10.197446581179035 -0.6442971120620065 2.3331197957947434 -1.1825678432898536
Ni 7.68943226114623 3.6629169279646505 11.943966141053826 0.5822170549018102 1.2249684197432515 -0.28953886897094006
Ni 7.033540216470694 2.4826081598235303 5.459375482955745 0.5382475912993956 -0.30615385181980176 1.0636453232193166
Ni 8.698310846400714 7.750225965816671 8.589784827965284 0.7502103643570693 0.8658580703310766 0.08723058828389493
Ni 8.618831829125051 2.840039220566054 9.231821882877291 0.6783164064302447 -0.018648725449438852 0.7395816809986295
Ni 5.396728825755253 4.090012405786568 12.638727118252678 -0.2208266512062068 0.09778522387128966 -0.4030353329298995
Ni 5.908810860272026 3.954679057795449 3.031587042865265 0.9052429998866023 1.0991638278409004 -0.8957384028302766
Ni 3.7805271790560653 5.055545464497308 6.409977703104601 -0.012574751341217053 -0.7483298595049047 0.47209464962140624
Ni 4.353274622815877 2.863645579208058 9.586592646293042 -0.11355559933166895 -1.2893871523389535 -1.147063479735657
Ni 8.081521415205547 7.888042746723932 1.9700376862867193 0.8091883855531742 -1.8748607665048485 -0.7868136174023999
Ni -0.09609785710379627 7.235513875038153 3.98393316443088 0.026937962041424575 -1.4286944067134297 -1.0103496971199695
Ni 3.4401044264034333 3.515624613347827 2.678975308213514 0.6495575891299975 1.0158462014581666 -1.6737930430931238
Ni 6.861752639179151 0.5145416411392548 1.648730035921105 -0.36433971613191446 2.4381820129434204 -0.5442765711022949
P 5.072113902550392 3.40196402862858 4.867754865429161 -1.980901288406395 -1.0884556973947772 0.804323344151389
Ni 2.9115272655063786 4.526317662504141 0.3661267415326622 -0.05863580736533773 -0.008086633662876395 -0.1475990620696232
P 2.433095288805382 6.5435799792217 4.381637076230863 -0.7912150889042051 1.7040914369663491 0.7632296594348726
Ni 4.309250963298723 5.47188245433564 4.081199426319946 0.5794184091107505 0.0769420618736933 -0.09064578461303098
P 2.921809227616754 4.685477304155668 8.671077392746867 1.2817409486476055 -0.37176609050297266 -1.4412123366747824
P 2.2248076624179136 1.0579790781131244 1.9617085638605867 1.8417346733748412 0.2261372647858428 -0.032769738231853245
P 3.926545703357967 8.16286071617854 7.320799176799675 0.38121900838575634 -0.7318935683257525 -0.0862841652102256
Ni 2.435257983153019 0.9153365563437209 11.085788863201424 -0.16886362787535433 0.7478043260187379 -0.8260720486823901
Ni 1.9363537218222722 2.3733829313087593 8.737066145831188 0.5254195862967919 -0.534279607790583 -0.07850452126480674
Ni 0.14990404296036805 0.7867029788507272 1.8282144224608696 -0.757204022066083 1.1016665396580962 -0.30941838150368645
Ni 4.562826875559168 0.8943080193965907 2.0695436197798642 -2.256317601933024 -1.2974650442510816 -0.07786637346017558
Ni 9.128714513457787 5.468931659505389 8.404398851765018 -0.20275179598236695 0.2503539712413624 -0.9254377296669223
Ni 6.0240843017929 7.522529074055071 13.58325454991404 1.3384003490128629 1.0516218163958793 0.0028670371351499006
Ni 8.86338124167184 6.12736212085167 10.63777481594158 -2.2559257658112437 0.0792236588190184 1.5223504389076945
Ni 1.0401001939087182 3.9090150495993665 1.8960011443206408 -0.5735244122238188 1.0620234713451773 -0.9174490550344909
Ni 6.585404288554817 2.281413437779584 10.48728794518244 -1.0860267762383102 0.7034610240166723 0.18160010160541626
Ni 6.579456879098815 4.535866507886506 9.210563330556749 0.052655678522502865 -0.613414563550537 0.5690478645097038
Ni 6.153607699714519 4.9099668102322145 5.8036177737613235 1.4522739938055829 0.5351015894712462 0.7017751516738171
Ni 1.2751465808686449 1.4839290610475215 6.062100986119902 -0.5367815482768304 0.7458106926274769 0.20792665531508706
Ni 1.6620214421999726 6.695490929225002 9.711019050163152 0.31655962053415804 2.0199555740953796 -2.5181939719916886
Ni 7.906572272024449 3.7911482076531473 7.3410386968682815 -0.3976735543973538 0.00047411142294111896 -1.7657608889516878
Ni 5.768739745426126 0.3768843131203365 6.589207331581381 -0.5195286747336537 -0.17794116469659033 0.4971505641487696
Ni 1.8672116504115877 8.910328204141946 7.750799629656341 -1.5589572914974508 -0.7669037658523502 -0.5352761673758974
Ni 7.075071279112605 8.244740690738443 10.852091411021041 2.071925796515083 -1.3147374581782842 1.5333961551988946
Ni 1.2690892039034412 4.442320813392103 9.854437759268338 -0.6225383802286762 -1.8731908350015933 1.450896910952398
Ni 1.8513854930456164 -0.05623280222629334 13.372224150567895 -0.11704587187311455 0.32774211951353877 0.055225753242524246
Ni 4.274262967454323 6.1884857280497165 12.784627427482187 0.2686728241552082 -0.9487164976892049 -0.2187962510397393
Ni 1.380797865334355 0.31530892273865163 3.9777227493487035 0.7450118508752653 -1.6290077684576332 -0.6181675048544902
Ni 5.24358074127343 7.091493093820087 6.0034214068138665 0.09767569487661887 -0.3900605179367863 0.3890968684719363
Ni 2.0385135378708226 4.531385331886528 4.450952346468541 -0.7911991480646051 -0.2748822954000298 1.1058494673911923
Ni 6.312400783002039 1.042363691806457 12.6954749349804 -0.9474597424639682 1.651503121346672 -0.5929514106001788
Ni 8.193972357323572 0.4822056950584408 3.998887829286426 -0.9016563109766084 -0.3214092353169755 0.8054733985954321
P 2.6468171429392435 7.893696909488729 11.675799373114112 0.0639253378990512 -0.6464555531659061 -0.16323059795929307
Ni 8.04663422291125 2.7494534848610015 2.806902344459886 0.021514219922691983 -1.3965029095825499 -0.2750316764937005
P 7.2480684990053685 7.968172405095705 5.508142407703142 1.4772540607896882 0.43469255482386426 -0.35323923534337875
Ni 2.4845967389482646 5.683899812076873 11.426757787816424 0.14444354715977706 0.34300290232735126 1.4902160202669947
P -0.08492057618933481 3.085697472163962 5.1076489867530706 0.41616981342932846 0.7902023313689747 0.31715328825409894
P 0.6007836602308322 0.6967074021117254 9.172485247703777 -0.37180208594723063 0.011940717301643953 1.0601064568281224
P 7.122604734965119 6.056634684516658 7.822556178598301 0.009981536692744099 -0.23840271241675717 -1.0143274508207951
Ni 4.484374221702723 6.24532060238889 8.471983966524586 0.29070717824742837 0.14862004713496985 -0.3885057718551567
Ni 2.955010251436623 3.4003603357860523 11.555530657487742 0.6009459987698812 -0.4689093099148892 0.3676924346542313
Ni 9.02213766912296 5.640636761165031 5.978488106894159 -2.2611834146657572 -0.49247758415313253 -0.9910319706279642
Ni 5.032159040873707 7.217653318751948 10.887915159935375 -0.4283689265986816 -0.7018008627054301 -0.6196965399045069
Ni 3.5255583450123975 2.6369017391928735 6.573662507759785 0.24226810890943437 0.1790865911549432 -0.3368577086615618
Ni 0.5221953797797059 8.45058154004617 11.319150914478742 0.13802041724225264 -2.0458491540326897 -0.9219235458660767
Ni 1.4910586212274437 2.501220160755949 3.6343262919680708 -1.9926658851414907 0.040468649538007724 -0.6467437738302861
Ni 8.065218731966368 9.141910614562013 13.110843294341846 2.3410249095744327 -2.741320732085982 1.0181380828161368
Ni 4.3700446679691645 9.068773056983659 12.353271625074608 -0.7117857418322838 -0.11386644570386842 0.10025939644339507
Ni 5.60091099846585 8.89482278534448 4.463639847842708 -0.3782486129035228 -0.49497489665368954 -1.6654351580467317
Ni 5.595715033656062 2.6286816678800324 0.9768826220562853 1.9299510226107728 0.35703778315386253 1.098464744891347
Ni 0.5494425793722026 8.179493301945326 5.787804445938093 0.8759146832361302 0.2816273274333472 1.5781451772798112
Ni 8.260823438959218 0.4805341889185722 6.696586938733381 -1.120106748641155 0.5093450493324324 0.6854823280510646
Ni 3.1098261764746753 9.279608264000972 5.607635511653546 1.0972918076291682 -1.2491655858147455 0.8359018902886184
Ni 6.731862682893525 6.369803822805423 3.7162484207398343 -0.8682710506479434 0.4247272160810363 0.6947311003428422
Ni 3.3889420427472565 8.242935390795713 9.440491646359238 -0.049271078320986116 -0.39931006155951226 1.3944547688042694
Ni 8.453303235898916 4.801172287795151 3.492181373177806 1.018644075918278 0.8838928163456002 0.6958996667296466
Ni 7.185341198964794 4.542867772639025 1.0315942070719526 0.47305264265930136 0.179466085981549 0.06280716513420796
Ni 3.533521825470434 1.8844857133153836 4.218689970283242 1.7690467587918113 -0.9175423860792455 0.621274168804272
Ni 8.089017533749475 6.420104794306185 13.223319895545352 0.45118695293446165 0.4162631444740831 -0.42645833983953
Ni 6.070967116549304 2.2062873010764967 7.832119686315224 0.3934374048288192 0.8129026011799677 1.2560106337610368
Ni 7.663461601056385 0.7165372932085553 9.381758916090423 -0.1776873968145714 -0.9738546875177293 -1.7042755279526969
Ni 0.5950305267077537 4.855716172359284 12.599617173605028 -0.2404997041551019 0.7625169496385642 1.5786874229365262
Ni 6.043493567167033 1.7061459052672285 3.577738844524601 -0.45189400630381527 0.8391147407989612 -0.2675317685722296
Ni 6.294082028760826 7.972195383140674 8.402118858740899 -0.5100071083964636 0.12306688125621384 0.12673995923242687
P 6.004711692255168 7.9719662841631695 2.500497124382947 -2.3413820358035355 -0.8522152827366614 -0.8852069071713335
Ni 4.5297999669622016 4.890071855025773 10.45976582681694 0.42075177637305605 1.2872580218110927 0.28316381868253165
P 0.27255172236913916 6.060547695052425 1.841707435839941 -0.48012163369094085 -0.56081030709126 -0.6700932471895039
Ni 3.836482313321624 7.85521744522717 0.7401940536256105 -1.070273884279428 0.7881691029890296 2.9097331313565307
P 4.627762689742879 1.9593094393681654 11.604378225075218 -0.10600992577392711 0.3340487784578569 0.0305516475346119
P 0.885800199768005 3.1313156605645434 11.650785430354324 -1.4626334826630358 -1.3171856626084604 -2.244207448933051
P 6.6136567744606 5.681040656837623 11.189264623776756 0.22187206175158564 -0.23808955205171256 0.6922908663324657
Ni 3.6439475326273256 8.017987686764158 3.4247575440984006 0.025315595946653176 0.26353627425959136 -0.21657198969491087
