# total energy = -381175.83107311465 ev
CRYSTAL
PRIMVEC
9.18192320162278 0.00000000000000 0.00000000000000
0.00000000000000 9.18192320162278 0.00000000000000
0.00000000000000 0.00000000000000 13.43867272859476
PRIMCOORD
 96 1
Ni 7.5391852208121 7.697555030076088 6.855832532168768 -0.04749547447780207 -1.0862784872378002 -0.7159506718432509
Ni 5.597897133866457 1.6657477572724646 5.727078527855091 1.0255716562760466 -1.7883665421663457 0.44457613248616334
Ni 3.9571976627530923 1.5137777483944355 12.040324597717746 0.6229548989408046 0.7196188647234575 -0.8627298091147398
Ni 8.459021092928111 4.447833722471387 9.149410807419073 1.1605471160443885 0.3800820665678357 0.03120805017168819
Ni 6.0942627135859535 7.270145692678747 5.149726550195531 1.3743793382106329 -0.4758703146137546 -0.4953744460849533
Ni 4.026521181998402 8.851704397241246 10.616443385419087 2.5479236378456376 -0.33484427777595877 -1.1584483245338308
Ni 7.638359171986749 6.07116099511957 12.188687947210402 0.2244308236176974 -0.7924368771264482 -0.30655108725822044
Ni 4.567510907881104 4.813825176394307 1.04243382725711 0.06179492181960971 -2.6940417444943603 -0.2286654305243352
Ni 6.556342992529028 3.637161733839811 4.705753023563946 -1.3252738389332337 0.747874517135041 0.20148449923416914
Ni 1.7211147534379239 8.089806784004516 3.437706491567207 -0.2481168543807275 0.7614746244169789 -0.4175551238126293
Ni 4.205871685497559 3.6946130265441695 3.1225424910395634 0.43849007419308356 0.7044843230748641 0.5795906730225565
Ni 5.408290422288225 3.1601516479705287 7.694097117844593 -0.4682806751919548 1.0186379052706909 -1.6217048070383167
Ni 7.4953507200336755 1.6328581088040275 3.5684644217484793 -1.030103482708129 1.0064809581931828 -0.18795149774474082
Ni 4.131241014712675 1.9077189761693716 1.0521942114899268 0.7506240548557201 -0.1791534398371366 0.0023587300401636795
Ni 1.0235548752146888 5.66559545272681 2.824123563630817 -1.3652470368920615 -0.4613052723153862 -0.9166211598165568
Ni 7.341204595385959 7.723429689312284 0.8733670776062641 -0.2204913793539751 1.91694098350435 -0.9188760172890046
Ni 6.735546585258923 3.0699208898746795 10.816478007037968 1.7509019695619845 -1.8828571544467636 1.5074220997326362
Ni 0.5619713383101802 7.6926151554596665 1.5030348983921822 1.0608376785671925 -1.1087339880278388 -1.8101705254153149
Ni 8.133136279013604 7.421546422325887 3.0748350551064796 -0.2604036421678806 -0.6179258211573294 0.20534835306494958
Ni 4.538900035567411 3.1737041664349097 9.95477748089569 -1.7641822316106588 -1.348142516001291 -0.4781210583211443
Ni 1.637522525728083 1.5007485995455487 0.9272052835790952 0.04174957313296035 -0.7618188951302751 -1.1929131910799198
Ni 0.6902519856447791 4.709187980987744 11.285003995982395 -2.2662981101845037 0.29239407903154807 -0.5263832357616418
Ni 7.170834012657917 2.0096383223445953 8.700572697940315 0.6306880059190041 0.0056178604074096795 1.3880833180602867
Ni 5.21521294378619 7.3259258753827545 8.484264035856484 0.7209872058258938 0.5188136509445 -0.06526333998418438
P 3.739090261938114 3.3468752357020017 12.94318860321481 0.267510685526307 1.2062852415114516 0.7899182244696524
Ni 5.2133398314781045 4.556501782109565 11.58929659958468 -0.7035211878306464 2.3237087868934885 1.156245660455557
P 8.17783388056144 3.9040526919727143 12.449949468303663 0.81970111215904 -0.5628607618623854 -0.2779287955358375
Ni 2.3329613797201034 1.3868835714447427 9.63761090294455 -0.27607245905338906 -0.4922379573385006 1.2281774135988526
P 0.5110897115687386 0.5462399494991883 8.490526107396258 -0.1847162786368948 -0.008941525464003957 0.7381102386594256
P 9.227281778858483 7.374342155777525 5.465010833915507 -0.7340615225113487 0.03194004324170628 -0.6181885879004126
P 9.1039869157557 0.12029971979446343 13.24998052627916 0.436877478290325 -0.17783600657729373 0.18992224831786644
Ni 4.025391805459703 3.1620431241247715 5.455187094413446 -0.9155739494989651 -1.0001046223531938 0.27267731732891104
Ni 8.819007569157463 0.4069593583161283 2.168033840993203 -0.08224239104068416 0.7382922727632446 -0.1562377115812277
Ni 2.935626082923435 8.69069019413055 0.7110159864952883 -0.0390177760240941 0.4247932934322814 1.6658480772144344
Ni 2.0611121831246226 3.900930838125906 4.08116372443294 -0.1410139526529378 -0.23874055537215014 0.6206527331701892
Ni 6.334994372867216 4.5652246090344715 9.282387090216195 -2.6267048098105987 2.869329016507871 -0.7473559256274096
Ni 6.02743667741809 5.497290802691509 6.860496030900515 1.1841814676338767 -0.21658613076229796 0.5941752557049509
Ni 6.8768839272116455 8.072875317847119 10.959681115760313 -1.4432882453672047 0.3525254971058058 0.37211421787101073
Ni 0.7088205886871354 1.1518079767800513 4.587223578539085 0.9037551024871661 -0.8062074485479792 0.010024474115537573
Ni 0.1354462201053327 2.3983917635799816 10.507066481319224 -1.6047398970492042 -0.28801163369313626 -1.2827866163033004
Ni 4.662837633285714 5.2180868857098694 5.018605015860335 -0.7826265759042457 1.571109096368636 -0.11864689781164726
Ni 2.653465586710406 1.6810999326603002 2.906784744340462 -0.13650552325962298 -0.6407896131293802 1.6109007744442774
Ni 0.19588622877185602 5.211751358785463 0.5379863188436109 -0.07187596020469557 -0.8657012330382381 -0.037827612370734856
Ni 0.5705178723119728 7.117477857646725 12.668784077426485 0.4436713612837068 1.024806753085564 -0.7757465609549608
Ni 2.5106040455265948 8.27754956519774 9.011812344544058 -0.33785221136434723 -1.7936241910208592 1.3616721750566096
Ni 5.794684109292348 8.617950999499909 2.8986541514541417 0.6873828875078871 -0.7193414426923547 -0.27160568153128706
Ni 6.310304181708191 3.512866041121433 13.349077349299945 -0.10409573947034975 -1.4656635277386112 -0.0560014550662842
Ni -0.09721269240500559 -0.23066735339453592 10.824904257847429 0.909457295078266 1.387401461501914 0.6343315162088624
Ni 4.081208715856027 6.299910244782933 10.313159875163167 -0.3567652462187662 0.04301995520495172 -0.03641761939708567
Ni 9.37694712504372 6.838632035665161 9.957155598973111 -1.0012721602987336 -0.5331519219440432 -0.31552989371806306
Ni 8.194159339795634 5.638921966182754 4.583380025538279 -0.3187982800566897 -0.002603499061118097 0.7239000085973145
Ni 2.4786784989814374 6.022129525878516 0.7956806628207389 -1.0257449486291175 0.43549062524512744 0.814420580486391
Ni 3.9131060681284597 5.209180420323386 8.179098231369398 0.9178072097048582 -1.4001101673178338 1.106710786950223
Ni 7.060100020326997 5.529087802313563 1.0934917469216656 -0.1812738286142491 -1.5251377718448442 0.11685818134234069
Ni 0.38485571488841513 2.724653036340722 2.7736211503125316 0.5561540392661712 0.044761620486406785 -1.0987557937692045
Ni 3.5080914411204316 7.189941594585001 12.578987624292267 1.2679001861097712 -0.27821727331053375 -1.3680505677791277
P 2.226304161236194 3.5121773968905194 10.080818657191358 0.011658924395167018 0.3373305345329222 -0.15742093325605147
Ni 2.7098517763376173 4.99743609220205 12.026241364099407 1.29294710177607 -0.5256543280154173 0.24293608151073645
P 8.144531045554455 4.248732902429626 3.0140791882860443 -0.5709846765211005 0.46003334758149805 -0.7157640097537415
Ni 9.128172101145386 5.410631812673332 6.768213112996545 -0.4461187943829349 -0.5071441850263718 0.5070004603596558
P 7.458072112333548 6.48597273405273 8.714454847443227 -0.2661644559110577 -0.5538282193464719 0.08622451561688375
P 7.4224462507876146 3.541173909973524 7.047764106670564 0.9332873076183281 0.27653757161526565 -1.3347645520324884
P 1.8454012642332236 2.627076739781794 5.94228535916946 -0.3795763305760108 -1.1390858608468188 -0.04670177493191312
Ni 8.746507104526872 3.104848925266621 5.00590549804998 0.9436838203613038 0.9481056035780833 1.8777774259310114
Ni 2.258091978935169 -0.046657023932863154 11.919847666807861 -2.533084001729644 0.04466983210354888 0.5514617759968246
Ni 7.42152805847973 1.2462532375690916 12.305698702158022 -0.38537648219755566 -0.8083219237878209 -0.5862025219121195
Ni 7.65653937968287 8.68014934643603 8.846073123816987 0.4754175433470522 1.432455673528075 0.9038682310262627
Ni 2.4809005243665183 4.6363845128955505 6.418377252730859 -0.7288565812716414 0.6280667662460733 0.5489680630406932
Ni 6.5957334425372895 1.3154206641220612 1.2486570650311344 -0.08647982616079945 -1.4218473018846094 -0.27749710731505756
Ni 4.044802390848391 7.722236039312034 4.683968911059377 -1.8255426369960108 -0.49765552880964614 -0.11861141658802153
Ni 0.2854329335983306 2.76064617480981 7.84122366229853 0.6567934447568043 -0.6420651374076941 -0.9079961371517072
Ni 1.9199676615565562 6.213508348610964 4.83917187505347 -0.13618593513667512 0.02591646275544569 1.5443505973278695
Ni 1.4727437341550593 5.085242822605083 8.748764021219653 1.2650364914087309 0.1153294034026401 -0.3040247212919409
Ni 7.715909694310707 8.957829064186582 4.667547041632856 0.5863074229211 -0.6187511452721022 1.1417628934583497
Ni 6.328732301327441 3.3238469726202484 2.232002462698928 0.18646668566909821 1.0388300639478496 0.3895496397386388
Ni 4.979770072198344 1.5923199184109094 3.4025241169059814 0.7738079491713511 -0.34808725882879404 -0.14957778306254882
Ni 4.737367302916732 6.903630869140332 1.1200073043887657 1.425554061312235 2.9178341631971105 0.8912019484125038
Ni 3.0611154256420634 2.807685166742753 7.969496045902358 -0.7573888843833795 1.4995735502224947 -0.7229574421783871
Ni 3.4190726968709906 5.98963470010247 3.0562361517179637 0.5382866720674472 -0.040992897472593916 -0.8664052010837981
Ni 3.4743937834210556 0.7302695609993267 5.098027732300071 -0.32162109421746543 1.073763385489925 -0.10476885427797439
Ni 1.8360173388466399 8.399228409838647 5.797779335562228 -0.0250163195386795 0.45034800197293406 -1.6314801412575255
Ni 4.786747685234781 1.0467575948349404 8.285089760430091 0.10227719820437225 -1.42819098471445 -0.08559948043837516
Ni 1.7324085188249083 2.467283732440585 12.040915913564023 0.9972339856736179 0.42740810534730905 1.3697534094028474
Ni 2.646606690170506 0.5651427745416147 7.355119799811955 -0.3630027424880458 0.9944114286231585 -0.2679176911567386
Ni 5.177089599162809 9.001535018041903 12.875833688277607 0.9868223034219907 -0.02800728384620338 0.9363345790850842
Ni 2.41100772589032 3.8185230784932367 1.661342270579233 -0.869979805808934 -0.19373519430605343 -1.0889267234939246
Ni 3.167781826049052 6.964938569537807 7.05358269132563 0.342140811437372 0.5862899394196031 -0.7685060773424636
Ni 7.573470521588522 0.9836777832832478 6.719040242140077 1.1543705549200314 0.08814178724425466 -0.29958802567682596
P 5.747039110436201 6.954838454151074 12.585316723870518 0.015022698661077355 -0.4021943250858428 -0.04444820301104603
Ni 6.107200043204052 5.940098225092079 3.1731798786271077 -0.7579946362881784 -0.42990850317165963 -0.1443684709474675
P 3.6374555553783345 8.794565289921568 2.7834981449684495 0.6190524785626048 0.7247620994872938 -0.12605553157089258
Ni 8.784758996073357 2.3203545993328443 0.4783295282157134 -0.9634481474724246 1.1018727421316314 -0.3311478027609781
P 5.131216711460879 8.589229944109269 6.667638000360064 -0.30599932851980854 0.43533995859987606 -0.5771722933890511
P 2.042601426197663 6.957317573382363 11.04345790012404 0.1902562346185175 0.5143317039137465 -1.2090201239441114
P 5.877725421617458 0.8675181926050374 10.136884397703117 0.7495133382900446 -0.12165585984130017 1.4545473632207917
Ni 0.7929012947047712 7.604936971979737 7.602391742902281 -1.2657409736749232 -0.39246758471638216 1.1188137408613443
