# total energy = -381168.2800267471 ev
CRYSTAL
PRIMVEC
9.24133636192152 0.00000000000000 0.00000000000000
0.00000000000000 9.24133636192152 0.00000000000000
0.00000000000000 0.00000000000000 13.52562989426411
PRIMCOORD
 96 1
Ni 1.3003114865220022 6.9003673071061735 8.37456932507168 -0.940134926667781 -0.581262918518657 1.5714492533168742
Ni 7.020255164870945 2.239406855226104 8.122979485024564 -1.55252593404981 0.22793960810190422 -2.267580319331037
Ni 0.3958036677490043 0.5105616596504269 5.911092405612668 1.8418377746116086 1.0655050021358747 -0.4473367259504361
Ni 4.595753581889456 2.722802682248355 9.120237977077153 -0.0033203226224846043 0.7034191150351434 -0.18460083610495304
Ni 2.4929336793931234 5.521578391451476 4.7198231443978145 0.7168760118709976 -0.2322168953210194 2.412432671893458
Ni 6.3416176226713 1.0311298384088237 2.1842942970397345 2.225290300313574 0.5352923653258136 -1.1161127969904132
Ni 4.419308745051193 9.148220743847501 6.201149308632564 0.25308679679149315 -0.4406235755963186 0.9833124904965194
Ni 5.864339560378893 2.894682298880359 11.141711015473092 0.6275407185392741 1.330106998655819 0.6001530705549406
Ni 6.21697047663482 8.43588928895146 4.872892020686013 -0.24868455395873945 -1.6472456316218984 0.685355315554897
Ni 8.464167778488205 4.946175818733853 0.39624817603224527 -0.4398375893599135 -1.072125592776186 -0.17491291939322778
Ni 3.3470549594402392 8.00560342250688 13.301063869568146 -0.021654859265614317 -0.9257488331494379 1.4068778250589706
Ni 2.9560817382536064 1.0411104817747339 4.887256754063763 -1.8367927559885335 0.3316208857426547 -0.8539356078618778
Ni 0.43745252286148956 4.602971065656841 4.601757678180967 -1.8282528368383222 0.2569390806580478 0.6803375506253315
Ni 0.5082236015285979 1.7772938260480111 3.7160180896041046 0.14586973808334233 0.6898352057031216 0.4401291524584033
Ni 8.664935812862648 -0.012562672770016985 1.7408700225643088 -0.5247305306495672 2.2161114620277833 1.5271193210512475
Ni 7.858111692766207 0.5999410933930878 4.3025296728681734 -0.6344132772893912 0.6486469043902701 -0.3239507707919066
Ni 2.2680457568843964 5.159835517455932 7.511567120696194 0.2896244867062109 -0.8194018357510663 -1.8848158208350316
Ni 4.889544908968762 8.271827842956085 8.908615993042282 0.822498472398519 1.423818052457735 1.5559313601869333
Ni 2.3472624929330834 3.5184078198945974 3.5177054783244044 1.6133903736353503 -0.623297626992204 0.4127160505527731
Ni 7.439968942416819 0.8390153914860822 10.946360252525588 0.40245066407102303 0.5167475124440907 0.7376428121047038
Ni 3.5229822814373066 7.203714176074694 7.379326368498819 -0.39052588760897905 -0.4291428286502287 -0.2897784957855719
Ni 3.051840466547645 1.151498245668991 7.53546706502297 -2.260674336239823 0.9414814133933462 -0.42115286846621663
Ni 4.775211094410392 5.713086606703104 5.746445058886369 -1.827118466123563 0.9480217856150254 -0.10955264881986293
Ni 0.8046043510811717 6.702159122928356 3.452349822816947 0.876548203055071 -0.25167808936942465 -1.2068933074090955
P 5.57575110572089 1.0939339609224588 10.130128451923133 -1.7362842196488095 -2.1675505223999445 -1.384002463122694
Ni 1.3017346523352895 7.2686253232989095 6.034175917521821 0.012196799176508026 0.22828619280804555 -0.6389019091883642
P 3.045621047116851 5.921848397106726 12.488795678169058 0.2855197205092179 -0.8760386104085043 -0.7107958671151887
Ni 7.326365193437991 4.805485712620319 9.037528015850397 -1.4421297062827292 -0.10019254776120165 -1.0270685525365473
P 3.8942344906398167 3.7614826925367613 5.348061210000548 -0.37350827000506 -0.5120110262003698 -0.7791548153055614
P 6.406935388699312 0.5028497643829712 6.686422051087792 -0.13488829937117414 0.798539133369444 0.011225179291858086
P 1.295579922259645 8.790553299226369 3.9892899532300166 0.23225829008191615 0.8452902734820539 0.8170045391634833
Ni 1.0293462604739898 2.8726232287744073 0.5558922632045591 -1.87235625491544 -1.229370148355373 -0.7870103067942382
Ni 0.35034368548457323 1.613223138716187 8.456264587556236 0.9950804296657251 -1.2980018905911581 -0.8887300898332436
Ni 2.8886754301879134 1.4623490798348444 13.259621096258495 -0.7285693890485259 -0.5546458301517608 0.09940733285574492
Ni 4.7355934850495975 9.246141944870821 3.3144690829841874 -1.1022584076058242 -1.1612932501817936 0.6302385770864114
Ni 7.67324799842207 5.596442458032254 2.910850941133133 0.5671408772949781 -0.879233206086402 -0.7352257180227789
Ni 5.56576122101853 8.047438952615654 1.0377300009013544 -0.9124690853213963 1.3559985217106003 0.11867517994642143
Ni 0.25001234391511584 8.96825495782182 9.794003486700403 -0.34738920432050496 -1.1015127876890514 1.0072265781099559
Ni 6.574758058629802 3.478448281085157 1.4330133814082284 0.6595761497082642 1.4381226420058653 0.6391600479457572
Ni 0.47660714126614234 4.974592928317348 9.652836527626052 0.6496915436047005 0.18404804892527657 0.08379482312946859
Ni 4.807528047975751 0.26303985590856366 12.32243036699672 0.10350412863293787 0.6688282644341513 -1.3815689139805367
Ni 7.222030504918429 9.291794146933409 8.775537051628898 -0.9242290540708018 -0.06854869560367549 1.0115311190225804
Ni 3.796932459158642 7.439127980799877 10.919092765196465 1.4228178933279947 -0.20906976778059475 0.4460974542266962
Ni 5.431706394476035 5.793079615013585 1.3864037768894275 0.4124707673111864 -1.091134786888837 0.2757996650079766
Ni 1.7101370340664652 3.0923360028711806 6.0865742951928485 0.5641100608884544 -0.3604902604788372 -0.051306363583460024
Ni 3.3330266107092656 5.931764351117487 2.6728403208655247 -0.1424044052425612 -0.33849935803004283 -1.1604221604307499
Ni 2.3120345183860005 9.012252960659875 11.55670431836035 -1.1940943558722146 0.8853375192119267 0.440426629094164
Ni 2.227189808439314 1.5382851414438112 2.189705099531161 0.4519986502024796 -0.4446036432899892 -0.7518435290851181
Ni 2.8134324688126897 9.035661265887514 9.185282199546247 -1.219230745928526 -2.17908269140926 1.1806138048872763
Ni 8.116397805204933 8.460757725338185 6.94746670245682 0.8598943965484739 -0.7595972048886079 -0.8413446585707446
Ni 7.174511552892957 7.816229955975184 2.730472991501786 -0.7843535858976813 0.4889207200398096 0.3795508766547141
Ni 6.906559002527617 2.1856500010969375 13.152404034900204 0.8254418712975591 0.3707466480995228 0.09454203434364364
Ni 0.5627511831176873 4.290854168397349 2.2916878679242183 -0.34078506874042597 0.7948112908958956 -0.26986478758078036
Ni 0.8975102788131208 8.730798817741206 0.236765812247805 1.424129927271199 -0.4080189021874199 -1.5558675968285334
Ni 8.265201804721494 3.5162915538475668 11.796121470035636 2.151944954652204 -1.6929259072678329 1.387139723200095
Ni 4.701613090923253 2.3903918101448456 6.833526568831214 0.7527902092691036 0.5566726307738026 -0.13453220158333606
P 8.682688420182938 8.031728680650795 11.906206118094333 -0.4684542246553416 0.37629148917715194 -0.0821079223453489
Ni 2.567187817768205 8.194043514057135 2.1806430450083725 -0.6057789013821503 0.4067444063503705 -0.08195082794219435
P 6.7051255919287795 4.583859981878413 12.537272032650742 -2.282335109042708 1.0719983231697021 1.5286835802145737
Ni 2.9421180788777823 1.6365575132522272 10.461507066745186 0.15619066039337617 0.9550493818857682 0.5999604949281604
P 4.108365497520841 0.631708187439677 1.472413819362449 -0.5075843578875839 -0.26605389847512245 -2.5295302229401146
P 5.2856840372309 6.793426561707736 3.3803662808076096 0.17976819060300006 -0.31024679094225277 0.3390151213241968
P 0.9467934019668824 2.6873159502806745 10.619905421764052 1.1582565202379989 0.07802501052522692 -0.6223938842310119
Ni 6.4308242434223475 7.859664237289793 10.803948485431436 0.2631027862665985 1.2186674172258884 1.0925661200187249
Ni 4.706520240578159 2.8269248200295687 0.04110361626194022 0.42640357534219464 0.19946489770097905 -1.0562104642078263
Ni 3.3096460294909757 5.424609048082499 9.807272197575191 -0.13018343769633708 0.15819303553538563 -1.2671249985066435
Ni 0.022450902771428027 3.6858423536941913 7.7765069953788615 -0.9264833973226172 1.4211479618247396 -2.4302082507093243
Ni 5.431050259588091 6.52507663387505 12.663032759729436 -0.39670347717460064 0.549093275764648 1.7683399625327738
Ni 4.6265087495947785 2.5648220356370266 2.387882787298693 -2.181844056204481 -0.3837597725297391 0.06821830884745025
Ni 1.3157167943840136 4.374765503362594 11.917473155494074 0.9945260998241516 -0.9011307774904417 0.15482540461473338
Ni 7.35193597139491 3.1955247656709522 3.830079284737204 0.7308201327559155 -0.47488455366171767 0.09156803931698423
Ni 2.238270170842764 3.3455301389260033 8.801371207674642 0.002644122491066414 -1.1104345156587134 0.5953983294787747
Ni 2.907287481798045 4.089393033789161 0.7935110508066914 0.4253087996161191 1.316007068919327 0.10892581386914142
Ni 5.682830471166077 5.713862878964897 10.694215008157833 -0.6722329192403261 -2.3201082140264235 -2.7603391821700134
Ni 8.008006169983858 5.675594504725791 11.13197249512217 0.7074215513263171 2.2547530856593814 1.083953181538733
Ni 0.7442824515379842 6.343558303325782 12.723181846281008 -0.10617036261119135 1.27514786881112 2.098445182961851
Ni 0.2612091471578351 1.034780166306541 11.818762744337931 0.924023622928215 0.5252393519651857 1.5808692610791935
Ni 3.6752979888048363 3.7161631785863687 11.330095659004646 -0.42153776260946113 0.5492938218112282 1.051241036017693
Ni 3.492929455302177 7.711830578100473 4.526095160130917 -0.7028311037421574 -0.6667952931645226 0.6352005490773771
Ni 7.945747286320769 7.03742556799489 9.190584878401209 0.543257128698845 0.6923255762251431 0.2713673402682359
Ni 8.221924626126533 2.8903943187675973 9.741023828966672 0.3679554585076308 -0.6733896585525886 1.0572319634938052
Ni 8.423053072622524 7.485815212544856 4.699682575738866 0.039890151326718394 0.46493361309659287 1.108418256559633
Ni 6.9012544754053655 5.750107400521471 5.109861142335716 0.9546022670460205 0.010376201028001486 -0.7248875693215644
Ni 8.114678916625248 7.267867533710017 0.5810693602287126 -0.34937435307133374 -0.25948755811151436 -0.32996740929963175
Ni 6.025268193317745 7.354116926797091 7.266604243017314 0.6226042004696051 0.049174919062754015 -1.7673709137512852
Ni 5.216586564594871 1.755530478708457 4.721229675805492 1.3546592340738866 0.9062063922411361 -0.6075804733672633
Ni 6.204171225651686 4.232070027239428 6.784415334535422 0.9261332130720501 -0.4494874537448517 0.771754151966116
Ni 1.4721633791446562 7.0546236951281855 10.77336705485137 -0.24152763119898402 -0.7293682308007374 -1.556419098456629
P 1.1150781387198687 8.826280305941747 7.816745622549089 -0.06695255476114922 1.7901604008419751 -1.7202521058866114
Ni 5.42789896385867 4.335360444740148 3.3870339050562244 -1.0006962331906057 1.926512686353185 1.699358293156738
P 5.311485848599067 5.65463515365738 8.238988753881305 -0.8917405945247934 -0.6999249858389559 1.0402266871850603
Ni 6.913730279612753 9.29743136216786 13.149738833468048 1.786867846133632 -2.307638363694187 0.4527542974215816
P 8.541831970013305 3.0721529240645626 5.581039922571177 0.8863405065551446 -0.7121834914913348 1.348388570573826
P 8.305457066297333 2.2750414485769834 2.0483616309306174 1.0077282003367225 -0.3145271634851616 -0.7827996111470003
P 1.2146812629770725 6.475857275942792 1.360691606484824 -0.2034861030452302 -0.25175445113331485 -0.3281946336699251
Ni 8.082038516284143 6.137190019062689 7.153813731646078 1.2754484307706744 -1.3601557384120833 -1.15699925079213
