# total energy = -381176.3053120242 ev
CRYSTAL
PRIMVEC
9.13619349290651 0.00000000000000 0.00000000000000

0.00000000000000 9.13619349290651 0.00000000000000

0.00000000000000 0.00000000000000 13.37174267746338

PRIMCOORD
 96 1
Ni 8.0469127347975 0.6135949915477216 7.131899181517505 0.19119931525807715 0.07067859746248473 0.23142962353303367
Ni 0.31721047254481705 5.604058990580062 4.012030643556014 0.5997910592298316 -0.5247989219936575 -0.2812126084934318
Ni 2.344785841028629 7.268856206814892 1.6619741323811559 0.6642342173055656 0.6187652863394891 2.4838005821134836
Ni 0.9162597301008392 2.6525659344350547 1.1594186118392233 -0.8934807171443516 -0.8810306643064569 1.8404192969975273
Ni 3.7164665547474782 8.718304201318457 8.846423786448662 0.27763517555481865 0.7305825628238127 0.6028725263686326
Ni 7.764640894204857 3.6020448648335 6.8792532762397824 -0.5250272359543797 0.49461597065237395 -0.1795938698086649
Ni 0.6825202640684043 3.3068909911221493 12.469270850720452 -0.487679905654173 2.441408233190202 -0.7939738825962648
Ni 3.3775685855947244 1.0835434367700287 10.805104031851005 0.274286827907876 -0.4310045644493158 0.43587886182248164
Ni 8.256935555600958 6.035460920957586 7.956842655574731 -0.5109149649227136 1.163315165707829 0.34811322697072306
Ni 5.114377280582507 7.083491972811004 2.4143214112885527 -1.3716606537278893 -1.0930312325806013 -1.0086368281939209
Ni 2.1543236109394646 3.0252769564759943 10.373785240836163 -1.222706106071636 0.44814456656371204 -0.6233842731687392
Ni 0.6563578597856139 2.244881562905877 6.766022032365073 0.06808178326958597 -0.11064279656024817 0.5065780281102567
Ni 0.25659822267286697 7.947995165594478 3.321046609642807 -0.8183463979033584 0.23712384570433356 0.13124787440510943
Ni 2.8388894687775705 1.1154927061431668 1.0685344977576778 -0.5910462231576661 -0.7946986765774313 0.8590333340997593
Ni 0.8477117823800164 4.982249647275581 6.839887244820001 -0.01841192684828442 0.5081625989885572 -2.4636385053433116
Ni 8.863688451685842 6.927756414980146 10.18666046230605 -0.5233007401815761 0.843249074682309 -0.04431939074266561
Ni 8.291543457341149 8.088793046723854 13.05856356702295 -0.26574922275051005 0.11841447008586702 1.3277181867086683
Ni 6.645850022135552 7.374406652644993 11.545109226687435 1.9930487224022062 -0.3479705307452717 -1.1007607400143753
Ni 4.336412114536912 7.85746462220917 11.054179512630293 0.016233174029410755 1.1882116718391924 0.25404710382223344
Ni 8.471873648615668 2.7016181584168617 10.772009083787735 -1.099020617394817 -1.0248039248720868 -0.4700670776684162
Ni 6.285518542559756 6.046360400043132 0.13644539845011908 1.5943297574594735 1.5954700417115038 0.683513634360468
Ni 3.6251502987038653 8.27624946908532 4.3468730563247995 1.753616283169354 -0.524748014151064 -1.627317268129088
Ni 7.124211988137305 8.778813212201584 9.00886439683684 0.17609922639184508 0.4460956544544833 1.8053620482830777
Ni 6.182142510830542 6.73832657477922 9.352237273664446 0.7650625988785533 0.39645253750605913 -3.1076430258655643
P 5.445034403016767 0.6885227433301006 10.146585462255054 -0.3562836785966574 -0.3384304524653204 -1.1863566209083245
Ni 7.692318784866063 6.158388407207392 5.467344988035127 0.5927207826466114 -0.7564154647265167 0.4791237885540458
P 2.2859761621739283 1.0258849183216805 7.828741342831929 0.4052554805096698 0.5357266246497547 -0.25729029334987946
Ni 7.131137222962825 8.02325912930506 1.8508494056244196 1.21029333422958 -0.12795814791024415 -0.6237303436542484
P 5.374841026810357 -0.44005938752879253 5.534965612095277 -0.8068196282106814 2.0307449514013993 -0.49959979702021057
P 3.893617350613977 6.64930350335461 9.293762893118581 -0.6638722059804566 -1.0803919465500362 -0.3975614542995217
P 3.167966029701521 9.090960406197189 12.697968051449187 0.3231586139079144 -1.451832278282474 -0.39441390980947555
Ni 1.0486614492188018 2.067420136453537 3.643211640031791 -0.5861739826670291 -0.47897466457069127 -0.08540279104653678
Ni 0.8839596308895746 1.1411836828309747 9.64408841335281 -0.5003089072720932 1.2525913236668427 -1.7314004091939472
Ni 8.66329517904346 9.084281848601604 11.124568403381911 0.3925094936979111 0.15513008033934575 -0.9468182522252274
Ni 4.3891462245803075 1.8393076521216787 12.89278093697887 1.9545896470950594 -0.7196448328653865 -1.032422617759609
Ni 6.148402547491967 4.148626789202203 4.835128606485595 1.653239130201172 -0.24180171079597715 0.6258463615559867
Ni 2.361039129623085 3.568779983567388 5.277866726007583 0.34684670155347364 0.08508423136485348 -0.5029244905180693
Ni 3.58530735797288 1.4211806111920153 3.280382325098083 -0.8036363453866935 0.36409031912526973 0.5339607909985836
Ni 2.9440927392470253 5.831778618582768 4.464557281009481 0.40695266570643457 -0.379516680982669 -0.4945591492725095
Ni 3.488765199132174 8.541728985655135 6.612152998907372 0.31170306377280516 0.5191761764902414 0.4536143314290316
Ni 1.5966320750300884 5.945259280545521 8.862670679707527 -0.41913480959492333 -1.2219144634082761 2.326087057317678
Ni 6.6482802496600755 7.779213123158289 6.785356959094948 0.8373172825789063 -0.5900941436570418 1.5484237389559785
Ni 2.3322783918516694 6.1933252119208255 11.282367827369873 0.5722437457391821 -1.423732434722464 -0.9504381083660018
Ni 7.482844135684677 4.959802019351703 10.64900211265273 0.19506188353727696 0.5495182791172085 0.9155035012723458
Ni 5.730503911404834 8.565044551980629 -0.2450345423052431 -1.129562751847732 0.5657941334590966 1.5420738854785505
Ni 1.755839386467407 8.419367943414805 10.614569625831601 0.8049478651092653 -1.0991859393280876 0.9928003753822966
Ni 1.5803879226293338 7.564549115954615 12.925902380003873 -2.026936890509219 1.3488264294421932 -0.32307093929011454
Ni 8.16203791162647 1.5344145959248354 13.333298961431463 1.2491236768332163 -0.12387652164170278 1.501837406556007
Ni 5.427209689105703 3.1096771138877894 10.885561921680727 -0.06782672983598641 -0.7756005222953998 0.2714424164805454
Ni 1.3635769099058743 1.169578972854341 12.051443476944188 -0.13679682924779668 -0.2469151207631425 1.4348141464579225
Ni 8.400931104525759 4.5213834922116485 0.9709133544408587 0.29329499357926264 -1.5104122927092118 1.5656120778098068
Ni 2.4350057538280963 3.573567349066823 7.743602980969076 0.8315816656467098 -0.6773342450226335 0.46604381544163603
Ni 5.242238311430967 0.2904368569034156 2.0401805749333737 -0.16723689090520877 0.41316573649568206 -0.2714444733630744
Ni 6.310917161049125 4.724956160262051 2.3302940105797667 -0.26258110943517354 0.6583618176851888 -0.40652226303723543
Ni 1.6906800529903636 5.278847039591723 0.43169702943407334 0.008900902034055639 -0.43215821843778474 0.0246350249398608
Ni 5.3511051955746085 3.168084800219637 6.981239692907041 -0.5004593168070284 0.4387438420751025 0.4932507148737311
P 9.051446368439448 7.604638733915532 6.395183016413512 -0.30657782673109785 0.39888865775137755 0.7589233187500348
Ni 6.812813962025199 1.0227420676884638 11.701813221050621 -1.8711879456389515 0.4687306182451798 -0.5735637501021864
P 7.886051772300261 2.1731624423513636 8.627675900660545 0.21267214041987242 -0.3844151467255509 0.06627429774720199
Ni 7.11926930734495 8.677419734505534 4.239911982187232 -0.6824952203982827 -0.3979748876878565 0.34556140708314675
P 3.5399552924400646 4.216636615114025 11.256333329798899 0.9552643261100516 0.3491830629961341 1.2301646192322104
P 4.328299174530236 4.805537388706741 5.872134099780391 -1.1983785850698652 -0.09927594948420321 0.12396702447298005
P -0.018664330112205765 3.6483927754797487 5.191244646287653 0.5266161777080544 0.0014261909235652858 -0.9934963730080567
Ni 5.455075079894399 6.496729068544372 4.648673510953783 -0.7968463190480535 0.4608805260731418 1.0045652292277087
Ni 4.323393038512686 4.293791770920759 3.570937038900244 -0.5067022123929467 -0.8419637802119821 0.08569512547597499
Ni 1.7373203218350504 7.379111792401118 5.2422447067665585 -2.296411384630116 1.4713808898383627 1.3165279744198035
Ni 8.513370240406573 5.77035598832952 12.54479428233215 1.1931775004849 0.6714510467689792 -0.4662250782145067
Ni 5.9889851035995205 5.383593500376118 7.219163535654631 -0.4854443314554349 1.596044169047419 -0.8444035000017265
Ni 9.170088979843387 0.38937269849383915 5.18217880127794 0.5513447908029858 -0.38313293757901756 -0.7726874624136628
Ni 8.091990714519278 3.6094177731503785 3.2522355395433893 1.4111903363913956 -0.6093997859641892 0.22623856625039745
Ni 6.982473079056704 3.528078240628489 12.814689321317761 0.048257549454807216 0.15929115369557084 -0.5927907166525984
Ni 2.892518925803684 6.3972267829444736 7.201646711471297 1.7266389832495619 -0.9295478951805539 -1.2438436593812
Ni 1.1913596586380302 8.192242168002677 8.463725077453558 -0.7795276252639478 0.25193648523713386 -2.287374728349145
Ni 8.039558098868023 0.9547413779703435 2.566090947433714 0.6987541054593063 0.7007873338392511 -0.2558139659146691
Ni 4.572372589258112 1.9215699402073907 5.263452553205181 0.9818914417792768 -0.6697962847743755 -0.18201353499375106
Ni 0.09471309286172341 3.9262335621273032 8.804410086094268 0.6222671288451606 0.012093440829424333 0.71809651454166
Ni 1.906979438866555 4.0818868942148505 2.7759739844735445 0.4296585919443826 0.8887280329507147 -0.17886856160686615
Ni 2.375693584319829 1.098261844822681 5.4502822326787435 -0.614610126520535 0.011075798198187378 0.2424282886363825
Ni 7.088571696508877 2.0167599423803173 5.091826413669806 1.3839320148960745 -1.062744151561286 1.4678199119599817
Ni 5.255513200878828 5.599362987017639 10.869622004530223 -1.9652347855137318 -1.1920616417129017 2.172034012092595
Ni 6.554597719447847 4.01659965402599 8.98150515117919 0.9819410640702895 -1.7380472250865036 -1.123430413697749
Ni 0.012565920816646831 6.5585354189330705 1.526879063360076 -0.5688599168686138 0.5497537921667822 -0.3774016915221952
Ni 0.6956197385972018 9.287489068903957 1.19060409541894 -0.1767358315345795 -0.6126776853845126 0.43039418455882655
Ni 4.190808595520698 2.1168012634085875 8.918551294861619 -0.7788092590406845 0.28064259492257476 -0.7115851957857036
Ni 3.752097710182205 6.778827321456692 13.124713263897204 1.3545515048514285 -0.25703703968849284 0.9349862925873058
Ni 5.652544770552393 0.9647363738794694 7.552854788017064 0.19267487136233913 -1.332398365793157 -0.6609992553080358
Ni 6.205275353282012 2.204956396431581 3.094181215751164 -1.7011354396618186 0.8612295704201296 -0.8818374764784683
Ni 4.346790830581489 2.9657637907062995 1.7765292107231714 0.759883111560143 0.28379913827368547 -1.2486241114889787
P 2.0362565797387036 -0.1090660531663273 3.273362987477442 -0.9184409866341149 1.2312509103178537 -1.0779051755724403
Ni 2.865658516322121 3.289020596242579 13.50011215412504 -1.282557788121946 1.567354000201578 -1.3078343033005477
P 6.112881026381656 1.9736096995294934 0.7904634790288526 1.0018588860401392 -0.3448481830662061 0.5599618430480356
Ni 4.366808230980844 4.467151046401255 8.927443552191008 -1.6326679909180397 0.9410229856996891 -0.1934426027662991
P 7.2897780903906675 6.46520006408149 3.350129855051875 0.605864519117421 -0.5512506884272829 -0.921206208084078
P 3.553175364725718 5.377125075235659 1.8504355360497549 0.0232312026137987 0.1330049663055322 -0.7726404112258113
P 0.507353849473809 5.021233785798652 10.74030466440579 0.6456883359825784 -1.3572431927509787 0.3310038209839461
Ni 4.871391072905076 4.536942430084812 12.96771599771621 -1.7531213458108066 -1.3348650821660946 0.7727651097291337
