# total energy = -381170.4968055351 ev
CRYSTAL
PRIMVEC
9.23252354025176 0.00000000000000 0.00000000000000

0.00000000000000 9.23252354025176 0.00000000000000

0.00000000000000 0.00000000000000 13.51273143893720

PRIMCOORD
 96 1
Ni 8.251946440805582 0.972350913415734 11.64265071958856 -0.8660894696155922 1.746134372970012 1.3733411267541058
Ni 4.243184722912044 2.0087663076247964 10.474852822499921 -1.1682226303117753 1.1856271989414677 0.5822556214492295
Ni 0.4918553051851773 5.252299545034945 11.40465103495349 1.2432924148634201 0.17084389153017673 0.25456338133701967
Ni 7.98309535553368 6.229026674605174 10.49371671458191 -0.6783148637683479 1.7007574874971096 -0.5730839822522904
Ni 1.7837604766096342 4.775670517659878 7.281551899126425 0.015597340217624751 0.07892438241104473 -1.202567426340232
Ni 4.4779585638247905 8.742525811238542 3.5157698890614872 -0.37486324137105764 0.2289035146770703 0.07662298797137772
Ni 8.259092414019884 1.3372664060452644 8.571692735303786 -1.5112684700619199 -0.5945213261904599 -1.3972338742113035
Ni 6.843848114217529 0.5302118242017334 2.0311930305380512 0.9761499113098092 -1.252986245112416 0.7061928211255386
Ni 4.603807092098874 4.080313775271878 8.12978630568281 -1.0466356760351974 1.5984036704185312 1.4246176655408949
Ni 5.4498755486344885 3.5413559815276288 1.3851093429916586 0.41761811584008074 -0.9232420075671842 0.45282011766251046
Ni 2.133931629157461 2.5036203364533915 11.510590549481682 0.355453212275562 -0.03403523520783815 -0.009483256900086895
Ni 4.401420943738799 7.767617488804253 0.06286332948172574 -0.3566351483988051 -1.9442152458392707 -1.0494294367302508
Ni 7.219482566668511 3.401197041777878 8.002022952028046 -0.024598515274970537 -0.07360322730844744 -0.25697199077851224
Ni 0.7303987854563213 2.8393795197666902 1.044059923694129 0.5044918350051892 -0.034333483174547326 0.1489884862179821
Ni 7.776988500189932 7.7886768749823165 3.5166072789459024 -0.8709933346751128 -0.3398026502224987 0.6159766678507584
Ni 4.338501295863525 1.7855054235573127 5.541084571866276 -0.21902379366951313 0.5537212614549625 -0.013542514571125066
Ni 1.051658290561532 5.3690078750116665 0.11026864481267037 0.5806144863013807 -0.0994970643560738 1.0507592112852677
Ni 5.3864296469178505 1.801699269833649 3.1172110806788385 -0.8749587470807642 0.5477979539919922 0.9063447175912133
Ni 4.950599141033736 1.8982622334620427 8.271007908891171 1.3522025450032777 0.02533539344099508 -0.3500227852886101
Ni 4.753604786416751 0.45179169256742685 0.8080692361797734 0.8352786548823228 2.103973311868931 1.7121050512994447
Ni 0.13462958140602344 -0.11135623608482115 2.406482186608911 -0.42476861084193296 1.21660719226275 -0.7258509616760983
Ni 3.5060969741562893 5.7853023611006105 12.510897544154398 0.49702406587323433 -0.6950797419315127 -2.0600097618037876
Ni 6.893094394740891 5.43370939992875 2.2640852831548366 -0.4813205390950485 -0.18063876613341148 1.2951870468501823
Ni 4.110633382553229 2.3817325607748314 13.159548796495233 -0.7446135869955822 0.45707040829843226 0.22693173566268016
P 2.7463249150807183 4.005936565692536 13.500907505331108 -0.663762676985786 -0.9318852850644789 1.07776042246446
Ni 5.064242273197603 7.468816097192309 8.822976174797686 0.9998248863292457 0.4411375391182596 1.541182484012533
P 2.5867499783417225 8.264751950945422 8.292046983517464 0.28243028295061684 -0.5391477345161617 -0.05839412366817685
Ni 3.285753567525135 0.34158028940065915 12.3307460822181 1.3543383603993577 -0.20430088563704168 0.43104313099673514
P 0.30095164634270816 2.0894124006828347 10.083010674987303 0.8918331542385995 0.8031622339637523 1.1409152007460737
P 3.8987285024309517 4.406018740458078 10.49616241006572 -0.0594935273799427 -0.13594759387362393 -0.3183735338144453
P 3.0240761530381324 2.8553148553841114 7.389423780830009 -0.8889303787695078 0.21928038976500946 -1.8741539702458112
Ni 6.452278326149125 5.396677748039134 8.77770818866456 0.6057156522443826 1.3586806965284535 0.11813010607622881
Ni 1.1027233782208345 2.026197312054513 5.694359234546565 0.26427752330099 -1.1209860659223145 0.9107467033136508
Ni 6.5671401514193075 3.6055589501739473 4.262604412910702 -0.6551309694527169 -0.07141239030471572 -0.3435628885958793
Ni 1.812769065549343 3.8536091599267013 9.513638178969314 1.3821281289181164 1.4283059130257596 1.7310617949076061
Ni 8.653302703818635 3.5321880856596684 6.109146049542621 -1.1595775530422674 0.20232165042348385 -0.5655442222318194
Ni 8.023210670283214 4.275498555276455 0.3859194836663978 -0.651158357958214 1.4731657496529273 -0.4254121579632028
Ni 9.212895187658447 3.13037019646998 12.29577512958098 -0.28672248256806754 -0.7244034305962943 -0.7368187735415117
Ni 0.5845950808186844 8.899764919523767 7.624112682526256 -0.16937064941875993 0.9509664700656459 -0.06835020643962422
Ni 2.193462940896239 6.425716355945579 10.309213964304654 1.4983173092178905 -0.4221165179310666 -0.4615783234711147
Ni 2.1982638531332372 0.8087339778741272 1.1450138755146695 0.20717923562610124 -0.15486499960341715 0.14971945084673569
Ni 8.303426992023857 4.061950285965359 10.118374009874561 0.11178565191543974 -1.7198903516718187 -0.8030480769833912
Ni 0.7781909435232855 6.936681138338716 3.12573823941363 0.3742844860494522 -2.08229634111613 0.7847631626312742
Ni 6.693967327187856 2.3558907274068352 10.081862149059836 -0.21392992408637349 -0.4231357032242003 -0.5181649616169076
Ni 4.549806061956176 7.812533715790785 11.164191806049313 0.17720428653056577 0.6212183758656721 -0.19299574503686762
Ni 3.1064671930438483 2.8387147780723363 2.032949979766322 0.5315745501545942 -0.648057093325071 -0.6494765993804169
Ni 0.5867573378300401 5.381730292439712 5.0746251691624655 2.5636994126226558 -0.17494171574863418 -0.7349845485462503
Ni 9.15822018329786 7.589115878823245 12.455062934838109 -0.679284940991101 0.05495270208679568 -0.6347228381100101
Ni 5.661032594350617 6.695527623664881 4.281266112727326 0.3256317580387553 -0.896278848714779 -0.2420765617239186
Ni 0.6414628095182819 8.821288469495911 4.589085833326001 0.4479283367878479 0.8689598491848518 1.9402788868993426
Ni 6.9731957689105 1.9705436601994646 0.21808605462741185 0.2925663429433542 0.05348948727770788 -0.24918309086171278
Ni 1.7838158717508306 7.3608971296187065 6.2374633546093445 1.3339826795611411 -0.9120381684315647 -0.32631052927333476
Ni 5.725918769738355 5.338383594453737 0.14859377324921547 -0.1692454366948053 1.4999833840664039 -0.7313875752236113
Ni 2.1080528656953335 4.781366984679547 2.6730888454100166 -2.6413752673385797 -0.08179141954619462 0.05110401776466683
Ni 3.6380943631031433 5.8021609490713 1.2643322398940815 1.0317857555065586 -0.9015616943802731 1.4658013388680564
Ni 8.60363172721277 7.440869248458859 6.208776057488574 -0.5141437562726564 2.0242228340121655 -1.2453174157132487
P 2.0151275163388194 7.271369348922223 12.274357521489849 0.2094304935541232 1.4699377296339329 -0.5095988172144513
Ni 2.6718369152189836 0.5505907733954378 6.550202163746237 -0.08855522063258942 -1.015445109365006 -0.7941656868920968
P 4.254688447233774 7.76451536089727 5.6221073518844475 -0.38680627266554674 -0.444073481818132 -0.4278176820809019
Ni 0.43446963191539584 2.832048896081735 3.7723897271572833 1.4397756042282557 2.1863740828643508 -1.5147944809373073
P 8.609512844703092 0.5829498451251592 0.6408294584039395 0.18195259984882858 0.5404345716483854 -2.2563913925937524
P 4.406960457858412 4.3071384134229795 3.1218596562775476 0.06078062162248241 0.6057115384793246 1.1840536838067608
P 5.540123466166523 0.26896556856370735 9.667156580270868 0.34238840867180387 -0.44965328989875464 0.4122686786027093
Ni 3.5949969432525513 5.342076603866812 5.6762791837124995 0.6339198825927405 -0.00901403057315222 0.1984724518807227
Ni 5.756090656643182 5.657219562131616 11.211891638880951 -0.7481275136861116 -0.3540262500210483 -0.7184341003867369
Ni 2.7682983210885177 3.461143817075627 4.594233888447828 0.2423311009368859 0.718432300614524 -0.07712023932277041
Ni 7.621411246140592 7.902227681910858 8.418242654676376 -0.37021083020071077 -0.24783994657025707 0.25811664590591676
Ni 2.2542960384531265 8.925412869897578 10.331280618800132 0.9446700955339731 -0.933118900361264 0.8811193673655213
Ni 2.168202756510802 7.595200111831287 0.9549716111178004 -0.9025718808123423 -0.2629384927745923 -0.17067137050805448
Ni 7.653309614946031 5.508852908961305 5.247372147225549 -2.6870755975891725 0.494816002478322 -2.9818847138201163
Ni 3.2885325571084745 6.488700631485583 3.71187976792404 -0.17498799560553735 1.0978157984534382 -0.5470394785594127
Ni 4.900272655257048 9.173656962644516 7.236000474520845 0.23755090593942313 -1.0770878218774675 -0.5385905764611111
Ni 0.7012443226447961 2.875654104726625 7.905326116808428 -0.8325229465140564 -1.694445943456785 0.013947206208711465
Ni 2.66468170948115 1.3007610079970122 8.740574979016085 -1.1572717877272263 0.24633019479394994 0.8714661605464733
Ni 0.046040748352813216 9.029638828058102 9.961572523204783 1.0132285613296612 -0.8764345602953423 0.09412834384499273
Ni 6.833867756278692 8.366799033552233 13.30964839433263 0.28471187989594193 0.3745086862451163 -0.10259884320984912
Ni 8.122866529295058 1.3423073638941125 4.351680723206438 -1.4357641690760174 -0.18747815765274808 -1.2243295006076722
Ni 5.957793598261838 3.287701629990533 12.116744496001548 0.2601467889620681 2.2460203337720737 -0.28903339008943124
Ni 8.65671873752573 6.956651086739922 1.2443059730993262 -1.1429301742935734 -0.19210922866685626 -0.3491892336437212
Ni 6.418588847778343 8.855485736660992 5.405700693287632 0.44392410072446126 0.33991706431317587 -0.9335454463757211
Ni 5.883324063447169 7.517046800127075 1.8579604217371488 -0.23156974865532376 -0.030692543987850367 0.1943915969431297
Ni 6.432631516071563 1.9535281193287186 6.235111830865568 1.466326615243907 0.2993805376517102 0.19637751702490694
Ni 7.873920764759633 3.0187859170539015 2.3720928829543513 -0.919378667957036 -0.572749224620691 -0.15993701480968583
Ni 6.105643230114318 6.880168861795127 6.727665114829817 -0.380648480594267 -0.44874826158598197 0.12356593237981946
Ni 5.752563832653695 1.1009784312731563 11.82234240185293 0.2857835156935659 -3.358212198441526 1.2705083131565795
Ni 3.50345647242594 6.3263374726397155 7.7367005372503375 -0.42590118178447944 0.48175531263962185 0.5462866595537882
Ni 5.852478202324455 4.489166847393475 6.315688679997113 0.09330816193654254 -0.15362829898283864 -0.3398165341795696
Ni 2.675252948926079 1.234646906979427 4.012592291907252 -0.5873831724837819 -1.3555218391844979 -1.1410722951492285
P 7.3634176085431315 6.246928537735057 12.682131311610474 0.9383297551382421 0.17671063472359888 -0.07812939731357511
Ni 7.273418969146479 8.456354511819317 10.753107232989864 -2.788993612681913 -0.9798232463963383 -0.05956294716529743
P 2.1249945463778177 8.51480561830477 2.93900583470323 2.7447436417246016 1.329919308125045 0.5809011643038641
Ni 1.0954758472476738 0.48027033465635915 12.392688005851262 -0.761610635774211 -0.012016821955218015 1.1108901151388935
P 8.935716366160058 4.994333605008084 2.6225509348444307 1.2179243684122765 -0.632037577968363 -0.0309653380332628
P 8.279644011403649 0.6675890046110851 6.27702841095633 0.2316178282844398 -0.813050953832374 1.40981993840643
P 8.4288692892625 5.629355806109961 7.103129688847798 0.3047428304048881 -2.0055843929753716 2.981178431781711
Ni 0.5979896259599096 6.50603007815644 8.61304243844964 -0.6150556986983859 0.2007306517872801 -0.4339649326292203
