# total energy = -340888.74479438644 ev
CRYSTAL
PRIMVEC
9.13448687859739 0.00000000000000 0.00000000000000
0.00000000000000 9.13448687859739 0.00000000000000
0.00000000000000 0.00000000000000 13.36924487491436
PRIMCOORD
 96 1
Ni 6.481694656702948 2.1813793356444413 11.42645257290893 -0.7647990608045215 -1.2416052569689844 -0.2701388671777735
Ni 4.28049348518959 0.5138979937018353 5.65319855119899 0.7891139834008023 0.5981432392137634 0.5500669525318269
Ni 2.7502203526494786 1.984668167240236 4.473749990770926 0.015966293521269277 -0.43471003832536104 1.1504275111118833
Ni 3.2738456611056037 4.45146367042393 4.664903737542575 0.19646750563555196 0.6353234478084865 0.11760920057575229
Ni 3.664217079397785 2.6674710387616822 2.229656010644816 0.5690815459611167 1.0460818604142565 -0.6328125084611748
Ni 5.506533407844841 4.481589207150053 2.866072132438366 -1.3620311010579251 -0.42469353462962345 -1.1109420514227513
Ni 5.3860860678598 4.740460556700792 11.299070330715741 -0.27368956064350924 0.11357719659822374 0.36207071759207965
Ni 5.739709446658593 8.052323950933785 12.593908465911971 -0.15454669703204998 -0.5433188351747159 -0.1026500081627587
Ni 2.018721533193841 6.448280704809631 0.10851770051738836 0.4135871403038167 1.0284726319729254 1.2068166885348892
Ni 2.706438758492926 1.6549588742962014 0.13702643311964166 0.022145425748787664 0.2759757855745247 0.228373096094897
Ni 8.602640229163631 8.800091290980456 6.597721818634086 -0.8494102091876984 0.6533725920007135 0.4866933733711876
Ni 8.563352802402243 2.443813134959641 1.0971486632797833 1.3269941640584502 1.2277310700900532 -0.10361879983393123
Ni 6.777679425210097 1.0681868601433835 4.785975876409382 0.36369951144475426 -0.08472684802543473 0.4595666923577247
Ni 0.9194317462607513 7.60150963497127 2.3611021859154615 0.20649557929551532 -0.05324626091865023 -0.422161255126073
Ni 8.027989678696553 4.065732571312122 4.056134966267204 -1.882154214842468 0.36211365501487314 -0.8656048166696899
Ni 7.536417283633988 3.958703792106546 12.345401104829834 1.8516110519482885 0.9598948829035274 1.1819613200541064
Ni 8.429039311795536 7.191425994649079 9.21921715956377 -0.6347719461803907 0.13011838878635654 -0.23424472438432561
Ni 7.073280545281074 0.6492893537244556 0.20342775638319816 -0.21686792366877491 0.7901475668716392 -0.22171496734843107
Ni 2.056967628485617 6.5403563294910505 9.442242956894786 -0.006403846643814778 -0.8755683556403049 -0.28926118982952115
Ni 0.4042074251081479 5.251398063303497 1.5254309412064186 0.49980317128026835 -1.416204244666219 -0.4264105173207301
Ni 6.634916534521018 1.9987718145128663 7.051140376719285 -0.2803294345575301 0.17366773413221703 -1.1419289867225688
Ni 3.534269873374185 4.140516612906049 0.014099993478000056 -0.56026240500759 -0.2300998489780166 0.6666040030893229
Ni 6.002033632134886 5.78290643367431 4.686468433450104 1.0244653105857455 0.7444824607343565 0.9007445977956163
Ni 5.303154064240493 2.902391764511362 9.102824618169612 0.8688477490870198 0.5228559393346738 0.75226313312104
P 0.242860421481137 5.456805262927614 12.456352232570946 0.07546213489405713 0.9591461776629611 -0.13697577802782215
P 4.215930934073689 6.151309411752323 12.88601290452183 0.7189899728902069 0.47640793228477946 -0.40056373146095525
P 2.4211139358194296 8.5740858241285 1.0029282611504267 1.3463216607424684 -0.3355096792740996 0.827447074653046
P 6.388148379682866 8.303394448949016 5.830020288533619 0.3251715305728851 -0.7001725830733877 0.7360446143796484
P 4.724694432871414 1.147693431296864 12.505150486754784 1.4846426399442754 0.11529315084806595 0.5028607271596695
P 4.045609297386212 6.298639545729171 8.194664828343075 -0.06653577893870477 1.3594828807147747 0.7448159328143753
P 4.7796292351366985 1.4238015570156433 3.4408825364205176 0.3064518426761948 -2.0078659899206968 1.1337073701437248
P 0.26486722653892253 5.978457522283422 3.6546569257478274 -0.9496775760508934 -0.5197472185023629 -0.2286052667103611
Ni 0.7823678617461499 9.185091631166221 4.4386826968074375 -0.5529396460939315 0.3274888658521521 -0.5964776785858824
Ni 2.0826720737091806 6.867507966193935 4.46752027092641 1.0650028656884754 -0.8388578875931489 0.1958141883222692
Ni 6.011250329089603 5.723477464013862 8.982020119759468 0.5799529414579818 -0.3374297791149479 0.8996842748519022
Ni 8.969599958362709 2.4160899682028836 10.27072170687425 -0.8083532912463886 -0.4717177258979618 -0.14756075263252005
Ni 2.5387661229123557 5.460358578205498 6.835868845042246 -0.323613699167462 -0.5222712704757974 -0.01927041819383778
Ni 0.5888199660430534 9.175865799724926 9.175485805083385 0.1017704337712828 0.35004129723137134 0.11808819709469985
Ni 1.6320952543976304 1.0859168985865022 11.16690161755697 -0.26965807088661303 -0.25122454677177375 1.1734139447047274
Ni 4.673102852692777 6.99312542558073 1.5452034508478274 -0.19398150598890462 0.6026706947704719 0.4124167741447994
Ni 5.71416942219339 8.037078492839212 8.073205387245464 0.6764888663032027 0.33747117387584463 -0.3061309690016663
Ni 5.233357452316809 3.030512073219854 4.75580101345575 0.36188765504699605 0.2813722739997476 0.968661316242248
Ni 1.3573207637188796 7.420007386715335 7.367215535000673 -1.0738418041363442 1.7339601995013232 -1.455240018412442
Ni 4.960199765761929 5.006182771183186 6.808528413273003 -0.5436440797246185 -0.8433367493001089 -0.4777657318642546
Ni 0.8411546770003382 7.50994554153808 11.483205138002747 0.2047109765912668 0.2028034751559088 -0.39694824619555513
Ni 4.693326605971018 0.30562895943360213 10.172511361008699 0.4888623559980484 0.5772329714236575 0.49749174953827224
Ni 7.845162929887165 7.633663027717164 4.405527250884208 1.2526612576728295 -0.4543661219933916 -0.3670303755902002
Ni 7.466529326844549 6.164015482578897 6.823274214951894 -0.20342825322410127 0.8321943595300442 -0.09875118732898477
Ni 3.0162988121083174 5.12584454532273 2.218853566820585 -0.4130109560853726 0.41520256442005266 0.3306132704137467
Ni 2.687091915925937 5.406994907631206 11.497950939681637 -0.7234174125339412 -0.8295864895935519 -1.310812412092265
Ni 1.20673875252114 3.5603579670339207 3.625752669876853 -0.49618742890455186 1.0129069163241846 0.20056661540559007
Ni 1.4704148420106125 1.4828012058070414 2.4328946831559004 -0.9325583998721035 -0.7927916893627056 -0.07974507854012718
Ni 1.3300543212908993 3.368953935330103 8.460312140035548 -1.3324096786470667 -0.10716075154891866 -2.0226994553891036
Ni 3.7892133936974433 2.8190121710498532 6.864652525690422 -0.2787335508253199 -0.45005721020539263 -0.04175857199402486
Ni 4.420251129795317 7.249165084293053 6.01158739164424 -0.5831580786588407 -0.11963805808032298 -0.5117860546737573
Ni 0.634675088652253 0.22965834803351232 0.364561926472999 -0.8947976361835622 -0.16439787879451687 -0.9558695637942183
P 0.26499419590232254 5.719915014249402 7.895354193273771 -0.5646895875410081 -0.8121209858189368 0.35499272769937573
P 8.714501151767667 1.8216267163534627 7.866102826912927 -0.2162889112368533 -1.6459343690096429 1.6750518552008893
P 1.9945334127418166 3.589149868720016 10.397769626858773 0.8894841943904489 -0.6210687376616852 0.16105698734674198
P 4.227897111487644 6.38185471843232 3.693040038338237 -0.894135320009215 0.19728588777178924 -0.4337229918217434
P 7.184903971234145 3.949277001960591 10.157644070658353 -2.311344351790864 -0.2332376232760499 -0.06532864600448104
P 6.392258898641858 8.00256840255683 10.217752646120022 0.8629519524278751 -0.4265059052480138 0.13104218615220659
P 2.3709199320868493 8.595204757091144 5.66642072051708 0.6412462410508246 0.842639209012452 1.444554513674138
P 7.063588855024428 4.031898433036329 1.5488271016723434 1.0438221178458023 -0.5794772873731439 -0.5676561263684998
Ni 5.5430074127409625 2.9410671806721886 0.35951877643464464 0.041088285399877626 -0.36298654453812973 -0.14332228907114025
Ni 1.602399038540557 1.145738651169699 7.258817496257424 0.18524644010875194 0.18839244193690136 -1.5749333552107327
Ni 6.940821355449201 1.0439165293121797 9.283095537635166 0.6036520848471345 -0.8823383273742869 -0.7019918956703135
Ni 2.972973942280542 1.6658563167808178 9.318256003361723 -0.142390007064858 0.39440285406588205 -1.3767784345704288
Ni 6.725777272487892 1.8901536346431471 2.463885255760727 -0.6249796426803171 1.173608834324353 0.35560824979618755
Ni 4.3363965430318805 7.089887041875402 10.702494272121399 0.5226777618855966 -1.1398564204642563 -0.20758829813906182
Ni 8.4284181667084 7.277582472029551 0.13722556492698837 0.33643810462563994 0.05683372115959244 0.8620070720161025
Ni 7.768405839192921 3.9345248061410976 7.970997790054457 0.9126547189696411 0.28558271253666945 0.6325625972338976
Ni 3.2430259033997397 8.773884448995238 12.333996698340275 -0.12764910131025758 -1.5377091807519518 0.003881080221961058
Ni -0.04857902650602482 4.811755224422865 9.987734399315432 1.1800718163408772 1.5487361279900747 0.44335305871233965
Ni 8.748855955778264 2.6632143680174813 5.831757667880287 0.4083847701672709 -0.2606386409968221 0.3741271345359815
Ni 3.822380714453221 2.747251644512429 11.374539458802834 0.1618080065801536 0.3703679246038653 -0.30194367039319614
Ni 1.1244278939889694 3.3422446965832306 12.29970492228705 -0.6793672162922623 0.4136645305089715 1.546591570843246
Ni 3.29866406113134 8.423111030008013 8.117096595240923 0.6817408587307614 1.0328753890263114 -0.7902038740308713
Ni 5.6434228236658495 8.40456802225967 3.6490419568498442 -0.7996380228605776 -0.9884513543849816 -0.8289951358664561
Ni 3.098152946311711 8.925909709071911 3.043267470273935 0.45684337988929064 -0.4272425263037223 0.5596576815440555
Ni 3.4912190381436754 4.318666504588762 8.841909883971924 0.05093098252191228 0.4193636377762777 1.188784770733843
Ni 7.5923660139091576 6.50781015382241 11.435129421707034 -0.6996421644912144 -0.7254331574123893 -0.522624797160474
Ni 8.384508689739791 0.1658777089684776 2.3011278874064534 -0.11808536888122245 -0.18254138247276305 1.049039914601316
Ni 4.982469644033089 0.4034392147871452 1.4089580163303943 -0.8803115267522452 0.1737492381024298 -0.5150081611554808
Ni 6.306540876617011 5.684473206336316 0.3728925782298894 -0.477414776282739 -0.12218062199651859 -1.4315174779845214
Ni 7.998896338953465 9.197423188043196 11.284150060343258 0.23317334569701778 -1.7265397386675363 -0.8566350090709118
Ni 0.4729937628165773 5.137664570951476 5.627088534771473 -0.33723694637785145 0.12887088953250064 0.5804926160115358
Ni 7.510155634729318 6.013652699058969 2.4021187709855987 -0.435523792475908 1.261619238197066 1.2259966038974497
P 8.579730936832183 1.820119526068499 3.7919318169023235 1.0235078317684827 0.15898133576463588 -0.830172701114325
P 1.739498547552803 3.3765629626475255 1.44481452993401 -0.0022268324479897132 0.4855849707983572 -1.164822860601607
P 4.871567842519486 1.1411348699356278 7.9375080219225636 -0.7931498440330728 -0.8693817672136188 0.5962856171797343
P 8.674428159160783 1.597722181413882 12.464267265188651 0.8363461769148887 2.0754147835049483 -1.0684041780605404
P 6.834002669434863 8.039910183677629 1.449373552183861 -1.6182497586101805 -1.1041625666070725 0.40246737624157136
P 1.7490532205108156 3.4242267135986815 6.234867127702055 1.403351557073267 -0.8056256079025803 -1.5222362819273332
P 6.701927128039163 4.15369767703455 6.103113120233814 1.6056068730351896 -0.8021355924714508 -1.4047898321816903
P 2.672138761401782 8.464663809440134 10.152737937918634 -1.8701461346379984 1.2522660791169402 1.291779306720214
