# total energy = -381169.9985680898 ev
CRYSTAL
PRIMVEC
9.28343058979586 0.00000000000000 0.00000000000000

0.00000000000000 9.28343058979586 0.00000000000000

0.00000000000000 0.00000000000000 13.58723905170842

PRIMCOORD
 96 1
Ni 5.07967958510979 6.482888653927585 13.07479634418122 -1.1730236512448444 -1.0073394495387362 -1.2086599123912152
Ni 1.950847910372195 3.997909293204083 4.503055088879502 -0.6805393822234924 0.5998738487516249 2.212553569473196
Ni 7.199782998172561 6.28777879762834 3.206343676696511 0.5782791532999848 -0.7644105671168513 0.030237201617986632
Ni 4.310491677533527 1.940134831713522 7.109345676095386 0.07039217657031749 -0.7788305991969232 1.2255595163600315
Ni 1.6310894343589093 7.009110621595019 3.1330537788744786 1.828568311196212 -4.119920536135865 1.3016891096347583
Ni 7.047692558254849 1.5644993882422187 7.568390884846105 0.06939330299215792 -0.046519740828094076 1.2187298950327077
Ni 7.78308877924743 3.7158136942429953 0.6136319630976477 0.7177427307466672 -0.903768986444237 0.16916239006269576
Ni 3.9273737891758365 0.9344979523552831 4.617962605095669 -1.0586357858198672 0.3976468149244765 0.48542401974046073
Ni 2.119694942126046 3.3059409595297633 7.052021421841105 2.4231860537552206 -0.596018736671593 -1.3221977711110713
Ni 5.268049670953059 6.610814324565811 4.3254834892544025 -1.0395754267543063 -0.5451556312731385 0.8312389375953104
Ni 7.2028650970587655 0.5650424884880338 11.453743226406269 0.12543486726775815 -2.2049914408552223 0.6825816094645019
Ni 5.782797318670649 8.523544469797182 8.31192496090991 1.0255325755079951 0.4424752840930767 0.46657989045076426
Ni 6.005246877439385 8.219038669898454 5.731029197498877 0.029430389445975123 1.910513996932084 0.4113176275433496
Ni 7.347027487431844 6.361080763909866 6.003222161273478 0.11231555627698075 -1.0753700678554123 -0.07168698412234106
Ni 2.740097310999924 0.4728728783019258 2.3665979848590895 -0.022231300594374614 -0.8089775550939488 0.11026433017490687
Ni 7.4146201440295885 8.29718658683841 1.9287626294978597 0.37820361859820023 0.7507947761056296 0.5777065686259664
Ni 2.688564988959808 1.1247247242745793 9.084182898912882 -0.5374191818608293 0.02488647882903456 -0.4049587752048574
Ni 5.067341906134593 2.148584977469018 12.1179420347845 -0.9802431075425763 -0.14392007055613926 -0.932668957308039
Ni 0.5322218487221133 4.678663242979203 6.391912892888362 -1.0405133651875436 1.438932282391354 0.41807680064405417
Ni 3.3813781147987205 1.7650586181746022 0.4561766287632575 1.3346048865261726 1.745724282015787 0.3795560188610367
Ni 1.5175716476706484 7.829895835224058 8.786160646791638 0.8924754158082889 -0.41943819976795504 1.2760199870034281
Ni 3.6628702907851 8.387505081006719 8.015791886871023 -1.0161722173390177 -0.27724462498461927 0.6228353426438047
Ni 5.680104011805622 2.388181032149859 3.0243837995307232 0.5738080049025086 0.28000264734573066 0.8652996267244453
Ni 1.6430557761189002 3.2363337985395293 -0.05419109650098576 0.8565748452569376 -0.4242464197898758 0.5587703938430957
P 8.983761247461874 5.83189738195117 1.936303559995641 -0.097084084039207 -0.40860999880419957 -0.004893323536559315
Ni 3.168221269840497 7.590151245657135 0.9513557335825658 -0.05560704784134294 0.19580081858583054 -0.75948947566615
P 7.9650440146980275 4.509974029541815 8.388842823324497 0.45372643152686376 -2.0595438779109627 0.09085430107941127
Ni 0.42998714331786553 8.353880496169879 2.2473291130503363 -2.187533136169458 3.719430852445955 -2.0159734495191795
P 7.512681019134929 0.20780866071622917 9.29096759725818 -0.2136082790808966 1.0069008193394209 -0.12116606468907519
P 4.015705629242798 3.178052422613057 10.147357551424143 -1.7228409496597101 0.2967096756877664 -0.11430918966824184
P 3.8664744858821667 4.083957409397533 1.0836381180981887 -1.1417886044899626 -0.4979555765485682 -0.28776300801743987
Ni 5.802784544279074 4.031199674547239 13.28114564964169 -1.6290933861929042 1.081249923674957 -0.8042305273272666
Ni 3.7662877052197765 5.018046890816089 11.314596673467577 1.1486871313820088 -1.676466476160229 -0.6443819584663288
Ni 1.6212582815863488 4.69736935519517 2.2403451883753625 -1.1185365759405574 -0.3822361367963611 -1.500995627381002
Ni 0.8239787136798051 7.688834110597944 6.53702404984629 -0.011675893676031505 -0.3755615529896629 -0.7075390507407879
Ni 6.347712624162475 8.230318037810315 13.52445229144547 0.4241898555203275 1.8635594825594162 -1.1389691327632967
Ni 7.643048231963131 6.688628038012083 12.096936416863375 -0.14326495347064358 1.5167570039803169 1.194511131694659
Ni 6.084620207189518 1.5136633234806127 5.551800505550925 -0.17783060726065503 -0.250899045111555 -1.2550793801960192
Ni 0.1763304049832757 1.5843937795468424 12.571144252453964 -0.552606688234545 0.9993348340667046 -0.21436469763094693
Ni 5.448649525568158 0.7492043953399894 1.2156735633656999 0.28710197739467325 0.2343285423473835 -0.8075616485830285
Ni 8.10315360846326 4.712352811828705 11.045270432994363 0.5667554689311013 1.6672529279817607 -1.3919294312792545
Ni 9.061082939097998 5.49780528943096 4.426790779963675 0.6916717446912282 -0.25037968227297525 -0.8254966357948944
Ni 9.19924823344551 2.8223392207375184 7.673814448585928 -0.6961413504268076 -0.5908425917872921 0.505299161397833
Ni 7.830508541629147 8.312996268775775 7.284635408533048 0.3604843469415662 -0.5151711690959063 -0.13977802336330766
Ni 6.014604575262559 3.4752428793722405 9.379080348368172 1.3839461559634616 1.8637461446489256 -1.007183383576846
Ni 1.073368787411686 5.658362217855353 10.186583758152354 0.5289016313081214 0.7189429217023554 0.3729292575731384
Ni 2.7262371494423863 5.6159369410181466 13.25636260389889 -0.16066900787970395 -1.1950531202410581 1.1161922440780971
Ni 1.9490654917392094 3.528659737779524 9.195353834401045 0.8191925479537374 0.3037876655804704 1.6002196405813471
Ni 0.9420732315454713 7.025857930000777 0.41142678095886653 0.10309506611997729 -0.33677311936755544 0.9386051202868158
Ni 4.445222102640391 6.529621442461172 9.480386710734408 0.1955290529816826 -0.6254288144025938 -0.5566170949455188
Ni 2.6279906057294435 1.7295216466794547 11.513472817472044 0.3851142296751045 1.0951973869939848 0.13694466767957061
Ni 3.370080180026099 7.915507630189641 5.468062106836053 0.5080474135669315 -1.3604442161867796 -0.9641166342943589
Ni 4.763290994324492 6.56378446626006 7.026423290910928 0.6162574323159709 0.3095538786402862 -1.0653533070493586
Ni 7.530765141515427 2.6906630442257184 11.025663828031524 -0.16698877945014468 -0.8422417164637173 0.6171046108076147
Ni 5.153455006340702 1.4590767528454334 9.794849918058864 0.4494136630841228 -2.5388317028466982 -0.40742549157779506
Ni 8.885013398508404 0.7205510874717103 5.899089922699532 0.7071554421491241 0.6243900887254343 -0.15856558838345594
P 3.819481761297936 8.984717440791027 10.249139225425841 -0.7845304777951778 -0.2010039600533248 -0.1390167197172509
Ni 3.571762705034479 5.281826281637176 3.287418659235323 0.9552581554624645 0.41803154922841557 -0.02783913369945528
P 0.8213672847138739 1.330129904865392 1.097254125436729 0.6604125295666303 -0.21383762148288335 0.15157244489507443
Ni 5.2145956788242565 7.187231800298622 1.912335599440215 0.9797137174016675 -0.11688466370490193 -0.07686312900664181
P 5.98327299772961 4.361912598409081 4.1586323950322805 0.9297967779665665 -0.2491293548056419 0.5065883125229017
P 0.5600674981473208 6.873693222640025 11.940247893878382 0.23657260118655385 0.6164052707477449 -1.066755329603208
P 6.826134208802606 1.9286140946117774 13.198113719978748 1.2696477649284974 -0.13828678352976184 1.29334690831765
Ni 2.091491880631203 9.325484319754551 13.36158193217035 -2.147811134989488 -0.6395819659745242 0.899154113380045
Ni 5.6051495949164325 7.999309156231097 10.983733358033577 1.5388360952675433 -0.0954681457023388 0.1294252193740739
Ni 8.506138037834432 3.6643277893547803 2.8354669196380637 0.1708616321419896 1.1337865601210926 -0.1164185227017608
Ni 4.403001061271548 3.621113420935264 5.514544242749377 -0.29955742954920667 0.6017170726079508 -0.778900276092594
Ni 0.7662227799128484 3.5514969765146494 11.253073523652363 0.7298562261807495 1.1219355743197774 1.6107063990452841
Ni 4.179001169629329 9.206702828040758 12.591389557426956 1.3420477159574629 0.10525247878261228 0.03533647051776495
Ni 1.2013965757840939 2.221190686472035 3.1211106456904383 -2.7790172181954915 -1.1377000362428857 0.0869156281466374
Ni 8.53887141335478 7.828986059046805 4.594647269695966 -1.1341567989763177 0.972754512475015 -0.24394909615628305
Ni 5.645736752538372 9.158670359253952 3.3990240592652765 0.42611972555318867 -0.11166455295654318 0.562643760755573
Ni 6.838722540398066 6.272479704361881 8.519809745755255 -1.5213911603182186 0.3016924736143385 0.5991043175754521
Ni 0.4191450249769087 1.8080316174042357 10.131583146522221 -0.7209198429230681 -1.7832775576792126 -1.514175873516702
Ni 3.2442618480841627 2.7761634380267393 3.0887059036055478 3.064006520122536 0.3354947668757642 -1.4867100639962654
Ni 8.019686285915489 1.5348481116080752 1.81058084738662 -0.4410699191051178 -0.7691475675812044 0.14392084188708762
Ni 8.527100023632773 7.781482745791666 10.065576099833406 0.3193412970443532 -0.4025200838563777 0.22153061925176684
Ni 2.4362320677974254 5.7225385720732085 7.978875397621388 -0.7623809382813321 0.6409657336959284 -0.7546380611111196
Ni 7.908071602455155 2.954470285337945 4.9673584325975275 0.19603376053224303 0.20700362928018542 0.2798756348495632
Ni 6.643232063453235 4.157398627134761 6.707611724796416 -0.5424683142489626 -0.5191458374729382 -0.0729257416254486
Ni 3.3534257059241415 7.2408343273135065 11.499083500382838 -1.9316636344265055 0.7349675792653858 0.3157880324754561
Ni 0.19604191270941118 4.904844740760754 13.223889164429186 -0.6470895872054792 1.2749486083161203 -0.5585045417762188
Ni 8.869927824140689 8.798473260504807 13.301037255917201 -0.87691021438018 -0.6951231935749382 0.05004420904158478
Ni 5.728814171010178 4.7604316977674115 2.002813768611063 -0.811641217969041 -1.2297943803769853 0.9820958444805988
Ni 0.23033026281843075 0.26424170565401695 8.287753693229158 -0.08257457756912231 1.3088336910993392 0.045096121007690074
Ni 1.3564762802842083 9.05913341871817 11.203180655417379 -0.5266747988601317 -1.3850201057539309 -1.1415163246651825
Ni 2.4069985455303877 0.2930630436121765 6.611659116730404 -1.4210042371580238 1.7003903339656778 0.4173892876587263
Ni 1.2651458922044643 8.808712884214094 4.405227227876703 1.3714171702585156 2.2366761735530125 1.01321339182101
P 3.5830977735286207 7.797673048374619 3.061898141696839 0.2673121963622557 0.9474296605569812 1.7433840639183846
Ni 4.412618695145365 4.562685347240207 7.901019908738405 -0.055761056920703975 -2.0944504599801608 0.2836412725395825
P 3.2083535393738103 5.639943891981169 5.645525090325705 -0.2596958174675785 -0.4963851467376548 0.37292848624219
Ni 6.945936877858216 6.124019085722801 0.7826739468894813 2.7369184892532283 -0.16296346034083548 -0.5567451358829508
P 1.6468991162962752 1.9349825278525485 5.4945031732447465 -0.5180253507152497 -0.15114769865283 -1.286894982044719
P 6.183563008180971 5.674079065488916 10.884071091187664 -1.992441170725194 0.5185251731698037 -0.3532564617345593
P 7.6690789707490215 0.7296024320923395 4.067135833548733 -0.5568621210767893 0.09257051243956961 -0.8227427271988412
Ni 9.177274353735736 6.206474514359138 8.192317243892282 0.5979072119435573 0.2579487528694848 -0.3287595050344596
