# total energy = -340865.53939018 ev
CRYSTAL
PRIMVEC
9.30514702611517 0.00000000000000 0.00000000000000
0.00000000000000 9.30514702611517 0.00000000000000
0.00000000000000 0.00000000000000 13.61902325139581
PRIMCOORD
 96 1
Ni 0.83285809076805 5.412478186903291 8.948501881150007 -1.9237942589807575 -1.1200159886995615 -0.5667277010169595
Ni 5.167911014757161 0.03161888867148167 9.057195300388257 1.7368650318529442 -1.8696334566676382 -0.6332333980486772
Ni 4.595011739381709 1.6732421842310659 12.786805128743046 0.08546886839778184 -1.1593955189384484 -0.6497542785218358
Ni 7.929827453813812 3.8254295770583155 2.9383587707844034 -1.0521764033477685 -0.7974857524042653 -1.2882404403290202
Ni 8.501247210855311 3.27841721995363 9.384936526798674 -1.2890428816256574 -0.38180599123747794 -0.029147568098233677
Ni 0.7681482392085391 0.571894319525975 11.801387295907109 -0.5393832475657356 -0.824100012557684 -1.6284480392994214
Ni 5.500839860483159 5.992709917921216 11.331790037740406 -0.5141607255535209 -0.34770493578871087 2.01998539889205
Ni 1.8914478756219562 8.800770579732982 5.270099205899404 -1.3707006038074652 0.005704763694261143 -0.2102807573695604
Ni 1.684324614015567 0.7191296566209882 2.0752124273307526 0.021225999258311833 1.4481712844911188 -1.8256215698630627
Ni 1.0451354731617062 3.405227759922716 11.093675054353781 -0.6267853284304884 0.1629295217791065 -0.5404479413848241
Ni 2.6962034926770158 3.0108849456176183 6.640444905554327 1.5104984246651147 0.19524340342046376 -0.19982408081261072
Ni 8.159841376436047 3.6042462387060143 0.3360618886382079 -0.32014708077510023 -0.05152902111722738 0.8163926166110973
Ni 3.8951809571293654 8.51702873975079 4.542244113166807 2.7188657455165752 0.22164631889402472 -1.4689211154439603
Ni 1.1844986561024893 5.097824649402952 6.42990851611842 0.4595137276326022 0.4212839947274422 0.2632315985349789
Ni 5.986401028421727 2.172463307605107 1.066410760700987 -0.012213768457372513 -0.2861784371391394 0.39009239961598624
Ni 0.5088203127658892 2.817831065903895 5.999846965481849 -1.1188569353944537 -0.35334182235951406 -0.16531807661594108
Ni 1.4976261495351055 9.331015062386223 7.735945416038947 0.029573599892058745 -1.1164354704371546 -0.855247898915398
Ni 5.440830969063976 5.178323473975344 2.015302170467166 0.8623431151992826 -0.28585344969955284 -0.15026066806218638
Ni 2.864998854801994 1.669492210089039 11.094083550296302 -0.5103395520352179 1.685624488510413 -1.1356015018426442
Ni 7.503921581717759 8.584667851508588 8.454512111281293 -1.2944090310335774 0.5502232756040331 -0.1737458956683201
Ni 9.317150393722153 1.1590304694356721 0.12455404188114122 -0.6902010736829726 0.8231980695687049 1.6210517468353502
Ni 6.862275882120734 0.9255438660446913 12.299502967846728 0.6742139542260969 -0.21905336135586792 1.084876464683951
Ni 8.814216516793103 7.258684439005311 9.790103087808498 0.33758661640778637 0.48064331052236575 1.9535897450756354
Ni 5.166096511140051 4.65993374828722 9.605401507821533 -0.29238508017048354 -1.3444617247155943 -2.099077160118895
P 2.6543210271354205 0.5376485879257238 12.827648209392173 -0.4177875515384095 -1.1340614110490341 1.5576030914624015
P 5.622058007252844 9.227030047405702 0.4366412199066144 1.180423029032709 1.4656743263718888 1.1669869581324612
P 7.875634279116134 1.5737515551329253 1.6179947364061136 0.5654015260063682 0.013539429247331522 1.4970631250958153
P 1.0410598188832751 1.1700291528993834 4.012164331611119 -1.0501213205909528 -1.6249623947436662 1.6101492409902334
P 5.009174516273698 3.8239872793113823 7.388020395803543 -0.4385162994453286 0.08791347328353247 0.4542355099527984
P 8.145148549710836 5.829646526196954 13.008563525164769 2.6513817437319886 -0.6154189955750756 -0.8749438346824286
P 4.615306264453075 6.683123891658099 3.3978785550160837 0.43948894777124314 0.17952907800900048 0.5953384227751166
P 3.0999538103508204 0.8391827990170216 6.430616637786431 0.3926316210980722 -0.38809079580492517 0.5066412772480242
Ni 2.9349456429548866 6.344788755667788 12.051241652439096 1.5719729870308283 -0.07724776603957019 -0.5691694776892327
Ni 0.6030051471846659 5.521711304653299 3.3502929650287117 0.29351096624481066 -1.1022846328580693 -2.5261407376425913
Ni 6.888274462152553 3.497860495862857 6.195770552454631 -0.5015003564770331 -0.23248403293947703 -0.304292887351663
Ni 0.8174878493591172 5.105222241072708 13.564805657335153 0.9149463432172952 -0.07096013325864553 1.834586235255518
Ni 4.210718483571373 4.877627656606618 4.834099110604169 -0.843484587731883 -0.25043933186631706 0.16860368934574832
Ni 3.614202745733232 5.81176203413498 0.6917111111944466 -0.7196762003239542 0.5169796830595548 -0.28660858269802253
Ni 3.279254683161527 8.004817631507594 2.068784431952807 0.6277032122590673 0.1097537090870755 -1.0820937597324913
Ni 3.1063278358775905 6.773579223257708 6.0776389228633825 -0.37629226050810033 -0.06735724639873561 1.2360578447881938
Ni 6.898361241234333 0.1436844930935306 3.3739903822681647 0.45155487779684167 -0.0303888967045025 -0.8419714935214662
Ni 4.250097864636032 3.3189411340690813 3.005269289551332 -0.841501495863583 0.4734460214429781 -1.2330761364520504
Ni 2.594256304835711 6.490256114879464 3.758427867853194 -0.37212013140828176 -0.251454917615025 0.8683013896652465
Ni 8.05911316281957 1.8157132861878216 4.453638644741974 -0.1705556708657966 1.5536248235409438 -0.5946149143455308
Ni 6.408221941092595 8.132782009674226 11.103384974992007 -0.2792778533645642 0.7714196514448327 -0.6076429511740825
Ni 6.243809303088943 2.1295665810672815 9.01878923767411 0.3387659814278682 0.8626246509954434 -1.905243235451448
Ni 8.640638309236358 4.7263259703799285 4.917965467786981 -0.47592507911109005 -0.8608133088183174 2.106215313825573
Ni 6.342155399136291 6.393910625384314 -3.535955766675407e-05 -1.8643171866610473 2.201212433428764 0.6771676375377822
Ni 8.247337671367754 8.489308707569405 1.4379513128844053 -0.09967498469483478 0.24027164730469588 -0.28586733365662376
Ni 5.525749738344712 6.194492025290575 6.223158390896883 0.18652607815212394 -0.901649626108389 0.3848877154865952
Ni 6.806686935409895 7.976474154493664 5.432587539554245 0.6045434863131524 1.114302226144236 0.29427124144960287
Ni 1.0873622291332141 8.241196274509845 0.07630313390082896 0.5861289883617067 -0.1749139478344923 -0.0763594498973459
Ni 4.165411724024156 8.238172101814662 12.98722310159821 -0.7517514835919441 -0.8756655433398016 -0.3904783222004953
Ni 4.710618882658486 8.550266723957538 6.867978076051836 0.11831316862131236 1.179075513865879 -1.453074378219691
Ni 7.851012860803968 6.357601942748611 7.879802984862109 -0.636636253082639 -0.4437294682151519 -1.8273292965827885
Ni 3.976787094165532 0.9100228812583372 2.373182767215112 1.399868483620673 0.6008390408783717 -0.5597800660545327
P 7.173626092523259 0.47297130437985335 6.753115344515413 -1.7692149089385596 1.082625206755929 -0.8484905255869064
P 0.8912906903270365 0.656745161235404 9.689417677867091 0.18520633089943586 1.0563246211881872 -0.9531274822727069
P 5.402261135766951 4.592536570345036 13.294917319840925 -0.6042436956845464 -0.644653981180793 -0.9241526923069117
P 4.224089979457459 7.790780645862679 10.70167806754547 -1.287828549602582 -0.3897877238913739 -0.14165929954642056
P 1.644638163108013 6.6512444588774935 1.5352180119082421 -0.2158806200548411 -1.3548978324472538 -0.4874009409611735
P 8.414467412223694 4.373046768702038 7.4951198434027635 1.2719645859871322 -1.7739056295460094 -0.5729572268664391
P 2.037817834068809 3.100847104439244 1.364462985876785 0.008005901023612018 0.5146551486914362 0.81337928370607
P 6.5263135585528 6.536967951586597 9.521481180787545 0.609031603991493 -0.09469887163648207 0.08988525229792263
Ni 8.815426185871177 1.4014295423880254 7.908852722514698 -0.5296367097019331 0.5037801536501453 0.2857935429958949
Ni 2.058158884873947 2.678291085174778 13.010184481729388 -0.13947823273470175 -0.447514646289197 0.3652437160034226
Ni 4.040555264873497 3.340622126006854 0.6513751610434346 -1.0139577261862023 0.6838843874363254 0.6624079627301044
Ni 7.93598746096523 5.884667858955774 1.7551516690514262 0.7165991040605272 0.550155141370259 -0.5647525795684596
Ni 8.029718204222393 4.902630585935715 10.930096157499325 -0.3180943120111296 1.6771539891455567 0.16546102995170858
Ni 6.3830142985349 3.0985022074571327 11.14703355738759 -1.067109370508517 0.2279226388210397 0.4135886829657135
Ni 0.7592562409700259 3.014402291090785 3.0089736684742623 0.4535526249531608 0.24835879518820456 0.37372784221503375
Ni 0.9191093570640175 8.089447941238944 2.9420771074274654 -1.0929512712722855 -0.0940830924293541 0.37440172835360686
Ni 3.1096590784156692 1.9781532330795388 4.4369414894058625 -1.1022185555068245 -1.361165153513204 0.5103616635224049
Ni 8.08019862536506 0.8529106820238013 10.174159062376596 0.0872149045546111 0.15169431518491938 0.9385948358741707
Ni 5.05062894506459 1.727984362587254 6.416779884562625 1.2115544603301909 0.05730269037621099 0.9709714524326633
Ni 0.8782178896517674 5.965762212920448 11.429819758798104 -1.4510768881736882 0.06312341082304612 -0.8964426279861528
Ni 0.20068875262571537 7.07243262156906 4.979359895557896 -0.5484636126004491 0.43536361274895985 2.0461075499003987
Ni 3.944126029057556 3.86401802064885 11.638612363732234 0.060412953870418534 0.3488904714563798 0.39476666516320397
Ni 6.855836720566684 5.933873474993089 4.109662728789141 -1.6866616715256757 0.11836767600833163 0.7082147366515739
Ni 4.749895907108846 6.860545124824414 8.268734856329518 -0.006997257253439562 -0.2198627446310407 1.8200996116035686
Ni 5.473789798868093 1.7092344918771196 4.082166020129862 0.9276884733743122 0.8383313256657174 0.5494681426055633
Ni 3.146628426470936 5.065982437209365 8.015652544388427 0.39343226262249664 -0.7272781810409281 -0.004626957249050097
Ni 3.068307006239076 0.0943151064733384 9.60410809242267 -1.2505331555862333 -1.5955746856101682 -0.8836179654176588
Ni 5.932412566952647 7.7580544447274224 2.056214109202276 -0.4260425924583501 -0.2126297172177112 -0.7018710538217332
Ni 1.3169015892709746 3.0398425623173386 8.679430535540813 0.5129461364201295 -0.8676943522088668 -0.5372505174934489
Ni 2.3066993546842105 7.045112710698117 9.219370050597474 1.2114259051721266 1.163493600267222 0.4304690036608199
Ni -0.18074596210166607 0.3705337353045914 5.791053430033043 0.0941496840012314 -1.169882534512701 0.11536745572942712
Ni 3.6280394989570386 2.6234651604978008 8.811072307704789 1.2804973060484914 -0.15617112000935038 0.5613312125917365
P 0.4872593572212483 7.13629384374457 7.267778358928394 1.5295551841862496 0.9985730162000158 0.29603347555634824
P 8.298348485875424 8.271093711031762 12.11346702981518 1.5378611329487837 0.8456160322525887 0.3110294347445482
P 7.897557204869521 7.513645460076116 3.4823292754150725 2.305319742863339 2.2101853263513354 -1.1925925745157073
P 4.944959698521521 1.4068079172120738 10.55882824611581 0.307603954002767 1.6257365539055293 1.0758868595908309
P 6.0507275079349565 4.074063098336123 3.8877135768589524 -0.5090514293514137 -3.3124259933453466 0.6822933888001217
P 2.0618902487224653 3.9311639596286647 4.612776195050552 0.08727943924395937 1.4952399558441474 0.2376699480157907
P 8.33801632648947 2.9462327859679847 11.924163124243485 0.7640045899276842 -1.1885538856699596 -0.19068149508139418
P 2.554783872303508 4.804042556072752 10.232761946121189 0.09855372660619802 0.6080463572600882 -0.36167502481555774
