# total energy = -381170.74370312854 ev
CRYSTAL
PRIMVEC
9.21304097439571 0.00000000000000 0.00000000000000

0.00000000000000 9.21304097439571 0.00000000000000

0.00000000000000 0.00000000000000 13.48421673447895

PRIMCOORD
 96 1
Ni 0.9765086221068296 8.987035711166191 10.794047448449493 -0.2955362242049555 0.1290279839356552 0.7578619673650561
Ni 8.051432990279778 1.0870835379733683 6.979700220913044 0.5681438646381958 -1.1516678112768874 -0.8436756206967663
Ni 0.9295129009074283 8.584923331736851 1.6378741274736164 0.37772179386577526 -0.9591538909724449 0.0806040841063128
Ni 7.1376743891666985 4.718937931734116 12.599449667502343 0.3228333693580117 -3.034594385509006 1.0150417032790005
Ni 2.9894566968247247 4.519871758835573 12.229631760043256 1.72789496714385 0.6487183810581538 -0.5078417253140286
Ni 4.617944578315602 6.639258094093888 12.948110748032928 -0.2567501045756933 -0.1594744733509705 -0.41352234850415237
Ni 4.807373910521226 1.493139098871704 5.376413691268636 -0.3920400102606603 -0.974166305220877 -0.06854663872114647
Ni 0.4530346986242693 2.908584624547064 7.227351364551646 0.3149035729879738 -0.152381313949615 -0.46725917590597593
Ni 3.375529172194438 8.745442141863721 1.1550462974604774 -1.4618135578649019 -0.30014852616598636 0.34892775245221846
Ni 6.124829534083895 8.670798085177278 5.723928669521782 0.04474233721269714 1.5695476654187872 -1.2649434174742926
Ni 8.482732283012334 7.733454099576752 12.196986271217936 0.5152907253929061 0.484300961879611 -0.923959602459499
Ni 5.772062201261886 1.667016818180918 7.480112981930555 -0.329802087366361 0.4903057733127943 -1.4838363419928962
Ni 4.428607376518132 2.2475028808373922 11.566059731401179 -0.2677845080129839 -0.460559138177981 -0.21125314858515876
Ni 1.9932045282504733 7.171458609836804 9.60043812604796 1.1217093172415842 0.4122807627875674 -2.31089440873764
Ni 2.918986147627661 1.7346866029700971 13.49001443836263 0.3312578459762811 -0.1388927925448769 -1.4781225794375705
Ni 2.4965129479962664 1.687746160015588 2.586677293240348 -0.41147395061555586 1.525902932145643 -0.16798122527040102
Ni 6.059195831314923 3.652067805309754 5.4542168996506835 0.9527757553602431 0.015762405040579307 -0.5126224345321236
Ni 8.495925357459999 0.0660068309219977 0.33934393235395927 -2.2457375124243324 0.6894423411400772 -0.048771255866432134
Ni 5.168138162771012 0.21491997353369782 3.5541562140439953 -1.164231249764195 -0.040649912310878375 -1.0979129861529349
Ni 1.8515908778768215 6.167439847855163 5.7359295764879334 -0.04736769065068617 0.0039101336876835886 0.06113569096905599
Ni 8.376155826859684 3.7023341559986256 1.4243913883071222 0.19780705038258192 0.6886954356717235 -0.5462198108715948
Ni 3.220796151699644 9.174124931004702 11.266076673322893 0.411496319213059 0.1839907133247799 -0.03245889185965378
Ni -0.046688005636166596 1.936747014133647 11.887213435969194 -1.2193371895994032 0.24033952442815384 1.326672004832341
Ni 1.3811545877604077 0.4309261645795324 6.396427213409909 -0.34604477447746856 0.023800959074339656 -0.33390531090145714
P 8.970148207351546 9.056216434649098 4.858511814871235 0.3449656824806769 0.29933862867018124 0.8738014935478692
Ni 7.016799293668533 1.3530087480693334 4.38200597346563 0.8817585436114168 1.4648338327484642 0.8478814312479979
P 5.805966191462591 7.454649058420845 3.40928206852577 -0.7842831376710623 -0.9962965614610133 -0.9273619432728286
Ni 4.373623948931771 6.50267476400545 1.8843248118939697 0.9252839776978774 0.34994745196598437 -0.03775896391632852
P 3.7556500231973975 6.325323728308827 10.940459250479812 0.42033937142598576 -0.4292662416019704 0.178446386467783
P 6.470060599518902 8.234173654853414 12.86836543064699 1.8426705549255493 -0.46804541925269716 -1.8080002572368732
P 6.108559304003884 9.000615733328104 7.980229083033808 2.060279984746039 -2.6504057529719645 1.8919676013884643
Ni 8.105974191906999 4.999115715971518 5.815365335702472 0.27164450518902244 0.36008171218650886 1.498078196623891
Ni 6.4386349172975414 6.374751692283495 5.077279154249448 1.0321238555722676 -0.658782193052059 -0.923929520552512
Ni 0.6818635998769901 4.269940387595159 9.48046959376603 0.8084857030591948 -1.1787171020851956 -0.4028571554808223
Ni 7.476834060704349 6.130624536756789 2.8167453484827414 -0.8822735355746225 -0.8455512404529244 1.2010587030051896
Ni 7.393916693365669 3.673128816613779 3.597467640221314 0.02600773691767134 0.01992116440395924 -0.9485192940767341
Ni 6.484009143313432 1.756853179171971 12.668772271813808 0.5998193413646057 -0.06687105079093644 0.4589249450086677
Ni 7.473213335663894 4.5226264580393805 10.052119428976445 0.8492605709837115 0.65256192317396 -0.08647596950605752
Ni 5.464217655455809 5.649353710641454 9.298796720622898 -1.297141856583708 0.8444875750751004 -0.16167096678165704
Ni 1.7432639439692428 9.12462326270351 3.761529785845792 -0.2530382029417449 -1.0106338040192917 1.2471737521956974
Ni 6.171945024813898 8.761509685045795 1.4098154364330635 -0.4743898734134863 -0.11610330545418714 0.844216837912217
Ni 5.745740543652262 9.379059810902659 10.539586946344224 0.16424669792863325 -0.10595336150437883 0.8674922635003898
Ni 8.03459155166921 9.566084539455462 10.699860689585405 -1.126113359846551 -2.7509636544923852 0.44803220935556387
Ni 3.44608263875884 4.413442711335969 9.7724428341594 -0.8040965728525635 -0.12787073040276045 -0.43626349885540994
Ni 4.8751818909226365 4.018986368824232 7.2481037389883545 -1.0223238387627103 2.2800740809226734 1.1630310588085064
Ni -0.02418515344453014 1.716850155951465 9.386147403201953 1.360428789567812 0.7557870871138984 -0.8871524609334785
Ni 0.002780495718090433 6.892027081905449 4.423699589675763 -0.15172825374664836 0.09169505181315177 -0.3930635664291682
Ni 2.3627580214381587 4.303052056285738 7.297428516905891 -0.6173113275017821 -1.534158487286216 -0.40559409479601116
Ni 5.873378011108939 7.005236927445194 7.116119558874968 -1.0039008561708325 -2.1382620578484723 2.821802688792134
Ni 4.91380295802083 2.855913670205371 3.504224296736723 -0.7444845176168856 -1.240916972652708 -0.631893339081015
Ni 1.8386281294495412 6.852936149725669 11.791758962688904 0.33740046853890926 0.395194496729242 2.5519474142930503
Ni 7.02866569023878 2.2478437633475625 10.396681627648253 0.14037606195862276 0.5106033472195658 1.2735327018052003
Ni 0.41510092437090435 4.373006675197138 4.140180235534612 -0.05017584952344262 0.860704551154595 -1.3727371746215196
Ni 0.2251031475469694 6.003189756198052 7.662850882591947 0.403254390919241 -0.0361013737082475 0.8705873574859458
Ni 1.438736092856714 2.5410119351346916 4.9040076530258885 1.1689178566065868 -0.904396592725907 0.2718463367871834
Ni 3.3868243602341295 6.088456448944662 7.90628153223301 0.9083967150242356 2.1032328341584807 -0.5381468040554732
P 2.5636852285814133 7.332778954514615 2.501119468403971 -1.6000880000994895 -0.44504741569562706 1.6285030609070728
Ni -0.03454890305778371 5.719612359899762 12.927170427563583 0.7464179871941726 0.6358014158861696 -0.10827378210743933
P 2.4691041515704244 2.6536137199806205 9.044281861576817 -1.3768699658429706 -0.06097345435957886 -0.6412912353561472
Ni 5.494860229207861 3.123976305770511 9.142298481507872 -1.9350153245075576 0.43587423383679125 1.797742326954291
P 1.5778622222102052 -0.2026270131736976 12.950888479838772 -0.12665819815189802 0.143141797629218 0.30959861583529263
P 9.08333962680966 4.134858783159632 11.547828966235649 0.4926950994805772 -0.8223102676471129 -0.7504440776344301
P 5.979355619608588 4.190284436705132 0.870846099603067 -0.10511261077063833 -0.4316591673141792 0.9128917746811116
Ni 4.090562482919145 8.847402864567853 7.413622466365748 -1.5113126930362941 -0.32552531436787807 -1.911243418898941
Ni 3.541815345871755 8.257952513197987 5.099636440396201 0.1699162375095848 -0.2070023437286048 0.19387686209024027
Ni 8.981388117146345 1.3743461505978207 2.8803908770437494 0.814098935480914 0.4259693160182535 0.6987893295726159
Ni 4.210304374397015 5.8689465384767265 5.249243324981302 -0.5193461264092024 -0.6966416871019937 1.0326082514078538
Ni 1.9791362149253438 2.47643773205949 11.201730032355831 1.0787716373377938 0.34660938873168695 -0.8510230622007731
Ni 6.925240094044998 1.8681006470180346 1.7993068712493756 -0.6691437387920411 0.12377804839062555 -0.06675278004551728
Ni 5.408801214951125 4.314522292100922 11.126811427053088 -0.9985863859364544 -0.051647291862646535 2.0349273649138633
Ni 4.778564731891442 0.020030993340862224 13.06508688465801 -0.8603973043268215 1.9032953676964577 -2.0416875664558325
Ni 6.94261588902286 6.548666263755972 0.5879817926638911 0.2041306786077646 -0.8914050655622455 0.27776347360256676
Ni 7.404843359772744 7.21168274603688 9.313979811886693 -0.5293094082695012 0.9542693091866341 -1.1918706087480182
Ni 9.312725917031715 6.339871119756357 10.341908257392483 -1.593576938453849 -0.2319929522356714 0.4751727743260977
Ni 7.601486502936834 8.634268378344181 3.275963840102313 0.8299870674660803 -0.7813348536760156 -0.7889746296094605
Ni 4.557801847872612 1.4492389593862802 1.612469167425126 1.4276225138054899 0.9323529687295168 -0.42150613804057724
Ni 4.109578199162149 1.1126589392769437 9.199943556585804 2.4528833237093366 1.3746960981201035 1.8333765312181327
Ni 4.394371716848072 7.776875160939775 9.461241056280189 0.26820051250448007 0.02085061819676409 0.3941639985821986
Ni 7.47930315564288 2.9855780066414375 8.13718521027736 1.475150384183124 1.515301245370397 -0.3519194880906907
Ni 6.616842765789998 6.455181538602016 11.429868876851478 -0.9943618063321454 1.877129507934367 -0.8002743708929959
Ni 2.161314884009241 0.4148494083566437 8.827415172518824 -2.021848677353034 -0.5312007117549432 -0.5574784145045496
Ni 2.764851974785868 4.831161981906613 3.565968253673431 -0.061444223348410314 -0.3137085242386081 -0.41606645508224477
Ni 2.301693986913628 6.11115738151383 0.6630487279237619 -0.07079995353169743 -0.32711785566597856 -0.34530712498049565
Ni 3.4135882438028924 2.0195446119417277 7.088045580902254 -2.20599237131591 -0.5135092080124511 1.0880854585395519
Ni 8.205917258672555 7.767164615920334 6.652653855439493 0.018643326132800148 -0.010916904022819909 -1.203872518304901
Ni 3.7499747900551053 3.778286464480858 1.0670663641937292 0.35151299668089137 0.533419316672817 0.5870975229225631
Ni 9.268963973158522 8.62602270681439 8.570150220789342 -0.06360523555547111 -0.5554174182104629 0.16762846991667257
Ni 1.2310741528773954 3.7957083246627956 13.356871257714667 -0.18197445422569952 -0.2675554227213134 0.4709014006442535
P 6.912922258474797 5.096866079023008 7.974350241689495 1.4921026957667463 0.6360592975332465 -2.0325128419350995
Ni 5.267758773108028 4.987359875891056 3.26834465534797 0.9640112190647461 0.7730481881871911 -0.2025885309316253
P 1.3509081747634202 3.6777261239806682 2.0637054804822275 0.20996039791566423 -0.0518097855824398 0.7312731611329342
Ni 0.07790363052693533 6.121558904594425 1.6243355639953727 1.4532674680671036 0.21144186755719716 0.9862384058940629
P 3.7757620912974357 3.3697618086439918 5.532654886544913 -1.2824606004224492 1.8051836137236845 -2.256707895392907
P 1.9077720007691858 7.754146589248161 7.322698045254395 -0.0016321362867842857 -0.7446166723193757 0.2824745059249909
P 8.276332529624726 2.874229195346404 5.451574599544824 0.7465750815973272 -0.39987956090973714 0.32837872465627316
Ni 0.8050299786259483 1.6744056769148759 0.7770333901960834 -0.26947038035583915 0.5495445043694537 0.4833900200295675
