# total energy = -381169.781993638 ev
CRYSTAL
PRIMVEC
9.16524015729486 0.00000000000000 0.00000000000000
0.00000000000000 9.16524015729486 0.00000000000000
0.00000000000000 0.00000000000000 13.41425540686957
PRIMCOORD
 96 1
Ni 1.7196465301687016 4.662605170647792 0.6790737292991866 0.4133585692327784 1.2570596438508415 0.8478950580947526
Ni 8.2463699128596 5.320944376956147 -0.04808818248167452 0.3391891850082159 -0.4456750219772969 0.31180667923020494
Ni 5.841951623535637 3.8119425631814994 9.7893481887212 0.071646874913025 -0.9230602305736813 -0.8012184799738201
Ni 0.3614999880943522 2.9074799955171007 4.994408863846422 0.6582255492176406 0.030327447338947766 1.3915314245098873
Ni 8.544066081035874 1.8151391682102826 11.987113223774836 1.8101005914093278 1.5097947137298706 3.2585115027150784
Ni 6.301973361570288 5.811871305073936 3.173531338723015 -1.4854504805575512 0.7540749895187981 1.212614011942957
Ni 1.6266010112707143 0.09965457363373774 7.408532226058592 -0.5454623638802799 -2.0068640310187438 1.0230617453699993
Ni 1.748828655087062 0.6879062713167192 5.244692327746574 -0.060567991391044074 0.5960632167562832 -0.6470175963169631
Ni 2.013502462685178 5.964628364123656 2.878592074810386 -1.0448837263410973 -0.7552314717207445 -0.6444611484436965
Ni 7.111758997574304 2.1375906502698756 8.653294664622413 -0.9545585582922786 -0.36298320210402 -1.0225362118838326
Ni 7.591925933652472 1.935515433498518 2.1377226297293053 -0.06588477561826718 0.7413395442300007 0.8026762954662692
Ni 3.8427194399013027 8.623913653990884 2.969742222027118 1.0753263591016706 0.8701952642538497 -0.2531382188547189
Ni 0.8722705778518209 3.8179916217386975 2.9847787151618737 -0.05028486429748114 0.30145258968939054 -0.541223643208584
Ni 8.073623464850414 4.507657619181147 8.670197200669662 0.018261517313349195 0.3526669077796765 -1.4597512760192344
Ni 5.048434288954388 0.5930130399867151 10.00407052049722 0.7500820663093211 0.1610040226216195 -0.18255038133382756
Ni 2.964771912245954 2.696395347591614 4.44096399901597 -0.704682040907967 0.2789009296411197 0.09348428250309061
Ni 4.045390397288142 5.37425857942163 4.328337860873138 0.5434792720119801 -0.21824192119816607 -0.6894595675312578
Ni 0.5879969040043602 8.92139902164168 12.546367017868244 -0.7915002242447917 -0.9933053400431733 -0.015110373278877204
Ni 3.223634957533065 8.40903459660679 12.99511367736189 0.4522678447034662 -0.4905729109312519 2.225751042000076
Ni 0.5219320193195225 7.739541292928573 10.4195097804413 0.6513905285736782 1.350153632894049 -1.419210892703027
Ni 7.072247646907517 4.326387497750454 1.7739679925363614 0.01660212733305528 -1.6466902733390607 -1.089523219427343
Ni 7.286338493631126 7.7607038326385265 2.3269041865335938 0.8357116286546833 0.04805340386380111 -0.1098210719899012
Ni 6.573851047995612 2.17530561384998 4.582927154637187 -0.2570432103360799 -0.18225007648458935 -0.685305179043252
Ni 1.067053929489684 8.158411102293803 3.8196826085626414 0.2586614626657932 0.17326175694304996 -2.956188594605593
P 3.742726668902776 0.9685734231304568 1.389676801541731 -1.2697896898230003 0.27221040499482146 -1.937257840684831
Ni 5.991015090769371 6.513085505216489 0.7378806602394109 0.39577788003653774 -0.47769631207889995 0.15442714073505018
P 8.323981167196497 6.873251950856187 8.574137234257337 1.138651858633194 -1.2827146254147845 0.28411564107283976
Ni 3.660331159161552 5.913962916087004 13.005255015685432 -0.739084943867869 0.4206360767307981 -1.8349338484029238
P 7.22961482179704 3.939815994984565 11.921436945276096 1.2906786174568674 0.4912151725009411 0.08578434275567162
P 3.024437626196496 7.244829120592416 4.236583724324711 -0.24658653377913017 -0.4334147165527052 0.45959111783775686
P -0.23435244331815067 7.363995574169213 0.6160031286001619 1.056294282170884 0.23937870317678128 1.5801637503717367
Ni 6.442898095472519 2.0920852324873196 11.236155598763592 -1.7988065065527472 -0.17047699510906122 0.3643173475344113
Ni 1.892310491015745 8.06619962025749 1.5296547661273585 -0.3821330355595935 -0.38222456683213524 -0.5987237943075817
Ni 3.0732883566659868 1.0353330330253483 8.880398319436189 -0.46395813655720103 -0.5242255659886906 1.0923576035523446
Ni 4.716982540980903 7.6150864957343485 11.33597148062552 0.5107511856513397 1.6974795880767861 0.47109011961629194
Ni 3.9296425783201867 6.3535278379100415 1.8317704131464811 0.5752367669292352 -0.038554463234430375 0.7797055456027088
Ni 5.383277175815999 1.4109887346675671 2.61924052221858 -0.352711902084999 -1.480240911332154 -0.1635257606022087
Ni 1.7403233121460322 1.257489291158555 0.2372569079496294 0.8590441327330366 0.4485428304433952 0.9295568940416185
Ni 4.629912758718209 6.257851895063697 7.389685742556827 -2.106558041876972 -1.3930871990327816 2.055859744191156
Ni 4.2112445846382185 5.685665946994218 10.22115290163457 -1.8778399037378304 -1.0737083638822733 -0.2067912561590632
Ni 4.774897694045953 7.646853218399874 5.728276065385534 1.3297226187332065 -1.0287050596987057 -4.454329269036303
Ni 9.46695994681925 7.794266942390736 5.743554520862578 -2.375385903552806 -0.21286008806096243 2.5784958542055403
Ni 4.5009120023658475 -0.11978144119677754 7.305216138949702 -0.22365486468362128 0.2968413161696243 2.194824527624549
Ni 1.2509544748687338 6.567059604979122 7.844053443888545 -2.7911638808603545 -2.0079042993578002 0.05872271065218919
Ni 3.2457415169875516 2.987602525679257 13.345185527403256 -0.4276328197636055 1.4992274797369858 -0.015473927265883026
Ni 1.7091431648557494 2.192884544626806 11.240891278394658 0.2790662515743903 -0.6449972234528246 0.07251436511964286
Ni 1.3686728204878973 6.546327831560363 12.329283720206869 -0.6938026749913019 0.8837717173867038 0.8447272018897323
Ni 8.981541328084607 0.223377068132932 1.6698737765312501 0.7300608859923878 -0.38252898544643155 -0.21140664344388752
Ni 8.435925411465607 5.871995281036385 10.718955592979041 -0.7277708044066304 -1.5843096542193102 0.46712110766621484
Ni 2.6254472229078747 9.04028135277109 11.003016633252976 -0.912876348062144 -0.13725499983113781 -1.4530512382912395
Ni 6.2073422561110965 5.539507860915988 5.76395817868081 -1.3222000851039164 -0.1888012473395458 -1.185615628977242
Ni 0.6587131481100733 4.098374651105051 12.079845291456678 -0.8765793134033226 -0.45417997412451455 -0.4798539818518509
Ni 7.518970621356571 7.388686731370865 12.464513173825097 0.08852745271844753 0.4104383102621899 0.497795139711304
Ni 1.8008230629582478 1.4809561786458212 2.807710856380386 -1.3983697875879595 -1.803554305650378 -0.03111420490630125
Ni 0.120554070948856 3.0507693614007825 0.8037512418311992 -0.6239815404331059 -0.79152490683514 0.14760111895215225
Ni 8.718590585651267 5.783248259810104 2.4393286893911856 0.9874961895605638 0.7038364050782201 0.15158350063866796
P 5.624918734695572 4.178872956116972 7.470250953822487 0.49949746711439136 1.0366741939471116 0.8650348030988328
Ni 0.8731311939101859 5.752288078285537 4.8508903669567855 -0.23354512721413972 -0.9032303403319476 -0.317891194861388
P 4.8460657844954085 4.575856171793433 0.6559516612263101 0.7484597002145497 -1.0289878810464472 1.4100945322240555
Ni 4.923887839357782 2.1333563092798373 7.832288941518819 0.8209488685232119 0.8085206700621882 0.6120032850253073
P 8.873684780961723 1.2095275889921675 3.8309100278544097 0.7534602387529347 0.01840652753164572 -2.696992856702884
P 2.406856243227319 5.022973251572728 11.319660102573636 1.1219898245964806 -0.6399000114355754 -0.4234082401592966
P 7.331284831759153 7.150775425268229 4.59925228054943 0.5061507107648509 -0.21715691566410342 0.387342604784991
Ni 2.9714900333405385 2.0258022150848136 6.8343216764205 -1.757255165473522 1.0616815146247265 -1.3409812223661615
Ni 3.4893627677585726 4.255457703547191 8.277333760480262 -0.4783493722818665 0.6501090907580933 -1.34878812000509
Ni 0.34808482595773044 1.9973991355866985 7.446185782529101 -1.6239699489234096 -1.0587394012772668 0.5539359485689298
Ni 5.0700550906762505 3.484679329996863 3.0584370013840423 1.3456547165824306 2.5277255656312083 0.8507973193432121
Ni 8.280024675014193 0.7143690694564117 5.687657553697974 -0.30368353590243824 -0.6677270609501726 1.6282055842713121
Ni 4.009077715464479 1.3768390495401144 12.059482877219516 0.981194158601936 -0.8371648161614421 0.06497563354043649
Ni 2.6956254674116065 4.804987177747893 6.113225320629266 -0.12974300772480882 0.30745560135036076 -0.20322076519898546
Ni 8.223539299426298 9.024003886108087 8.053731227437472 0.9952439518267828 0.7450524743052136 -0.08036137196788741
Ni 2.7203441203339738 7.5325168464285985 9.098353231444214 1.82084600285129 0.6886573833449365 0.5157545524032021
Ni 3.07674365223578 3.1614029763158342 2.188173611144382 -0.14775718491404227 1.169111717784948 -0.8841864363266191
Ni 7.322073765319785 3.128536424821726 6.492915561024331 0.31830848490446473 0.7528529441862389 0.5568762621441764
Ni 8.879165594624153 2.723167014327333 9.768515597659821 2.340029892651015 -0.14598338084307116 1.5263001675840617
Ni 7.213172380809748 7.917612745516141 10.256432660883391 -2.1799129006200393 -2.143943424503966 -1.320209537036449
Ni 8.31590659054666 5.415795448181056 6.373716112582677 1.7224467995450852 0.39747018013729607 0.969415677909769
Ni 2.5606123134630003 7.375397133025507 6.2904673189752796 0.8850644680561983 0.29402492976675165 -0.35350585874120405
Ni 6.579240209255662 7.431030141271249 7.476086462282134 0.07862433467212265 1.1466904126669542 -0.8388555736003037
Ni 5.951989497835207 8.970570535519506 0.8200002962494657 -0.540681654662185 0.7795749335621155 -1.2219723132294051
Ni 7.834758973763008 0.7611887826891225 10.271255603920597 2.6618196512358607 -1.0703335338727695 -2.455258765920049
Ni 6.359466913584382 9.068271996458488 4.088383622721413 0.9332106887441219 -1.4068019775157128 0.11983140503805169
Ni 4.98492833934405 3.551457270372231 11.909310415916963 -1.9358830718244917 2.0190142932280324 0.44103546632275653
Ni 5.92223912802208 2.6452899680235307 0.46318191286877497 -0.04380337033819553 -0.5236038732442918 0.21071013159749521
Ni 3.5984749527940862 2.941519697761695 9.945436812597498 0.21193937601890595 -0.38617223862597366 2.418752957684531
Ni 5.9051367897376394 5.720035597887388 11.905004586053067 1.214941888745185 -0.4084035392203482 -0.25913403142683755
Ni 7.766835378357868 4.2425805410125506 4.266027975113883 0.07806126307980105 0.4404122309164608 -0.6605063748320174
Ni 4.707487352094151 3.410706676034525 5.623644766302466 1.1943388677828528 0.20127109767178242 0.42987585016151125
P 6.818205517985688 0.12995669090920323 12.00538321366562 -1.3203645745570745 0.3265830662084311 1.5778646699249148
Ni 4.501966004993238 0.706553869105317 5.127853845190275 -0.8391623062074451 2.073418579010526 -0.11153882601195629
P 1.2578833964887968 3.7002641108792953 7.116222469570297 0.7214494901742929 2.319273119719638 0.6557063823402126
Ni 1.1237501056030557 4.5694496688669455 9.65559433878132 1.049459518637238 0.35050743823451247 -0.8694894964360768
P 1.051949613577166 0.7608166739354524 9.614627547964709 -1.1020061823857021 -0.10756878562061474 -0.16700754850322205
P 6.486432986603868 0.8974089987770967 6.901701773079517 -0.2343298278989642 -0.5634667708775005 -0.4124190881376446
P 4.971336288070831 7.774662493521272 9.172507357163267 -0.09722626604402611 -0.9374352683484307 -0.5251007695047925
Ni 6.292322363599486 5.871197905135665 9.270175823237393 0.4001258725925883 1.6620436158666798 -0.6527796956117209
