# total energy = -340874.44572877325 ev
CRYSTAL
PRIMVEC
9.26095975972781 0.00000000000000 0.00000000000000

0.00000000000000 9.26095975972781 0.00000000000000

0.00000000000000 0.00000000000000 13.55435072052052

PRIMCOORD
 96 1
Ni 2.7045892593905876 3.6656361149935446 1.7546111030939753 -1.0495988724285794 1.3513561378425822 0.7302778870992004
Ni 8.102376797459911 6.242831609609966 1.953602275170086 -0.8100800441295082 -0.8964117747482174 -2.605168992621352
Ni 3.129806234500054 6.064641479628888 6.175077500678281 0.04225145247004337 -1.3954520997205322 -0.32014939476794546
Ni 8.29168934031492 2.7285381017652597 0.14093699257336176 1.5369231945155466 0.18433986913408254 1.1152879870962726
Ni 7.266575163927746 7.129559261788041 5.855357676688426 0.26991415276147707 -0.30428594537312753 1.1511258227304884
Ni 5.345574245993375 -0.0768863415170165 2.388995193048806 -1.4165189476931606 0.06693892791439439 1.135030974051155
Ni 2.4516817047077075 2.32329701722121 13.380083024714482 -0.5296765618009329 -1.0956406451789904 -0.595043260132201
Ni 1.4328927639515865 6.291775782831213 1.6394260617933325 -0.822886708975873 -0.8183818791269841 0.10268111851101024
Ni 7.147692221327719 8.41506384848019 1.010443889764699 0.6525871199849406 -0.9186016805816954 0.04437749767411067
Ni 5.472616094290264 6.745201641882385 1.8533273793540614 -0.311238979652193 -0.7671680752573304 -0.949216834364391
Ni 4.560994981824827 1.2683718108247288 12.264396660228199 0.47562631692374857 0.5510246884594059 -0.8278743919984517
Ni 1.819037749123411 7.038135065375525 7.715068635721088 -0.5911310695619884 -0.07972656659736592 1.3158456036407984
Ni 6.916992448552985 7.798802531009114 3.56833213512253 0.1090983348912637 -1.2818435356637408 -0.29647082020408294
Ni 8.557062147061337 3.4692111549135753 8.981438227009312 0.8882240967311026 -0.32702838127596584 -0.6020562011149244
Ni 3.1348071528613546 1.2852452798141538 1.9900089608403535 1.1531343685200852 0.4761901598470185 -0.558708944477541
Ni 6.051055651414021 4.361847299525928 11.668046406603045 0.09641456877600814 0.8048205955027815 0.1687052479206191
Ni 7.273909844190987 9.48989085776266 12.16122123176262 -0.7777617916127766 -0.5676718100977837 -0.20746154275321044
Ni 2.4606370529584067 1.0710577985916396 6.240748819722084 8.818883843210619e-05 0.17063151840905452 -0.11676793562137955
Ni 9.10600554681335 8.17387140810665 2.7207783434413084 0.7057030259733136 1.107408070127564 -0.09630992487734381
Ni 8.919452770016985 5.755084633064387 13.36662314555464 -0.2424588847640018 -0.5642581564305443 0.3235033988418428
Ni 6.475003875013305 2.86619301014002 9.715094250819929 -2.0228470367105613 -0.68267802583305 0.6591825138142712
Ni 3.338418617845711 6.107482680257362 3.0031968730318184 1.644986917494709 0.9108354063727153 -1.0842408879824812
Ni 4.60512345588334 7.991226756400044 4.8021577871265935 0.002917173646794976 -1.9224680839701664 -0.22462751300953573
Ni 6.631847492359574 6.944636413939063 8.590137665445383 0.7698078268730226 -0.35539150579969114 0.4896432000281309
P 8.619832933455587 9.126981621051026 4.753754453965161 0.06192784785304818 -1.087957931822752 0.01923879362495396
P 0.7903256898040797 6.623410757864861 11.327832078291786 -1.1623132068058757 -0.3897327022837223 0.7197787873400894
P 6.725151663637542 5.625051494710646 3.4653595216793813 -1.5747520924378622 -0.5245852633209546 -0.5798788936869368
P 0.15809847741655794 4.169515683734282 1.6959336609880495 0.8853845703997784 1.029885453160052 -1.0562428601076583
P 8.779390012060857 3.1958276178291487 6.729287608341536 -0.08059919901030635 0.5435155245665543 -0.4929180141246608
P 6.1694385021779174 6.75279562902362 13.08713293149347 0.6114756946566114 -0.15282354369335616 0.37557569405704994
P 8.929408301939944 6.816362857971706 7.575472630145349 -1.5204907599911361 2.440111368755649 -2.4722131343862004
P 3.346799786580853 8.36318395096166 2.914917698610965 0.6513007970733493 -0.32148688263244635 -0.2902847459980291
Ni 2.404645289231698 6.989589113431197 13.028753692297236 0.1346317032756778 1.2173733810048133 0.3025355383409241
Ni 4.801844766681016 8.01799093059293 11.32758758894968 0.08007237997255887 -0.2957043743517036 -0.906660191949103
Ni 2.8176841020354053 6.054769296345283 10.84525642177019 -0.10674834660184843 -0.6992014774093701 0.3743477351872198
Ni 2.774898467166501 9.01171045282305 8.231178228143184 -0.30323102174605193 0.7316925080585398 0.7448236461238592
Ni 0.7406119308127886 0.5417828255354239 12.297862991121221 0.8481992195987327 2.14144868310657 0.15036325507832168
Ni 1.2465437282736451 2.52250026527968 7.867175272064014 -0.415935071710703 -0.8558865609406615 0.9878548584515632
Ni 3.667145651461863 2.2201484455394236 8.180850467508645 0.5476110347921667 0.4580538552576241 -1.4111887937294987
Ni 8.8396418173546 6.1394978187296125 3.9808041771786224 1.5268832937810413 0.534703325591563 1.7095725146855782
Ni 7.821575231472888 1.1107873166841935 8.917692261534608 0.7419622654156641 -1.0688944874333979 0.5535333138138725
Ni 3.4852418765495217 3.6912611911152458 11.4600137593489 0.4952985985416954 -0.6847817024396142 -0.6959482605793951
Ni 6.388738033280872 0.21680462849826151 4.948625424969156 -0.48029364049243095 1.9212856336262911 1.5009475477518859
Ni 3.676239914111487 4.2983171144175545 4.449771779181526 -0.6001001058298181 -0.018101337586401086 -0.4397871957379522
Ni 7.231124209322083 6.7662981085991305 11.153644535191734 -0.06578270282276413 -0.5010997786045047 0.16283901894782923
Ni 4.773413619701029 7.756202115338778 7.297310437737902 -1.4205080142478956 -0.5310407891383112 0.02880509715715039
Ni 3.835361727600126 0.8421759522508374 4.335372993378798 1.388161736706706 1.6786624553702831 0.24813253811001137
Ni 8.833094318685268 2.0135271685783582 4.8014252451962625 -0.4095458803549075 0.020590679667158086 1.018844107744226
Ni 0.6418752804408604 5.542953084945963 6.192196385105806 -0.5554428721317595 -1.100936860580923 -0.4359323407682363
Ni 0.2146931296346013 -0.11414040502072664 6.921746099284199 0.09005443088593523 -0.6099739133001043 -0.23275914097773462
Ni 6.681041711498885 -0.21110913814233595 7.275324918868037 1.0200648675252046 0.7122655096821797 -0.3347224074861138
Ni 0.8567749294818635 3.9091160124693802 4.159098029910899 -0.7640076752514777 1.9679316156196043 -0.9873866605658929
Ni 7.4972193709429105 0.8303552629983116 2.9906723508247386 1.4129962792518826 0.9698141988997685 -1.4985438234064
Ni 2.241411609534879 3.613135733159818 6.098143002169636 0.0688572279830298 0.3572085044037719 0.5382337073423247
Ni 6.128106838017762 1.3238634827153075 0.6695173936349523 0.25328811416902186 1.2356868346020202 0.3147827311393933
Ni 1.6904863643582035 0.21396892256820557 3.6199203124033152 -1.9611408179500158 0.8349107300199428 0.6224692175536376
P 5.205418878437965 6.082302130212221 5.867773845664344 1.4564484368982464 -0.24483921207072026 0.0012277017595140147
P 1.7213438828394132 6.004574893533712 4.256811344210746 -0.46399284644987826 0.21562325262839638 0.924461481796582
P 1.0616023585048102 2.7326962727730817 11.684623524874763 1.1130087041437928 0.9282872833005754 0.1231679256104524
P 2.154877199964524 2.3311132674007244 4.35696492145171 1.1012471927324905 -1.4989937664596247 -0.9678439625472751
P 5.829700187206976 2.2103966547348874 2.6497810463427194 -0.8654263821102965 -0.2928928730448375 -0.2553282845275022
P 6.828883675794814 8.71533195223657 10.03110042987852 -1.0623980810757767 0.02165820169972399 0.1707875843709446
P 0.7126910627248537 0.6374309457712527 9.018495958162541 1.1496885760633297 -0.21608553697679558 0.03148032999646836
P 3.0360575371455267 0.12286515536921032 13.210978822519092 -1.567669474559468 -0.6360526126650271 -0.23569276968476183
Ni 4.479350359096633 3.477240407171441 0.06124921067802415 0.9036792549439083 0.03829246782229534 0.2788353665105069
Ni 8.953218229915691 8.326788378443307 10.24031199733154 0.5298673376555004 0.3150010177977865 0.24780035158157324
Ni 4.932572477029382 4.36489415534235 7.1536479446576315 -1.3431358068153192 -0.5161137355148337 -0.5167048321316133
Ni 2.0818082261299664 8.47053699845091 10.894933136921766 1.1296794799312544 -0.5682315392559956 -0.57109960483241
Ni 7.746441063574314 3.5472995690292897 2.8617570103343475 -0.8765155500449227 -0.010506041737646422 -0.41028790072725463
Ni 1.4879491707255337 4.022229377034055 9.88540515609398 0.90971337695313 0.15390366413141238 -0.18604553897127957
Ni 5.110392168613328 4.307670683945172 2.4219725452576117 0.2953835006771751 -0.07041428805750453 0.44335948647024287
Ni 7.574066816428228 4.521404378131198 5.05524407833609 -0.08815875652511913 -1.1619470817157085 0.916345537557667
Ni 2.1373276809003303 8.019204116343541 5.2984229946142545 -0.1968140903416933 -0.7462359530903536 0.7033193562324855
Ni 9.106588987288834 5.830329932482103 9.28744164324931 0.0475047304491827 -0.338007763105605 2.721348145618797
Ni 5.520356342720827 2.9542369561786934 4.603830625877344 0.7591189797006088 -0.8586679803405406 1.032138767970603
Ni 4.7249695383159125 5.080247744046599 9.712180752826473 0.12771980664719293 0.04331948872324152 -1.0714473357622387
Ni 0.6047592052400824 2.0677223060789705 2.508435645436519 0.16184477335535996 0.06787532368573472 -1.33575134142579
Ni 4.98856424075609 8.596013744519912 13.642454354348127 -0.5369283582673398 -1.1088856831143548 0.04962409078503067
Ni 1.695440977919862 4.624830778610835 12.838355764938628 0.08631193312436748 -0.21305960566627818 0.06908168528901006
Ni 8.702913004972674 4.441584164508885 11.513174447625518 0.21986788683736327 0.4460231493453351 -1.207539939854159
Ni 2.569119937558914 1.5642131757353661 10.214518371739144 -2.449434703039104 -0.27468997688356567 0.5853520009863661
Ni 7.164556429357217 4.806336332246258 7.301226897691595 1.3543442739366287 1.9902855578347725 0.7036194039714075
Ni 6.561732764742155 4.663810158949194 0.520177932118613 0.7808779686442552 0.7018936795295524 -0.46687479598336373
Ni 5.100973772366211 0.4190149102454611 8.873152600855278 0.37164833397818575 -0.5234958869115177 0.6494758280494686
Ni 1.6572395182154835 8.841262485342058 1.2656481625098057 -0.2385844894102601 -0.5757443026932729 -0.6503140076800478
Ni 6.720687880952085 2.592392729858818 7.317614166284782 -0.7249284498618289 -1.5562684318113778 -0.9875375843214605
Ni 8.36124841033664 2.1319007583823266 11.246465284361442 -0.5398131360143026 -0.7938422421144071 -1.099390856250042
Ni -0.24838172356590274 8.022121318720966 13.165449165223423 0.3437752617170015 -1.0511027106676156 0.11036486030851315
P 8.878760112091884 0.5873884227025059 0.941116343741189 -0.10973931090937229 -0.042324214689507755 0.22325840057615096
P 7.0369681844245555 4.86392098108064 9.600709356457092 -0.30037324058228265 2.0457383394864377 0.9045279760974487
P 3.5849175882581834 5.422171645560628 0.5342749653215234 -0.33015689960261846 -0.2947605223811956 1.000686720108909
P 3.698753307697268 7.135486276142175 9.282913959940347 0.558908976303489 1.1658998957158693 -0.6043467969213141
P 6.6028143829842465 2.4430319681346435 12.44059012724873 -1.2872037715343896 0.39905140858148697 -0.31055763731445224
P 5.0148561059926315 1.2387737828937726 6.511076240030159 -0.243631050695232 -0.12165148896592597 -0.1364690135947327
P 2.852922054562717 4.350141446176513 8.001418442801176 0.06170750431212598 0.4386273711018962 1.2458668604588157
P 4.568051833290218 2.03108594860248 10.187382833053132 0.5918005848251873 1.1438634847411204 0.5873258368832853
