# total energy = -340893.2985695435 ev
CRYSTAL
PRIMVEC
9.04151466769448 0.00000000000000 0.00000000000000

0.00000000000000 9.04151466769448 0.00000000000000

0.00000000000000 0.00000000000000 13.23317064648325

PRIMCOORD
 96 1
Ni 6.425930846410501 1.9093146732696955 11.594850690629439 -0.06502551294176544 0.36490150217265543 -0.6962750477911944
Ni 4.735167658575784 0.36179529350207196 6.215249095086173 -0.15523035336263588 0.031637424399622936 -1.133891461130073
Ni 2.4943910683754957 1.7422546121915026 4.838139657472104 0.3176708513204658 -0.28986899861684917 0.6403147303754908
Ni 3.5244817594280176 4.451580560252596 4.998261260420113 0.05335270458952747 0.5512103221076508 -1.5833190081712667
Ni 5.0113226320839965 4.738476852836465 2.640282231851135 -0.6076835746040308 -0.7580383450419202 -0.2763917900660207
Ni 7.115481940101489 6.041747859168336 2.490733775811436 0.5213546721987988 0.861990102735238 -0.24403034301617973
Ni 5.078898910511144 4.446074277999167 11.565301213354138 0.6590765843640263 1.303780444946148 -0.8635584756636224
Ni 5.664626294651833 8.130916336354652 12.253346894901949 -0.08750569632215252 -1.1657713405578052 0.3854746983383168
Ni 1.8669370954013462 6.1620813739645515 0.41765829005841854 0.3846827985646407 1.357243964081927 -1.2218689548823214
Ni 2.678602882220119 1.3506756661918564 0.40473163695870035 0.2419212670929769 1.208199942035661 1.0841542418059458
Ni 0.536814599683211 0.11636881074345849 4.774236946334888 0.2830373204069964 -0.9421463006708549 0.7829235383193742
Ni 8.719654544781699 2.2366717426747424 1.406632694497687 0.02435631735717741 0.7780392136438794 -0.3274544130697909
Ni 7.055554782834278 0.6655169401834894 4.855462294860192 -0.8993451463449287 0.23935659168959422 0.11313985195048902
Ni 0.5311383369595605 7.2945581737819944 2.190301432059079 0.7865631919544905 -0.35064216404016385 0.7979254110448452
Ni 7.5821777875157395 3.9346862250369656 3.7604435849405062 -0.10162233822919273 -0.8973183457228869 -0.6617042517948604
Ni 7.594944405811047 3.868628921024557 12.690438111803218 1.2892110317724055 -0.2823382374574428 -0.7185616271035367
Ni 7.9560353653434275 8.793460426612153 7.00153806351299 0.2605046865221191 0.8417917734104922 0.36793874633708246
Ni 7.0325441287538535 0.5781777196388594 0.3183752290264641 0.1053920896842701 0.7488890744424844 -0.0732440441968158
Ni 1.8301200488726674 6.599663545096299 8.870154168133485 0.01612621613790126 0.21877336822160384 0.9605726256968423
Ni 0.11028025496437882 4.825275390821564 1.530151534807668 -0.9479294830115351 -1.086973456422296 -0.808208281028092
Ni 6.376428555215875 1.859116185468314 7.204111384747211 0.09927363549135806 0.8209157012924313 -0.7891800607520473
Ni 3.543930056845303 4.273516976181917 0.45180447324118106 -0.9470889893881107 0.4935232518088275 0.40013075768859474
Ni 6.020138639815796 5.761298166332735 4.639893605017016 -0.45915120208686094 -1.2232758625321771 1.4902779838531819
Ni 5.442150791978778 2.976611195968955 9.237586845847401 0.20443021212605436 -0.49349137012962757 0.19648550335768097
P 0.18919640071870494 5.391156650912533 12.543166309082752 -0.47843961800282764 0.1012145612678128 -0.47709647371137187
P 3.796848338413756 6.1606980222654135 12.508402590468283 1.1524373424530603 0.11239834579877415 0.7231163363537546
P 2.3313183151359933 8.490669151759763 1.5284182765022778 1.0754695695477543 -1.3677425496204059 -0.26727157293230747
P 6.415415565194182 7.7661183559291596 5.88172028796981 -1.1014845055542772 -0.5368854208445464 1.0482567565783882
P 4.628586287141582 1.0067726254834004 12.64196474494429 0.5970494919289524 0.4858991596046664 -0.29493561450647915
P 3.9765303535572816 6.280190676224898 8.095352443718133 1.082167293282904 0.06343142898176818 0.5226199120644677
P 5.142741043502058 0.9288257300699078 3.7870690364674346 -1.1250872325748817 0.36821385437534004 0.44276581875030196
P 0.10375408988962428 5.57136307388972 3.5519155223399324 0.17179802791332993 1.048084235556266 0.38617763794261234
Ni 1.300459095361728 0.9638615982670176 2.5834328060766456 0.4968006370085186 0.9076387538122884 0.47730113352301023
Ni 1.6944973332709519 6.572936828608388 4.763954936189404 0.6013352637884999 0.06360934932052917 -0.9423031379636934
Ni 5.938710761368526 5.662555787860312 9.269914780489664 -0.3882962269475119 0.2462839149370468 -0.7434748454054486
Ni 8.814518113587912 2.373361356972525 10.309896888266739 -0.6977868564500306 0.488867498204371 -0.47156808769397496
Ni 2.524589726382811 5.2673692776256615 6.940004229141617 -1.486069859309105 0.529282668796624 0.5116112196587899
Ni 0.42462477688315997 8.983811428716347 9.155620093143474 0.8798423004253105 0.9430857817659888 -0.4111057686428597
Ni 1.5646250208107493 1.1482904084566035 11.468341821516159 -0.5732017387770774 -0.2645796279224411 0.3978172790640697
Ni 4.036466552338866 6.8174555433239075 1.5413729582965539 0.24624843371342112 1.068576956192979 -0.27626426334922094
Ni 5.8187660316903695 8.012418248976248 8.158473968013485 -0.8478811741376817 -0.4479823299542349 -0.6261075856371733
Ni 4.887209764279679 2.6356195228887485 5.1175450553975725 1.241952613006074 -0.2867440798346223 0.723992825421437
Ni 0.860277488847614 7.491816892867503 6.7979322013373205 -0.8788254291250219 -0.8052139742864584 0.8909294114774076
Ni 4.983510933871272 4.462303796299506 7.163326921711462 0.4031824000307249 -0.13925094721524406 -0.39448410092577874
Ni 8.15112412097931 7.171014921383205 8.885279717528826 -0.1015439195827735 -0.6422669690058551 0.26617705431654803
Ni 4.5775740630465895 0.04849506649342403 10.388568008981542 -0.5399486331509025 0.5422117181534661 -0.09292352490361415
Ni 7.9737205674578915 7.313753308796824 4.537707313719747 1.633960227366902 -0.4487341205185949 -0.24710229707328413
Ni 7.006423193728963 5.892291626575245 7.0466895779911125 0.20851878037313124 0.9622448711929427 -1.1584095008760953
Ni 2.2608577936237153 5.266076341070258 2.4997192327957682 1.0939354895624256 -0.31754101061082085 1.4139938672784615
Ni 2.3982616875569995 4.987841819256153 11.33076975541553 -1.020891734301874 0.3090376011255 0.373986238082743
Ni 1.0813379945212234 3.5100605440023687 3.75444906091091 0.029269952608710882 -0.8321010284852897 -0.1746144143162025
Ni 3.8896866080003165 2.5206205015728673 2.9126343444138763 -0.9089569584030797 0.31714223251050544 -1.0216905760540855
Ni 1.1602432904583013 3.3426116978061176 8.175955736054545 -1.006799517874866 0.4934147512554212 -0.04174520225758618
Ni 3.4085152960741776 2.6508454330936346 7.4869308585000915 1.0256328485312851 0.29527088635871085 -0.5930362570045012
Ni 4.033292980793786 7.009813761619006 5.841292964751814 0.2858755611867399 0.15321126605007807 0.6176679395102523
Ni 0.802265324324699 7.033294574446851 11.306910103135438 -0.02508522510340196 0.2420125412552026 -0.20205939790103267
P 0.0634235108754235 5.517376191565863 7.82760517442579 1.0436367413078735 0.6677831109990886 -1.043903364705699
P 8.525524189669403 1.7413233362110376 7.948013733791305 -0.4960653015043908 -0.6490572524548112 0.9018239469027244
P 1.874929794107474 3.224909263692575 10.252702980794618 0.08444608356022232 -0.34879276953625094 0.6495894708091975
P 3.9123808090776704 6.347794079195167 3.763937226094406 -0.5047823696624145 -0.9363916575752648 -0.33738607036120605
P 6.956740072246869 4.071240216619146 10.398558882364204 0.6794749455147201 -0.8339010578085057 0.3401034692923691
P 6.585848111133671 7.8276458612404705 10.22095641552657 -0.9527677849404431 0.5072624557717909 0.28024767347700125
P 2.3827283658634166 8.597404228938313 5.882051207395879 0.9354670888784664 0.857823115841742 -1.281713694954096
P 6.8267050125279445 3.981322356175209 1.5592905273304152 0.9901215429985529 0.08943556635501371 1.1062785845088108
Ni 5.43596639614734 3.1293675813083532 0.2627554492067633 -0.22066081505230387 -2.3915445155905393 0.5508819922339545
Ni 1.5621657289011714 1.1515453536310447 7.181561847899832 -1.400856044344923 -0.522062754009417 -1.1880229528671542
Ni 6.752013062288892 0.9199379214408087 9.41012063972728 1.0621535691651385 -0.5180410344445336 -0.3472215683943891
Ni 2.4745178197826574 1.3376739685228387 9.344047060989 1.1948196640740132 0.2719360682875123 -0.16805861547555573
Ni 6.56782837298739 1.8675067108068735 2.4534691743212713 0.12140389173149413 1.0676529017168128 0.4560625358592081
Ni 3.95449618302919 6.664527369211412 10.33826825621918 -0.03362257315045177 0.7815744804906475 0.3584094666904086
Ni 7.999796294910915 7.192334812275796 0.311246899094438 0.8501558291044713 -0.5654976852646003 -0.8977472057301894
Ni 7.640441306138236 3.9484654929420997 8.227313345998603 -0.10925517218410216 -1.665917496999789 -0.06566983139398366
Ni 2.992931129413028 8.396176285042861 12.402457741645973 0.5828297487851446 -1.4351172795206382 -0.0669209301922654
Ni 0.21103437038489314 4.970617734374735 9.872513630451206 -0.1782617812608027 -0.5203925653958457 1.718217591955086
Ni 8.504764872667968 2.5967771771404173 5.834504595760229 0.13723983032248624 -1.0807202764237323 0.39444039217203686
Ni 3.6640104092390624 2.6872375284467616 11.641696584901148 -0.8033622657897003 -0.7295276391967371 -0.6458431163928877
Ni 1.1806138223416789 3.3091128870524935 12.780437345876514 -0.41713783376955255 0.2122221973666474 -0.42901684459532563
Ni 3.296319144214065 8.49915913375643 7.919258101477992 -1.0866189012963545 -2.010825843879969 0.6550648921014718
Ni 5.624228808431268 7.83291706412019 3.8350523532473213 -0.5591421753602177 1.4081476929103298 -1.6666075810882781
Ni 3.171591453432354 8.523815343452823 3.642946393203241 0.18382667694308988 0.07216160976591443 0.16928348902159232
Ni 3.693693700927091 4.369058658566139 9.35082277186046 -1.4134580493796494 0.6230531150815657 -0.20228848319270323
Ni 7.115671811903332 6.0948938806554604 11.34567017110297 1.27720732244331 -0.30691104170080047 0.6226327397146956
Ni 0.6589546090512411 8.846660697185518 13.449532917449016 -0.4387970639105411 0.2279136399599752 -0.38011549090893243
Ni 4.773811091007899 0.39583569096666515 1.6158497204935172 -0.7611954026136633 -0.4886741512466423 -0.18774889481563148
Ni 6.054044318716225 5.633713357009015 0.2928211969527889 -1.3651871301884035 0.8690426387066451 0.033668338786722665
Ni 8.302976354881363 8.861967981019765 11.179845180888192 -0.7913351594218372 0.03584477761275118 0.8934696614007581
Ni -0.014635499316299776 4.814154328142222 5.605610522033465 0.3729806796363641 1.6201338630067712 1.3807962974805703
Ni 7.903820619836767 8.821498162684215 2.439005463778067 -0.4106522260452089 0.26818534299582847 0.6791610138187272
P 8.600704381684622 1.6989095922851944 3.7765745507341735 -0.3722108913498751 0.8470918454671669 -1.6119592976157786
P 1.9816287052285302 3.167649353165531 1.6094582739829268 -0.18280569187774323 -0.22956917328552723 0.8859252733945969
P 4.574970106907037 1.0132463497747888 8.439335049753076 1.925300411212639 1.745320104598833 -0.5185557692974231
P 8.637060310980255 1.606930266564111 12.44489680181206 -0.22066955680305222 0.4464833768112052 0.237826528198313
P 6.192912937978008 7.8006840653788485 1.214265434688214 -0.1737165850922815 -1.1990660980551928 1.2816208781299736
P 1.8395232238210528 3.4770951825967784 6.065304620716916 -0.165893746613753 -1.6760705262733908 -1.4003238259905366
P 6.6713265880202455 4.009088846816066 5.7785810210575805 -0.07928870772899893 -0.698623750529029 0.9173243565311685
P 2.320052588226677 8.340851258591735 10.26036476007468 -0.32486865462048564 0.20515911987227892 -0.2555961934769082
