# total energy = -340869.83004295593 ev
CRYSTAL
PRIMVEC
9.26203090801251 0.00000000000000 0.00000000000000
0.00000000000000 9.26203090801251 0.00000000000000
0.00000000000000 0.00000000000000 13.55591845430711
PRIMCOORD
 96 1
Ni 2.2917784223725297 0.59175764292581 11.078872833036195 1.0888369919935956 -0.4950003505749862 0.07559994602350205
Ni 6.625760580249565 4.00645821825605 8.14848941502582 -0.8757172225133434 -1.182070849048777 -0.24274659120774963
Ni 4.982222444346499 0.30137166893737555 11.437318063093938 -0.31801743602660715 -0.24791913654762462 0.15648170927123375
Ni 0.39319359169668006 9.107521782145472 5.390930864142809 -0.20662953377021834 -0.28218062883365597 1.9196519546776103
Ni 4.445886016213689 8.596674463277889 9.07865666258694 0.6688292928754159 -0.5417496909153832 1.2145971038112564
Ni 3.0757722969598817 7.576109793322652 12.031934894984202 -0.3877377833408806 1.3098487626274151 0.8348276833878332
Ni 2.14368780898528 8.735169612566747 8.885959181782445 -1.2064634189605288 0.7281708680585266 -0.8434953863651603
Ni 2.130507938896465 6.785817737666856 10.118612320608195 -1.6923867469349114 -1.0293707183071625 -0.059212505804414145
Ni 6.42899799404663 5.569073989460612 2.057883427755633 -0.9385974069773318 0.3135573433727245 -0.694932674830687
Ni 8.459198137397163 3.478670644720553 11.946288894484365 0.040958701800548815 1.1435832344965402 1.3191528136371604
Ni 6.726151734074346 8.346997894069052 1.3302656833556294 -0.27306863923005875 -0.6655657916327957 -0.25059899737263297
Ni 6.98124659140824 8.77849739350524 9.349205218615976 -0.04875248681335475 0.5961886865905539 0.39060636313792724
Ni -0.29572460864703803 6.8692315886997894 5.703584613020581 1.6660943888972854 -0.002460031504718344 1.2389760468762534
Ni 7.625142985346675 1.1753054215882857 1.875081500853379 0.44343713378571364 1.241740496995268 -0.6051674930503965
Ni 5.3722558310717785 4.595856821890489 10.310956918032238 -0.5686853389639625 -1.4544704872362693 0.0041435898547283485
Ni 0.7594606069195711 8.077426482308724 11.807191713181611 -1.2330964481670248 1.2376491005347137 -0.43389474151291724
Ni 5.2116059036715745 3.746723083399671 3.3024790293308697 -1.678634173235509 -0.03066040519833429 0.6116831826817273
Ni 3.308999499142904 5.120022941311631 11.594377101082033 -0.16069086225657486 2.023536349468102 -1.5474243511571866
Ni 3.8747243515847853 5.42356748271762 2.169421435868458 3.2643216816389526 0.5960267070913929 -0.3908619307921591
Ni 3.713166745148247 7.588724679521502 6.978993139270075 0.5823013870855004 0.49345177514094374 1.0172479669016996
Ni 0.772018994729426 7.527771253622354 3.4479614547933055 -0.5885622803935476 0.16334166961586064 -0.8960106826550569
Ni 5.104935092840318 1.2377129863517662 7.470667127799741 0.9069571543642315 0.2706823983860693 -0.11323189744366305
Ni 7.770955139112105 4.571877423675492 6.259987231278068 -1.1105335031304229 1.2082328521561256 -0.8651193923928391
Ni 9.035583587500481 7.254013403857706 9.353760285453419 -0.47227822638712214 1.2147200025423661 1.117793784237262
P 3.0470414768506036 3.3124542366995646 1.9097446518072714 0.39583907229177634 -0.05517330273803401 0.182913163989885
P 6.030193463980447 0.8639344640016589 0.07898196920756614 0.37118142164409623 -0.6158280580880362 -0.06547005667835176
P 3.1786178889951575 2.396846901843727 7.418029153317134 -0.5698821874855411 0.7845052809841973 0.981451783138697
P 5.683950959742809 4.768704844095309 5.404229288228206 -0.37541397166820506 1.756897010803155 -0.22085981843698738
P -0.03178821653676784 0.4166746926447916 10.008090357294208 0.5946524524516856 -1.2388384928571246 1.4951715645000572
P 5.811489126378774 8.289295441044938 7.416280481867542 0.16696692507327374 -0.5986978261656527 -0.46566843438008826
P 6.406074467363695 7.329248881532647 3.27814674773542 -0.05631770075512236 0.017481444614215056 0.7793162805840901
P 6.303210351266453 1.5878362815712812 3.910896287385809 -0.2874696451467372 0.06007845334913524 -1.7238341668109152
Ni 1.7528671496264454 5.227082757444173 1.9675869614992294 -3.087222296117367 -1.0420012625869797 1.151326625887385
Ni 2.912010327149389 4.558660505462745 4.3479798653016495 0.15802231428547622 -0.9654618354683437 -0.738890825579192
Ni 2.8878179022217827 4.137904961966842 9.105957425112443 0.7231217356703934 0.09254557273890514 0.08768181688870061
Ni 1.073265626248531 5.75900119679809 8.097343553734575 0.1313833715417092 -0.9110138409321085 -0.717546555575461
Ni 7.33271288112029 0.02525014886586535 6.288916258850383 0.10902403000990257 1.4053881278873215 1.0635509637332974
Ni 1.2693150360657754 6.0194124599162295 12.929798030882802 0.33003940018814776 -0.32996689507899946 0.8121688083377367
Ni 7.8466351942742305 4.4160900625413655 9.961336551095101 0.04806111717328497 0.11633393340775448 -0.5808847092436319
Ni 7.872957886327928 1.918907579058757 9.111813807302998 0.11252792939810298 0.5068040280781336 0.144583415171751
Ni 8.589070335840844 4.787117761689521 1.546038588151181 0.5830760604679959 1.5909724109514665 0.07009341438297605
Ni 9.032119587912836 9.153192856922665 7.895427573492695 0.5475781246717022 -0.4908945559367288 -0.12794657794601835
Ni 8.064644879552176 5.743607701304338 3.8590715192235083 0.12415034412837973 -0.12451158412254042 -0.15529488805198416
Ni 0.554249196053939 1.7133645874839338 12.026092405840123 -1.4550343301595394 -2.096185440393396 1.1339248854711697
Ni 4.179389598739717 1.4764603590006586 4.263973244285803 0.5501708250995427 -0.10722605756921533 0.12903029792850035
Ni 6.14872893650093 6.438667554392886 9.147913499262353 2.3099217604117253 1.6624066556330532 0.6959839989133368
Ni 7.5144617150997775 9.13569688039577 4.008078147474977 0.7251531642781254 -1.3585248876768796 -0.8804907326425868
Ni 6.230799793041329 5.0445373888001495 12.539577551131666 1.1277285268524706 -0.31316062215493806 0.33035076078097947
Ni 4.434456669980662 6.47179783921909 5.178726619885008 0.3302710565829796 -0.5720442281338665 -1.9803747264789635
Ni 2.9313401858109183 8.592497287304555 4.724386952044733 -1.0694220778020938 -1.1976455635585825 -2.4462910152038
Ni 6.785465780489503 6.805027189925607 5.958653536667724 -1.860781148483331 0.02961088088789739 0.011598503470876799
Ni 3.7494461205086735 1.556641761220524 9.48293412676098 -0.3245444385118475 1.4596299199500216 -0.2606813213092994
Ni 4.895566882469514 5.585430736176597 7.510792098424312 -1.4708797818322281 -1.0395430308544744 -1.130260292135389
Ni 5.051863655307705 1.3257856389691505 1.880612785756429 0.17886444784180808 2.6735397678862665 0.2525376091562425
Ni 4.670045690064351 8.637501495850971 2.7791261162300347 0.5334555692273909 -2.760253821545059 1.8398827077677666
Ni 7.952259395604408 6.931222362069036 13.30051174718063 0.0619180776610353 -0.9178545180030258 -0.08616178069974839
P 2.7585477357919967 6.772962038662448 3.489998108612767 0.724772641010255 -0.6323661649523754 0.20226560037456778
P 1.0030686934283441 4.305575508852162 10.122868223844886 -2.0453210494433613 1.2649611580861053 -1.0657001488658164
P 8.0129164365121 5.919910461065818 8.045843882859778 0.20750756549979746 -0.7224447642080267 -1.1137959759317786
P 4.1012458433361125 6.4563395095084575 9.716584603759928 0.0968817382204138 -0.9194943675992938 0.0683761745815532
P 1.646242648950104 7.95914108462478 6.835002826999001 -1.900309031374624 0.509010291700833 0.639235381268383
P 8.596452174534297 2.9906357081641097 0.60896186547674 -0.20276259461564433 -2.490009539137673 -1.6334650328980382
P 0.8319165490965126 0.5207567658162985 3.5871132820788585 0.5822515076841714 0.8506991032024511 -2.9748216363257476
P 8.070359552668691 2.3236861191089786 6.965275145181148 0.4092064947376178 0.235847035874439 -0.6019808677922986
Ni 9.149738119366004 5.804607437358402 11.20781697597538 -0.32550860219732974 0.38299692622178555 0.44707807297241065
Ni 1.4212679163729383 3.7414807738632905 0.08145215287073329 -0.752627201328678 -0.23660551130701832 0.5222010793594942
Ni 2.0522067289661496 2.238327241569614 4.558394685173533 -1.372305743511056 -0.29623145049976723 0.22286219357899684
Ni 0.5107241338555086 3.8711584696563284 6.117094469678481 2.9107276340593162 -0.5010753531244725 -0.8319531900535155
Ni 7.3989364026487685 3.4269514637114593 2.989757667626921 0.028004455632725966 -0.10773899264989185 -0.3763079442373842
Ni 4.189401854232344 4.341465878911302 -0.08635732447933217 -0.07751233255486652 -0.20369796194572018 3.837055736750991
Ni 3.1268338737691823 2.122940859583351 13.519114202441491 0.650974524082182 -0.6699829468638848 0.31425848320480715
Ni 5.272420399105978 6.976949009032126 11.631073267836692 1.5118107157186351 0.6836979824571322 -1.733355476037789
Ni 2.08304003010857 3.195826742561579 11.415167915998085 1.7327813487018737 -1.166481222140636 0.5673583926224228
Ni 6.602846315597614 2.0018398044805745 11.985953542169078 -0.25627907847654574 1.6488199180875538 -1.0848551245277123
Ni 8.467311676538273 2.2489507911071196 4.590508925200902 0.9483038356318184 -1.9980382051969978 1.995604141834208
Ni 0.47751419556284963 9.046975885609577 0.804078588773996 -0.8976011670706283 -0.7701292147681833 0.7257771710153694
Ni 1.1405079711851396 2.084753505840426 9.433034934840048 0.5993717123042258 0.7036703118140011 -0.4827151054497299
Ni 2.963359026919163 0.5688767215853971 6.473425178062804 1.1716123727196144 -0.2791917214086611 0.2631387817108565
Ni 4.199330751446125 8.872275457208154 0.39061411606791346 0.9343753984761843 -0.4199855876309928 -1.0431310053160485
Ni 1.1005700935864267 1.5540483925452828 7.0292452145714615 -1.3581178820464481 2.1253810881207458 0.081944143073975
Ni 2.099331942607674 6.121174394326493 5.760194146388701 -1.2628410264193088 1.5010452496720148 -0.46170919262202414
Ni 7.802408996330387 9.16273274883516 12.522008404560006 -0.07386959359595666 1.0230596884874703 0.22466633666727112
Ni 0.8029810381025099 2.290009374454776 2.2516784592316146 0.051720825413059314 0.1619134218097663 -0.13245475022901704
Ni 5.2243041481492725 8.78737968121794 5.203222839428857 0.7389913557127983 0.1599951217411309 0.16840494307138093
Ni 2.546187889413682 7.198163357030192 1.0494844354965702 0.018946202085199627 1.1830676657444077 0.39657826445064603
Ni 6.165863693819488 2.8385809455161337 5.619958661478137 0.40214033191945575 -2.042757402481243 1.1670504643805448
Ni 6.397423730425569 3.4505418566251707 0.8642836425697181 0.031898134260177326 -0.744055400499267 -0.853754345089007
Ni 2.6966403207015985 0.22204329977104503 2.1568278523408675 -2.169540813357096 1.2458550333842737 0.21321644295911665
P 4.334000681939002 3.1517116889895314 11.83252707273252 0.8403401285656303 -1.0305387704733349 -1.7028501083600802
P 5.906971403782562 1.5311433899243139 9.770414601630048 -0.770698457008092 -0.5106948784921076 0.3633989494851999
P 0.17655190839492288 3.9433837872617934 3.700020218370972 0.9752963050602622 1.1390071850900836 0.6132818946274148
P 2.21013361925735 0.1850229619319783 13.245487873516803 -0.17293754083441185 -0.8054646568446838 -0.37691163925965415
P 7.410310176695897 7.479590168448767 11.231417557123171 0.32653961456500535 -0.9402794226654452 -0.7656696363349329
P 0.17175788115812005 6.732820396382108 1.2578523465212097 1.0199453112282046 1.2279329016882143 0.22345791818146676
P 4.349264508998992 6.498231675644584 -0.1204823514331119 -0.14028658756861 -0.11906753028883364 1.6318017862630025
P 2.791779902959015 4.590818277035735 6.957778457303505 0.3060929166748793 -0.47127781014706577 -0.1925578861685006
