# total energy = -340866.83914410725 ev
CRYSTAL
PRIMVEC
9.31358912573548 0.00000000000000 0.00000000000000

0.00000000000000 9.31358912573548 0.00000000000000

0.00000000000000 0.00000000000000 13.63137911752858

PRIMCOORD
 96 1
Ni 7.092326152808319 -0.007169601002795581 12.619399320359388 -0.5793096514470282 -0.5708535502598749 0.4749382897177885
Ni 3.265772815310807 5.124709347594492 9.25750560721882 0.5480154693194368 -0.8033221565803842 0.5542210839095164
Ni 2.4175097338187106 9.222288132196903 5.546908318571666 -0.22347925833770546 0.464050182050375 2.950930431530447
Ni 5.846587022996778 1.3945423452203014 10.177201124163165 -0.2572180453510473 -0.00010567233992885026 1.9310848791049002
Ni 4.306994838834495 3.3546989654468065 11.692670180815265 0.5036927361426615 -0.9645197832700485 -0.056442913479076984
Ni 8.695818872798323 5.431322019214438 7.16049510658821 0.5265300457521512 -0.32194839564989713 0.23068091829246726
Ni 3.6203225307881026 5.504443008397274 12.243378056230696 -0.003872338471212685 1.0188024558730129 -0.17081483806445422
Ni 5.06034313230439 5.047918804248105 1.9198436805272319 -0.05330565340167594 0.2271507936520217 -0.9922640432628523
Ni 8.504070697368919 3.6876970354051766 3.183349413187476 -0.41929910308692947 -0.3514137520988658 0.5950715422669751
Ni 9.135289895035154 2.7447520056220696 0.5148011947891966 1.299133175982124 0.9506137147119176 1.264894566514228
Ni 5.188740273671681 8.450359228178062 2.539158248417196 0.011657638843586376 -3.021094808360674 2.68735533361312
Ni 0.2875142255088344 0.05012294325376068 12.9640412395951 0.6199857890101516 -0.17268300162144454 0.3542800179030673
Ni 0.10698240561030398 7.8888149916730566 10.28160459691081 0.042246824484353046 0.512403376542782 -2.3829912267038895
Ni 1.9761107986076285 3.627084196581854 7.099958639196719 0.32122205900683387 -1.0635190820540974 -0.052890420241128264
Ni 7.099516243707459 2.423805720150082 12.7727522241156 -1.2236566429103635 0.42549083371993823 0.18189989223402223
Ni 8.551178831783234 0.1719297888694553 8.115905444220294 -0.8209645522524958 -1.3107782164202197 -1.1087231893945615
Ni 0.7770262314140469 3.2311914584345014 4.840952223988137 0.8271897072266013 -1.413370888982482 1.108918079014187
Ni 7.9199410069385054 7.006017121250892 2.642525118681585 -0.7517124028238924 -0.11401222725311332 -0.08512305502258888
Ni 8.397290396645289 5.6919348735405295 4.569251541662787 1.224263680366743 0.048254721241329804 1.667225160067619
Ni 6.686514442112281 2.3653815747999434 8.295116597163515 1.6852467934560202 -1.0394052197250292 -0.8120536229161112
Ni 7.989988511669638 4.899795480854417 10.828181895494938 0.4703830662469383 0.4240422741988697 -0.3879532417857964
Ni 4.6044149978670665 0.9907889377479823 5.087067545291428 0.6240352764891769 -0.8964002047839917 -0.28627511061800376
Ni 3.6403746884381665 0.3094337578030399 11.24215324173079 -1.3797352032059076 1.5353327100999752 -1.5232557243307832
Ni 2.8454412189777756 8.884717089917967 0.3992139640730432 1.9540468872177124 -1.158712891049127 -0.8333400430987132
P 1.217686598997795 5.167151373795765 4.135133039166546 0.6737079611239558 0.558359274447606 -0.9813386545996002
P 9.321319526666539 7.905793664871414 4.22267425858143 0.1985282448193226 0.04589907652495966 0.23760309933359725
P 5.795073560868353 7.321440448299057 4.46465807169449 -0.24556323472093836 -1.2860244065143078 0.5181945293032623
P 3.057483705377681 1.8629879436063879 9.27254146570013 0.4546255463023654 0.338247647030553 -0.15349023074307758
P 8.044808297980959 1.0148738795422525 0.7165512337115888 0.23392050827568744 -0.9857884628408378 0.45869714526857774
P 8.61997831555519 1.8020677563378946 9.373672143186173 0.6669104785861482 2.6551836339765824 -0.11182344713191063
P 1.9780573387603748 8.197951645979098 11.474172445707852 -0.6017983194678473 0.81225159785953 0.399077633833732
P 8.470001587901232 6.605933267942124 0.5582863429861992 0.30229565441597617 1.1728801836884446 2.158495611286528
Ni 7.348598874545034 4.50929531088142 1.363710639375076 -0.16077570866089727 0.4938073587081495 -0.6372021528884382
Ni 1.968855512583755 1.9517837034929206 12.92346099988442 0.20536635078707857 0.6350072021196483 0.6258322204885997
Ni 1.269451528035906 0.8484512159948979 3.736524458394597 1.0136970163256478 0.3558463339489226 -1.3077836525682702
Ni 9.076260366383924 2.7309865207141297 7.229579586191142 -2.039165828475243 1.2491542729608358 -0.37134571513610243
Ni 2.7787186656080336 9.024411615042585 8.931170479008175 0.10977916300837223 -0.3068308232821683 -0.09701723535701355
Ni 3.0891871631764807 5.939713601883441 2.3741223783088077 -1.5036137817301396 1.9762848726803062 -0.39790958166755985
Ni 6.6445753497303786 1.8553228596556202 5.899088656944374 0.16117757208500627 2.570801827995392 -0.49125296771741206
Ni 1.462298706996526 3.850191227007897 9.797308200984249 -1.2756862578130934 -0.466597631062577 -0.8894775095222295
Ni 9.312900041986715 0.6485527186149267 5.616646612139777 -0.16397621787606598 -0.2040939118325582 1.4547268262214494
Ni 6.4335946125047 7.173708295653768 0.6825016827813208 -1.3477241975169498 -0.09460065549572094 -0.6935033985833282
Ni 7.316662577015044 7.430567773513082 8.433257615601637 -0.17088091541569925 -0.2355526445624717 1.5519260956822822
Ni 1.4702618258032165 1.5963119426801133 10.750087449653888 0.24644409466399494 -0.614183837616394 -1.3386782852645978
Ni 5.179678151333775 8.782463193568663 8.748755451363783 0.835259114498297 0.022877418818805763 -0.19261393621741665
Ni 6.39199080933571 4.999823429373544 12.756312807734675 -0.39446070388701093 -0.32555796737802645 -0.4077278533095623
Ni 1.2335662686649378 0.592340550711091 1.32433650947196 -1.9127392867181765 1.573088331582194 1.721316542595384
Ni 8.72046262994745 0.5609165005897188 11.048696022674452 -1.767836283423478 1.5324998686368703 -1.107668265767486
Ni 1.2167459264837885 1.3199311817578496 8.088151879621398 1.6313981230666805 -0.07243131848753333 0.2117249460152547
Ni 4.341091889069926 7.922530184749336 6.153818116942763 0.8081591729577113 -0.050150909822778145 0.45895322714344183
Ni 4.108410488897358 1.2607898900356462 7.239816152133169 -0.2756960495505768 0.22985533706737832 1.6879521082023252
Ni 8.446186740195142 7.743476431464398 6.337350775296868 0.4040321496255299 -0.062339481469170066 -0.6669762988270771
Ni 9.101630583494362 5.136593487474419 12.988291963277975 0.6164865176076415 -1.4874621116709414 -0.4613363826636378
Ni 3.4724506743040995 7.197448634645878 10.353482221929093 0.7522225096910916 -0.19720386958094424 -0.3489331517688571
Ni 1.5746299069117216 6.629561843863263 6.001241966529802 -0.15303488837321386 -0.8124485443616846 0.19758233596628552
Ni 6.349567410312933 5.111279151899466 3.7403001874755706 -0.0420611908361082 0.18094061364454644 0.814550678306352
P 6.528574595651632 0.1701928044747796 7.0012262109419305 -0.7779569383427183 -2.472357887494181 1.4417736084948911
P 7.139071057241978 3.9724786538287673 6.186928858076874 0.47959944263888366 1.3408606376278973 0.8194661133300983
P 7.205011269114922 8.365018809902386 10.489142100191655 -1.3712425923538643 0.07951933568256628 -0.9445564527742443
P 2.0396760452224374 2.5861136399678513 1.564459467453352 -1.6732765084680215 -0.21002210439153507 -1.4899416835596855
P 5.365307298627512 3.5260224396562436 0.46234799150568856 0.3742595463487877 -0.5309407732253373 -0.5177952369823147
P 1.7756451036424787 3.952407869000209 11.887421057418091 2.2443275194506835 0.9865618506717526 0.8236636963512137
P 6.142572889285222 3.9600450121832336 10.42067138612014 -1.1867230031088076 -0.466213508250281 0.18069790150612106
P 8.10723728670756 1.7145758989460247 4.254571439036579 0.4705031367645703 2.175217552026899 -1.2365674374347606
Ni 4.680041342557507 3.281373077300522 8.824259788035079 -1.0584686641143835 -0.27653885716684634 0.8315191878398905
Ni 6.644826816640063 2.306296164613226 2.55163100713757 0.12042275876514744 0.1190968408648723 0.09371902422171602
Ni 3.8601101995565816 5.788954532732686 4.9964183811446246 0.614807844353638 -0.5720038618142342 -0.45812970280088194
Ni 6.316140938503328 6.305644523421294 6.669002100250037 0.7941798279594839 -0.20778421619995183 -3.9899929232040767
Ni 1.7952688361871534 6.791851136502537 8.637796143144756 -0.07044334152322707 -1.104601453916704 -0.05120146257447956
Ni 6.96039916111619 9.207619229131947 4.67681697795999 -0.7636124966955881 -1.4243574699009727 0.37946345914723034
Ni 0.43479001228099146 5.076222801971534 1.7573029209782731 0.6594517083152578 0.7194342595164771 0.8339200839718992
Ni 1.2539630291171622 7.206520070573032 13.254935366641881 0.06767580608041893 -1.002538428605667 1.043885624093886
Ni 8.109900973232373 7.246382232552721 12.115160667135886 -0.13432162823442675 -1.1077073465355374 0.754648602634081
Ni 2.3317129496699023 4.561637682452882 0.37461770622908 -0.042260965551740116 -0.9014125703969185 0.24080952208603687
Ni 4.624346078856912 7.887585597892374 12.279486841743608 1.5619220305527293 -0.6447437126811218 1.4123316490846902
Ni 1.0153581861831273 7.569014277678522 2.1821655784802574 -0.30116591168690715 0.20365451030229442 -0.22982654071197195
Ni 4.954736343825956 6.450619853649295 8.335629779031612 -1.79602097338781 0.2554907782472955 0.8035108755524225
Ni 5.967328394002548 6.418040918461222 10.778658747388722 -0.21952618722722836 0.20548770685629125 -0.5400548197114634
Ni 4.303669887473105 1.660817861808929 2.999625826253796 -0.07518188464947698 0.581287086888373 -0.36760758824990886
Ni 6.604629365447461 4.788013782704829 8.344462787074027 0.6020209770016148 -0.308319749122869 0.9676673277600947
Ni 8.424057652142865 0.12171743515891775 2.789580173388574 -0.1462785434859868 0.24604660211526017 -1.3945344730022693
Ni 2.5767441691847743 7.629589862144854 4.070970791480967 -0.17085443305313802 -1.2537154099689571 -0.7364590762092479
Ni 5.986635464512806 0.40862255193095964 1.1835457748929006 0.8876224585913617 2.212705778780344 -2.9353814280522545
Ni 2.965120840809321 3.759122951344952 2.973207830353004 -0.6900465503829794 0.13960704500308216 1.5861770464453522
Ni 9.216178417650482 3.12487683717325 11.866538127607141 -1.1919623971308762 -1.576713329929291 -1.3276369398487715
Ni 1.0888424053466206 6.076064548468175 11.118366327041057 1.7273285531174185 -1.8907679246534081 0.350600512168951
Ni 4.710813441431547 3.6461770545394154 6.355235660729017 0.21897751381260996 0.28268533638421633 0.5272196156200081
Ni 3.837683076648382 1.740598067303794 0.7500792236439918 2.0764213703925916 0.5371420169400426 -1.3890109720808788
P 5.204871410248509 0.8873820190498284 12.463347338439226 -0.26320665883431443 0.7329225238108991 0.8649790101602328
P 3.8631836840082867 6.943811658666232 0.4398044487318945 0.09299191624770436 -1.4487726655205437 0.45637801021709784
P 3.251327438387793 9.077182411719434 2.754356178854185 -2.0287292065229514 0.9542181442337245 -1.2407603924701858
P 3.2145201336813134 5.321710387359539 7.1053288547568805 0.8923401757820052 1.3738779730941821 -0.1320415739509984
P 4.736220912898975 3.709015841192912 4.216008522756928 0.5119117816183442 -0.2307336259072736 -1.0117152100089286
P 2.710776032046857 1.989103255608018 5.165828844122607 -1.0048084555867662 1.077118932225719 0.6417856584940624
P 9.263081653101352 5.818152635023884 9.303116116482123 -0.858191297814438 -0.5057555322089612 -1.147957709415152
P 1.2185434492085736 8.33546679121978 7.41249847901383 -0.7765793412689012 2.307345000823484 -1.0629732368529563
