# total energy = -340872.0464957516 ev
CRYSTAL
PRIMVEC
9.21662672285933 0.00000000000000 0.00000000000000

0.00000000000000 9.21662672285933 0.00000000000000

0.00000000000000 0.00000000000000 13.48946483980885

PRIMCOORD
 96 1
Ni 9.115197545318292 6.719427647664576 7.151520610520665 -0.967705894307514 0.8373779606135126 -0.9151196355703658
Ni 3.125035471062388 2.158211349096262 11.00276265664968 -0.8288596387298564 -0.031008532566372402 -1.0400153425052023
Ni 8.43984923705263 7.134000725168468 13.435952057975298 2.5114710514455587 -1.63248467126264 -0.7066368506414927
Ni 0.14408813070312138 0.09792112680092384 13.343764594532573 -1.5771259919866774 -1.1382970463969362 -0.0965248691016273
Ni 3.653028354523527 6.419085439251705 6.185337965760343 1.1502717022603093 0.09217893342810575 0.16003265984728565
Ni 6.4535464058106315 2.924278912199984 9.614143308638454 -2.9723744603368356 0.6740776857585488 1.9014524009504479
Ni 0.3527507117945294 2.2900644080938544 11.676210496526883 -1.2842398038100593 0.27203839819333153 -1.4501878007005156
Ni 2.3986823516340903 8.81158343449076 4.231873974809719 0.1086195954826323 0.30317882835187787 0.5291458861084436
Ni 8.634688721689084 8.736523228110473 11.01439035266753 1.6741141738779686 1.6775062302786528 -0.16357821110669893
Ni 1.5572596501014355 4.594221038137053 4.011550517844989 -0.6216590629475165 -1.4357723966061338 1.5977066443515064
Ni 8.129110673925005 6.525869274114426 10.778594944763384 -0.21688592139090387 1.0377653701287612 -1.5896313235425397
Ni 8.820901443902654 0.8451406886708926 3.8097755217521057 -0.030299422314489757 -0.6080065051610883 0.22777171506547222
Ni 2.8648040212653094 0.33518566497238406 9.370361693854578 -0.9534151887164548 0.5397779119009929 -1.05345475583956
Ni 5.732253214341909 5.846133851625163 1.5409148846305611 0.4854533303164994 1.6286457571325241 0.18608899061470532
Ni 3.971204735252932 0.19880724235338723 7.169919762042886 0.989214200692935 -0.40643355997817093 0.02239816518954207
Ni 4.663548502821793 0.6034706030227899 11.057718635601514 1.528314369800613 -2.5887082759621673 1.466426631156881
Ni 7.883367761017638 4.4068838874880205 5.375349490637389 2.118716017395745 -0.9642914693093264 2.304031363069219
Ni 1.1531197938183788 1.4346877340096575 7.687943020597154 0.8036584568738805 -1.2887654595945548 -2.080764477852636
Ni 7.725145933545831 4.643336440863053 1.0597526021810721 0.3299535253425607 1.0839177003151075 -0.2138957284143284
Ni 2.7536791553115862 5.717654077933955 12.080449892376356 0.5037212753877518 1.7989720855963338 -1.250574036126498
Ni 7.63705341726602 7.441974300340043 3.1075542955415765 -0.15810047582157935 -1.3281105370510804 -0.17350678307432055
Ni 3.2003998261178412 2.640664880921227 8.237287141054924 1.3224127153353549 0.41066379600943465 -0.16136166307135433
Ni 8.097663544238175 2.1858520120302605 8.504392350910749 2.0169954630257907 -1.3689651091735973 -1.8151826339179253
Ni 6.647040262975139 2.4127561403303943 4.048822555492568 1.8011271842661238 -0.535131157157601 0.6456901357547912
P 3.1166206910494707 7.379310456629388 8.270633817467562 -0.020935978821718784 1.1801296661620062 -0.009619268257318918
P 0.7407937298601044 1.2559036127713457 9.706007268490321 0.02026749199978445 -0.5434116519988383 1.6588644468077496
P 3.7251208071643185 0.7838915971310844 13.041250027248898 -0.5224946993405131 0.15561576172651265 0.719865947737257
P 4.6673918360807045 4.423704230887336 6.863412552150671 -3.535853829619827 0.9403642690697676 0.1454187665888528
P 2.5456414614982457 3.9703199391069957 10.119472507486488 0.3870268733167851 1.2680081724425452 0.24148803621030027
P 8.347203707271854 3.756309871308583 10.193812895335551 0.6636426064681539 0.9497074008475643 0.8827759291323377
P 4.938148673363821 1.362493898477144 9.129831704907023 -0.4369430414209378 0.022565286895025655 -1.6947169377299847
P 5.34079543615061 4.221500661661265 0.05559929948294237 0.09927620659451934 -0.2814054412305283 0.12730945858265172
Ni 4.739493505348016 4.0620161563561945 11.364158564120132 -1.3305181180513084 3.4202763147621225 -1.6580157256542092
Ni 0.2510765746745912 2.366562408211289 5.579148457914101 0.01871248880783874 0.33664430709917503 0.5235727628960403
Ni 3.096445495596812 3.43342379442737 5.674680635120997 -0.6340126994168629 0.06967998099464127 0.2502878938901173
Ni 6.765722762675404 8.532301217676483 12.333188224812535 -0.9929772672797931 -0.3130690908823963 -0.3881602155902799
Ni 5.290306756073102 8.054557382003328 2.76444970506306 0.502513885343212 -0.47992468718878645 0.1892337068912741
Ni 1.9653534391616465 6.629851254515017 4.624148346110705 -1.1850214470366687 0.8067939171790686 -0.41021539561810644
Ni 5.654501753017731 4.312081667101523 4.842744607265556 -1.9778822990744132 0.6823530383934636 0.17054615778409982
Ni 6.22996026305776 5.377505259580458 9.61055527593415 0.573071126736484 0.3382265639846304 1.3713251247653413
Ni 4.054541472248334 2.400590193323766 1.0893094017686145 -0.3517927327048393 0.006866645212846238 -0.15036016975452815
Ni 5.211163584144379 7.925165162286621 8.785432178402422 -1.0407113401309627 0.3866671759845212 1.737958264917123
Ni 7.400941879072233 2.4727287290971587 1.1412736637520007 -0.0899490156563225 -1.401523759835909 -0.7878279175995271
Ni 7.83710029588637 0.23934841742767132 1.6529586482483458 -1.1666894814967004 -0.6694324736770536 0.5768082251814131
Ni 1.5520706893705782 1.6950758664575793 -0.042896023150188214 2.5530437326810227 1.7898032746128725 3.2233786635676873
Ni 8.844210292372171 8.939528643843799 8.536133490983572 -0.2526247695534101 0.5774957381667409 -0.5546972522149867
Ni 5.965830180242648 6.187416315040642 7.427649819402389 -0.29203129637549063 -0.12441542486430829 -1.0656844651365323
Ni 6.722764066464879 0.28151909207072195 9.891595103425823 0.20451788674385424 0.29522794893591736 -0.8428644376493807
Ni 0.6626081654268267 8.197341360053844 2.3091133317857473 0.7317285035027978 0.2898350600551202 0.4247657826284555
Ni 0.9862251207910898 3.521691426611065 8.604093208292719 -0.13248354658442343 0.8289910221013981 0.7821632631145821
Ni 8.766219198758469 9.124257489187622 6.064553153550826 -0.14088925414961545 0.9791190212404621 1.1447196620938285
Ni 1.9088186520869066 7.297061281563366 0.36155812009720645 -0.32273026812124417 0.13616073832569453 -1.0130385568060425
Ni 2.6864899479795263 3.5539588360581895 12.627986632373522 -0.5382079963107118 0.6030296207717871 2.007977575797897
Ni 5.7240504167389545 3.7579227809496136 2.2490577933803015 -0.7823779502285494 -0.6415365185977339 1.5139254480687927
Ni 4.205463731516164 5.939645744298837 3.5203587024162477 -0.8905887403085371 -0.4960354767077199 -0.20782818206400983
Ni 1.140124350424935 7.393190696168768 9.380425328351956 0.40467389697458694 0.5451494606255515 -0.3277601172356678
P 2.720867964899771 7.156968558456739 2.361560544998791 0.9308203341350745 0.4861855804968337 1.0537077523906304
P 5.079614673821952 6.709796272950996 11.218756142475232 0.15306856982462672 -0.6069125007659611 0.001730352427545407
P 0.46013362738106256 1.2957378725915325 1.8733088334299848 0.9827049388195075 1.374455442864207 -0.34060406307787144
P 1.0972025207204903 7.450149448063436 11.588717982633533 0.4422803944734512 -1.262920987727625 0.44615633248908965
P 1.215387322588666 5.1533661192363756 0.20541740689365517 -0.07262646521747493 -0.7778317256187637 0.8086160579894718
P -0.004342874416305421 7.788694573402423 4.570055043401159 0.9728527286157762 -0.42159098444489973 -0.4465088307325019
P 7.635818389312316 1.380844201878808 12.499054322320172 0.35491148083947904 -0.6319439898132924 0.37849543880700626
P 5.284085533171986 7.884989887285188 5.548270915746219 -1.3937757404593738 0.13666184633182915 -0.21687512275762647
Ni 5.219606014036857 2.1895847457709303 6.474969532494121 -0.9341352574409203 -0.9404537434597803 0.41246279689138643
Ni 1.82632984473136 8.38278910226624 6.709861710999288 -0.4680153373457101 -0.4419314957744647 0.08197139676748463
Ni 6.460449659074241 3.834347048054886 7.339577579700922 2.4065425316612683 -0.861770016304632 0.6514334659964716
Ni 3.867646719672271 5.519044993050751 9.261717943760086 0.07367933196202149 -0.1602961979213175 0.2365821142682506
Ni 8.721979391461641 4.7403690848674325 12.36965012098899 0.5516921468400757 -1.3411953952594966 0.38062662621739607
Ni 6.74789780698539 0.040578963243016776 4.503498096648384 -1.149537652307762 -0.337594072606954 0.51153151546079
Ni 3.4956175901854962 0.10475986367889205 2.200927648029307 -0.9133162638130401 0.5795945296772986 -0.9548742897604844
Ni 1.876689492037584 5.690428163193364 7.802158221423091 -0.005404201734706821 -1.1510759433291595 -0.23575627593284562
Ni 0.12172767310253015 5.799663620710452 2.257947229659008 0.8730677007056384 -0.5735244122238188 -0.03404834783396071
Ni 4.7072445291539315 7.515292564308017 0.12646409747124696 -0.8390054689146067 -0.2981014138289705 -0.9736055476214007
Ni 0.8235433677461719 5.3999108786509975 10.644792569256776 1.5478861212849535 -1.570279144268173 -1.6003440819743535
Ni 1.9441367649122085 0.17946799492610865 11.80835387925986 0.6909801179408422 -0.18041970814406993 -1.049989937219411
Ni 8.782606360711336 3.272059097312185 3.3180436120092827 0.2362077616479674 0.6272944068564229 -1.1945322147405815
Ni 5.6461054062578535 0.3903766679004828 0.6533611240391373 -0.49570406151023017 1.1355873607752573 -0.7858651374462013
Ni 8.199387451141323 4.78980706952164 8.221276017464081 1.5217973946177017 1.17774985307592 0.7101134963361836
Ni 3.5042812191144583 5.3626664908829795 0.8407729293629829 -0.3529900954470502 -0.3954616343476996 0.7023541641057388
Ni 1.7690116444024053 1.754255825343609 3.6454605824878135 1.213894421317277 1.2044335330146934 -0.18776946364092179
Ni 6.692100350032264 5.7615160035434565 12.276532699930382 -2.2442773829390386 -0.42618657423538214 1.5101806363143797
Ni 7.0347376575462075 6.7274921958697265 5.40228784663055 1.25228201995654 -0.09563218208402886 -0.7224229098311559
Ni 4.471262023731428 1.6716011187106992 4.37302845329147 -2.1097757774833217 -0.43752925294171097 -1.437942150563943
Ni 1.7847075593662598 3.6094797942157104 1.9902493907179373 -0.3128001534917258 -0.31912172483437945 -2.3587493234373893
Ni 3.3551377687650223 7.745026196949843 10.633475473552657 -0.3630325672847167 -1.2936659822199656 0.417870598170519
Ni 5.751128865455222 2.441742430736338 12.168629966608108 1.5615859873695495 -2.323668420573856 1.6797004097164943
Ni 6.492698635268326 8.974441225102213 7.0313431739988275 0.4013152649149992 0.5200020148256463 0.2464564359591691
P 7.2847110020263335 5.137900619935525 3.580414240821694 -0.13389919598502747 0.627062750461591 -2.6708187694106775
P 7.379586955424993 7.434499616232182 8.5117711821028 -0.025603816611033326 -0.988882014164497 0.922701818792998
P 3.434557439489351 3.6307056850916686 3.444831213071388 1.0760534670756823 0.017824429775930593 -0.481355506098042
P 7.350738914416852 1.9251228644010923 6.336730272980701 0.5975516283763515 -0.6062704963065881 -0.6723000250328357
P 6.830405047593977 7.612850556024046 1.0065275056897263 -2.3708959861022527 0.4252280669768548 0.1660888933436946
P 0.6969834173591151 4.3389112669017464 6.47904420307869 -0.008997832623236118 0.6195237617720686 -0.3760320648681782
P 5.757009073175093 1.0954052785490567 2.598624160712111 -0.28702304452762184 0.6405929237375418 1.0112616674112778
P 2.616010404979765 1.1805392577158929 5.822093203009945 -0.614494169767961 0.18398222868434763 -0.5015556351950007
