# total energy = -340893.82728877285 ev
CRYSTAL
PRIMVEC
9.04432778835121 0.00000000000000 0.00000000000000
0.00000000000000 9.04432778835121 0.00000000000000
0.00000000000000 0.00000000000000 13.23728793291814
PRIMCOORD
 96 1
Ni 6.429106298991112 2.088760420617042 11.554603858289362 -0.4704959376757188 -0.6172344515172595 -0.38730378112725555
Ni 4.803044654969337 0.44530110723780036 5.8259427773916785 -1.1780097916055259 -0.5096252995770126 0.7310931839116441
Ni 2.7247033002182777 1.621159618241078 4.996176330833559 -0.23183045851587816 0.261882283595936 -0.7784917278002658
Ni 3.417381249417866 4.201153670320724 4.832854760085897 0.30245454859134363 0.7458963103627476 -0.3698495902065501
Ni 4.988959861515445 4.440493722414012 2.76946548839876 0.4294030242901508 -0.17960364000067777 -0.6231973539689138
Ni 7.048941230408916 6.341195430746892 2.7775004694016574 0.6088305437242806 -0.5608226483864341 -0.3328768696369428
Ni 5.032309325660974 4.533179995846806 11.560640042802344 -0.19800708220852994 -0.22085261934813577 0.8281099050480253
Ni 5.494121758111392 7.746385540469071 12.325794714499365 0.25116078341337394 0.4558041399914989 1.1639381440038084
Ni 1.8291882067683705 6.455090653360005 0.6318765497285405 0.8072723994773838 -0.10066100275718794 -2.2559190809430243
Ni 2.7098344249720334 1.6039392177125809 0.2896527443726886 0.0671124773777812 -0.4640614949042846 0.18176825175216438
Ni 0.5906470760682424 0.20296376484244016 4.910080659220679 -0.39590952051839556 -1.1216339839189589 -0.10910347709758629
Ni 8.471469316923704 2.3700661546705337 1.0679551556959057 0.9520962127947151 -0.7708267550558402 0.5273049762449629
Ni 6.95837132973015 0.585205103905429 5.114067337560899 1.5083001314622153 0.5334931073335457 -1.0448564726475875
Ni 0.9883912977708832 7.5275942016114685 2.4588000567635415 -0.5159471280299824 0.5550705763940054 0.9322323839912526
Ni 7.752164866066607 4.074189393735091 3.5999066418263266 -0.5612088280812593 -0.38508080533400774 0.01761334220638902
Ni 7.776222778569656 3.8490579809434142 12.481585073314214 -0.012549040309604194 0.3468384740233575 0.20296853997886335
Ni 8.004510661836356 8.654843067299378 7.216823855771349 -1.2080143083874164 0.3759027383791655 -0.9053738690375117
Ni 6.886930182789709 0.5299587306973028 0.2007714197331399 -0.3037748100646639 0.06129561358568798 0.3745639649630839
Ni 2.113957918449181 6.325684408212033 9.18569809090234 -0.3777976414090332 1.4804160034574376 -0.2898810828017072
Ni -0.0453301719794265 5.015043703492434 1.3790610461051465 -0.25398488312573037 -0.7411837353784266 -0.03353412720170353
Ni 6.374614222738908 2.136062256102357 7.092075439547839 1.0484058805617429 -0.6419561226336556 0.14667397915219255
Ni 3.3130639701659295 4.279848368324114 0.6042877315709103 0.3259035236429032 0.02714339318401132 -0.9743619661714509
Ni 5.746585130145253 5.641670925244745 4.752623430753834 0.27288891911908486 0.12416808474019263 0.8689673053840196
Ni 5.166192513173235 2.7786979384300046 9.47815005479371 0.3731953667503315 1.5323222054084256 -0.13285815631502282
P 0.28021860582685065 5.580223760753879 12.301597519344984 0.4229426133767877 -0.1859936026874216 1.1772546586070565
P 3.977686413882641 6.175946513700584 12.836092884971434 -0.9558723920076957 -0.4885602513765973 -0.9340362699692109
P 2.609053477971485 8.554215873874977 1.2966409893949877 -0.8539741744092969 0.1653335032349088 -0.1258693837020155
P 6.320004570222592 7.617033561289151 5.680570580010011 -0.8765348333186324 0.5136657881949734 0.932463526165452
P 4.699469010614111 1.0157142126850587 12.62706218490078 0.5782285025677074 -0.6204969243186153 -0.5315169574437814
P 4.069576786450672 6.090785121170998 8.218184719906658 -0.03669092766313036 0.15428367317865044 -0.11113362015373762
P 4.581422441445023 1.3099442914629322 3.764751277410648 1.5123694164355825 -0.6579080179772218 1.0979181283592576
P 0.14870684111846177 5.867354042044951 3.498602028234076 0.3275731980358423 -1.0043096615734768 -0.8849161154037921
Ni 1.3260793726303899 1.0103057045358772 2.562950920380118 -0.4085143537665996 0.9714869586165011 -0.6213520732300589
Ni 1.9922755294206087 6.637677547198924 4.805466726010058 -0.7104850207429892 0.24984900658048584 -0.5171115806517287
Ni 5.86641343193205 5.44727213902651 9.37955873960406 -0.447702593930287 2.0541049662835786 -0.7308653841715542
Ni 8.585246963272704 2.5642388326885523 10.156534348008405 0.47009870223730005 -0.3625679689434723 0.6665440963856649
Ni 2.199571527379199 5.326439916830752 6.924015545356437 -0.611255094005373 0.5751030695648482 -0.4808220021920751
Ni 0.584554816721606 9.163984468219137 9.199981798126423 0.13697294981434474 -0.34156437010861174 0.19756022447909846
Ni 1.5140657302904816 1.1567424193241644 11.25415670843833 -0.21897494270944867 0.15602302446726035 -0.0774421414385634
Ni 4.128129765978766 6.73434332495553 1.7974652262779796 -0.1367405220885645 1.3280128351309517 -0.7350110309088116
Ni 5.737522713480572 7.82725992152255 7.9351451881739035 -1.2974033377752108 1.169193993086109 0.7736770800204418
Ni 5.451495840206556 2.991384355881759 5.060853224856319 0.1718263100481041 -0.37217386746435255 -0.9118759318220875
Ni 0.8760381330832484 7.51200178012453 7.010123879028529 0.3874300222924747 -0.9416277091632235 0.0816384389080981
Ni 5.174576605237267 4.314470055941281 7.3182080594500745 -0.009980765361795716 0.9164856626799571 -0.6201994476828545
Ni 8.20237342568191 7.261220653100281 9.216038193640205 -0.33863228406348134 -1.0031295252224466 0.1753096406110142
Ni 4.75257730468099 0.28735277176008517 10.4335648282122 -0.8706634621395198 -0.06077059432015341 -0.0075700990377740585
Ni 8.215017396238022 7.190539229712567 4.8735198676784535 0.6401149556598589 0.5868003033971184 0.34227785123586857
Ni 7.008015646169709 6.101773979701527 7.167528650392923 1.540755166667127 -0.7492976227348128 -0.6763078606406482
Ni 2.240388579682302 5.0192945376565055 2.6039199173937666 -0.11756086383632011 0.9281296746767886 0.9523515233386308
Ni 2.4638467917923763 5.223425020812065 11.404096291464374 -0.8996166548387604 -1.1980870219713755 0.7550054717528674
Ni 1.0837818252782678 3.2667841437455936 3.819871030026653 -0.26361932089170087 -0.7158557981365995 -0.12509291054730715
Ni 3.4378033420614305 2.521205920023326 2.5314594746867494 0.0638561752240126 0.9144591191682316 0.05026712368566827
Ni 0.9199800007133448 3.1442606322122155 8.118865336312309 0.46694524420998285 0.49541944039027586 -0.10380546192344058
Ni 3.7984820987189623 2.47242081474459 6.978724685480849 -0.3987472470775068 -0.14693905988812114 -0.29972172304121286
Ni 4.013366287876822 6.9427336866031695 6.182806636495156 0.7361430876307257 0.03824541663444381 -0.5952859722706264
Ni 0.9449423460172589 7.391205735240807 11.28633733192596 -0.15540030328159687 -0.5476460017951601 -0.34755118381966593
P 0.12777012621120434 5.618300381670356 8.003198329842299 0.3400147662333048 0.5999383834409732 -0.9917824756407436
P 8.367966027192548 1.4979396934510327 8.097169802285123 0.8919658231617218 2.1910442346465104 -1.3340384724997412
P 1.9262428906293492 3.2482613599838484 10.31433616537238 -1.010048106719151 -0.04992773806837853 -0.23892258947596917
P 3.851626570097875 6.243778973765568 3.795766087017961 0.131088980229742 -0.8862039809772803 1.1218401863924938
P 6.827762188957026 3.952172364570198 10.420128574522527 0.9940031374411462 -0.6886123890396141 0.27747242472470923
P 6.17854223583907 7.690961898431975 10.235574539341725 0.8649864663594006 -1.6773303668224209 -0.13839322720063907
P 2.431468097521357 8.578906889338631 5.859657318909577 0.8262882784582544 -0.2317283857203751 -0.842571074778678
P 6.935055052123813 3.914177142605799 1.3228939603057381 -0.45078997460635917 -0.11210832536218111 1.6024112489160272
Ni 5.181486471835887 2.7809771090881883 0.5475879348517916 0.39333610336426456 0.2837135205384146 0.1508813323653208
Ni 1.4408247620763164 1.0439506047281093 7.040225211506966 -0.6070924779872512 0.627546632076545 0.3633202737284646
Ni 7.046182710366273 0.5718122629901986 9.44280662980145 -0.9762602116354284 0.07096244725149069 0.10396409898849192
Ni 2.907796676425682 1.6278795539515158 9.024997566411587 -0.5495694440701181 -0.5334172597902878 0.8828180952241828
Ni 6.4383857795280015 2.064114626793431 2.7780566955741905 0.5980434804111054 -0.11268476669094143 -0.33328490370863895
Ni 4.004674688660495 6.752468158284894 10.63557893861373 1.0084496518837793 1.084006660484488 -1.0362327355343186
Ni 8.017688247744982 7.124497546593299 0.3610143012266533 0.31370698157671134 -0.04324081296650617 0.16399678670135628
Ni 7.683265175296602 3.8780631408672015 8.241985773494259 -0.31413249914990415 0.388948258709214 -0.006284804567447241
Ni 2.9311400870160447 8.409904576168724 12.258205546857814 1.0452884179786837 -0.0808290556329253 0.774237580509602
Ni 0.3067374799810558 4.97775393911271 10.002253487538201 -0.14365344715831388 -0.765981511148397 1.2807631581153684
Ni 8.562934606075329 2.4628338270554058 5.852429996397854 0.4687946387138959 0.38310105589981763 0.4334887643237503
Ni 3.670685743956533 2.4352214936449528 11.251615252267896 0.2427674171433561 0.6099854832643301 1.2435127584043422
Ni 1.109087855046511 3.3069228714480463 12.54585135484538 0.12398836462921874 0.3481538504006714 -0.1093821846802697
Ni 3.2343783164905484 8.594399823217472 7.849659104268807 0.5722504306074014 -0.5538333615527946 1.23089584097128
Ni 5.495071412552302 8.177872341106438 3.643669431761851 0.03145616162675228 -0.37852269250051584 -0.032505171716556924
Ni 3.0677003956188704 8.718723156024575 3.4934657543579553 0.058458401247209 -0.965958315488788 0.5232205217629441
Ni 3.0880682222943827 4.141840967239902 8.669298616755626 1.015297013822916 -0.803033935916004 1.4380449946903946
Ni 7.3625623484373675 5.943127422101542 11.384544263175243 -0.6674727788475214 0.3390457174518161 -0.30179120397573184
Ni 0.6717376165611275 8.908834930766703 0.0840263293644976 -0.24509426550431984 0.33560815252517684 0.5145381634975977
Ni 4.707446107917754 0.4524226111118228 1.632448748461493 -0.1873488311637354 -0.3473709494880598 -0.45635384184738176
Ni 5.875394449644654 5.642729111621759 0.5783585476028701 0.6629934029199291 -0.16499514605888357 -0.5150187026784421
Ni 7.9041819312362405 8.340643112278373 11.446349583055254 -0.2933602995995593 1.286840731768016 0.3086185113102104
Ni 9.238690617570706 4.941395740517878 5.416459922366592 -0.3787646333079928 -0.04336731124204144 1.6952165030742226
Ni 8.134143015184545 8.96364355849921 2.3068490151883716 -0.7425855008219598 0.1529587837196398 0.4563646404806592
P 8.52384502042188 1.596649489337597 3.7763072153073187 -1.165175101734703 0.8670400064543197 -1.1876126048026128
P 1.6125946396168729 3.156172012199627 1.5681689004383128 -0.9725357115959896 -0.1010006454847938 -0.6265577858007145
P 5.06694910193416 1.068243669759382 8.34907513928085 -1.3865661100848121 -1.8111727414275838 -1.2838929619936017
P 8.534155554351758 1.4047378933217451 12.075133877037631 -0.35372388828928114 0.046116334742088316 1.014183469043763
P 6.2239538067705755 7.799692809752139 1.486004798210799 0.34296459289024805 0.5696968109476124 -0.44720020037257174
P 1.8273974298226547 3.427112946355189 6.009146494400789 -0.7625015230195965 -1.4095386597205855 0.3323415659587631
P 7.038196568734623 4.21621247645515 6.07733168325811 0.07619309952281071 -0.7674007600934267 -1.0517058914692534
P 2.4231201827693596 8.443703229937103 10.068321399208696 1.1179583348395843 0.33719452317569026 -0.48100763584032
