# total energy = -381172.65849474043 ev
CRYSTAL
PRIMVEC
9.20443095486805 0.00000000000000 0.00000000000000
0.00000000000000 9.20443095486805 0.00000000000000
0.00000000000000 0.00000000000000 13.47161510058892
PRIMCOORD
 96 1
Ni 1.584303499040078 2.843801033344696 8.27023841282566 1.1602704653442342 -0.3723720995180877 0.29195082084654234
Ni 8.393815263917967 0.6226226965929633 5.134733310318452 -1.077690488458473 -1.7969154601776214 0.9339593939846883
Ni 3.4390055705703393 4.360949003062911 12.015239772730945 -1.2198755786013766 -0.20214912940136154 0.883502265775401
Ni 8.514494560099292 2.41780155307133 7.346489070950833 -3.041375155876265 -0.5081803396003699 2.0870893916293993
Ni 3.7871447681499495 4.285040059762827 8.267489969698534 0.05695147768437934 -0.6542398250970153 -1.9349302209929193
Ni 3.1284664740433348 9.154902058467984 8.473457524473115 -1.3569344032613082 -1.8551756293710955 1.1072638312402157
Ni 8.962290133222739 8.208695745589935 9.96145137911813 0.32327302799859164 1.6928917115957876 -0.034752315879520795
Ni 5.288194187870365 3.0557606727668274 12.587230734716766 2.9480659654984582 -0.20606440529536768 -1.37517715152158
Ni 0.3855506077946205 5.026926411033593 4.548098098448984 -0.018614529777393748 0.09543703535408725 -0.4912092589636702
Ni 7.678041883684226 3.5820976564855926 5.09566510250504 -2.207468441640805 1.1395468596436373 1.8907339860916794
Ni 2.3055166980552375 3.5322004354804086 4.504814261190751 0.5786625047813325 0.37865561853395435 2.8416762877876094
Ni 4.96055325835542 9.22854671171692 12.212612229742263 0.0690721722073133 -0.07459644445965218 1.1436153732860563
Ni 9.29776403360568 6.6976319048302955 0.10420428495144562 -0.9496711482929903 1.14796182318021 -0.634918499060584
Ni 2.7634095320978274 7.913012600861929 10.76888616604031 -1.5812238162051346 0.7600767156281877 0.07022942574020809
Ni 5.064342423464154 6.6195691246522905 3.673008902039199 0.5469428050805484 0.29849967770865365 -0.3886885772899242
Ni 6.960823407767434 5.490700876550507 12.281034288783793 -0.4720506837573483 0.7705945844403761 0.5661206635605799
Ni 6.305440299995417 0.6152002433521259 9.69135839374054 -0.8456003485233049 0.3496008672598431 -0.014992873864406436
Ni 4.404771299540623 6.62270783565815 12.228737472590257 0.9525569544812177 0.02414780089079712 -0.725798254061292
Ni 0.8240497055048137 8.934271844947553 0.7305087539853006 -0.6076648055509535 0.3329056659923492 0.8545231049342316
Ni 7.284488023046217 5.792937576223302 4.0197545487499315 1.9356483301058662 -0.47874352239649165 -0.37039697806958793
Ni 5.750376286806594 3.0228824448696647 1.9985277506043624 -0.8719968362389627 -1.1013649492572772 -2.057673143250811
Ni 1.632884486397643 3.7614920186680374 2.4033763686479164 -1.4028262806974163 -0.2894797335982305 0.40663076359064165
Ni 1.3853957429209076 8.421023562256158 5.158914271267117 0.7886331871096418 0.13813868798767176 2.9308287756845655
Ni 5.735796467940664 5.996125392805008 8.221498188810028 0.32716027886813975 -0.9097984804677686 -0.10330641079983499
P 1.4635873851343435 3.262998439033515 12.54359620863354 0.6330014845435291 -0.7205768577613525 -1.3781506323276072
Ni 0.21986532529583575 6.084497135817509 2.504252331312796 0.5386060030800789 -0.0420943580668888 -0.13984975714150755
P 3.842564647816471 7.415375033319914 5.488457756690894 0.2988148949562273 0.4532872871069161 0.04310762982275156
Ni 5.958847446840981 8.864815207850132 4.7626736371903675 0.2161009635957633 0.062224810268176715 1.8007962832892663
P 0.8639748458538427 0.7729807604203163 8.45365419095667 -0.6608735283634489 -0.9181841334283026 -0.3995368328583377
P 3.5924342326133956 3.0831714685892653 6.236387737423384 -0.3103961720359235 -0.6245600386443954 0.6466887522226347
P 0.7453435355927631 8.138208212209067 12.052825146693786 -0.3904356418880179 0.1423946350505483 -1.272528428910402
Ni 3.5209250073801783 6.858967173190167 7.648523273139377 0.549457343972286 0.3259893984884902 0.7392438380432367
Ni 4.111315627139356 1.7408708720889945 7.97309452488173 1.7473829006651327 2.6063301028089887 -0.8179339929562881
Ni 9.091778069968896 1.064096666435397 2.4937307461198377 0.38263311512446363 -1.6793229717724174 1.1761609113222453
Ni 1.9384347812672396 1.0815942899607345 3.8194587644205455 0.9550375548112262 0.2115413692495389 -0.30079387305946903
Ni 3.6443472240299677 4.966628182882891 2.658879410285363 0.56080233667146 -0.4072565701000987 -1.3502850162655906
Ni 6.31627391540274 6.7685980686284815 5.758361130787778 -0.22160569546407638 -0.40366988119010483 1.5873988346675951
Ni 7.615313685722534 9.075311342727009 1.2515780417842604 1.1087162474160261 -0.988802309966497 -0.33673352437887166
Ni 5.441291490393742 4.670705722946226 10.701918407112931 0.9625156083558262 0.17833480059058318 -0.26072477295272517
Ni 1.4793453711813598 3.735296207751093 10.351413670740047 0.3754581946425792 0.6513041395074589 0.5473274421134768
Ni 5.695692761628251 4.301396333831488 3.7113895388492737 -0.5531921284243699 -0.4478892560197964 1.6545683905355568
Ni 2.612999923456302 1.1037861733482088 12.463089651997892 1.6339630555803795 1.036105980148467 0.668297588741662
Ni 3.479587907300067 5.679953184443439 9.959861773866773 -1.2326501046582254 0.8591834865243785 0.6779795919161162
Ni 2.6416809307708475 8.090308352753066 13.10683099531181 1.3575676659699327 -1.1771160761466632 -0.19267641402423594
Ni 7.835907081518557 2.2753537773332324 0.9443322907056332 -1.5442770637774565 0.5869471133876278 -0.5289525391507148
Ni 1.4088394289382848 4.859589853595069 0.4936078676054592 1.247800844256735 0.24293582440042033 -0.8455635817480985
Ni 4.662412530523117 7.436011367851112 1.3233946950162923 -1.6795700547862171 -0.6608588730754297 0.6720876519117135
Ni 6.3205079537097655 7.6219868982716505 13.465202758947768 1.6490549169164954 -0.14222417091095507 -1.645118815086883
Ni 7.271003531481452 6.601049809274606 1.8375689434765723 0.4572107905310384 1.977006838447995 0.5123506689279756
Ni 5.62743270057412 3.7921243653762557 6.5658898029072015 0.9486262519682438 -0.17273802322909607 0.1340696601246207
Ni 3.9041975184769973 8.600878145993713 3.341095275606598 -2.2929529937678703 0.28925604762319856 1.4838826218497991
Ni 8.052404505474087 7.980545511858985 3.723729919628032 -0.47317502716977855 0.4939896499222847 -0.572173297512563
Ni 8.352671456891004 6.3591941776324346 8.238862348084382 0.22497461193630933 0.21994939080757606 -0.6494578303273396
Ni 8.927939196349218 6.941834666403535 5.81676048480209 -0.9062326174933812 -0.4893912319183249 0.15821411858130818
Ni 8.746197704235705 4.161700682992958 11.832443452813116 0.47300790546429505 -1.3644826479222114 0.609749455994124
Ni 8.325822131365802 4.697711523800166 0.7605290060252208 -1.11127552350277 -1.2941352085469002 1.0038877435447098
P 7.16830048924278 3.0257634318046627 10.727326318727524 -1.2720121513956157 0.5944845594152536 1.2935114589199723
Ni 0.02947903149110907 2.4092782498706655 4.2691550525666 2.8271667813175245 1.3177682745848078 -0.6176645970761426
P 8.243838263538247 3.7867305687503494 2.899253128520075 -0.39309184856394236 0.5741800435299466 -0.9486784453624179
Ni 4.796097687851892 7.6281354582479395 9.894618925327952 0.3156872452315338 0.42810924517939175 -1.035941429546145
P 1.6960637014833435 5.519510745900485 8.588329745072043 0.07924217076177965 -0.22835124171802612 -0.41949990624382594
P 3.448403294725715 2.590743609051112 3.0128864326926443 1.295812082028691 -0.7348390241073215 -1.8239408397265295
P 7.673402850408702 4.5859329124946955 7.005738270216981 0.18049452724606335 0.3948242578740168 1.2940801869392489
Ni 3.843199753562525 2.5558127930181525 0.5966928937348738 -1.7625624366190484 0.10710907237537684 1.8938403929311447
Ni 5.89091874530653 9.03092757595206 2.621940187385897 0.5644697582207182 0.5748138204592036 -1.7706264445741056
Ni 8.50679965569783 1.5638696619931294 10.05766529742973 0.6118623885720689 0.027740403338061905 -0.40801710241520694
Ni 1.5652135089340549 5.9509224316619616 11.603816429551067 0.34543670857982445 0.24663127097413656 0.48700910483939347
Ni 4.245912023147251 5.179213723619974 5.4593045620608045 -1.194117752910982 0.7441790705613248 -0.14823875253615115
Ni 0.9926794855132016 1.444920798859023 6.336212554056389 2.3806700347698806 -1.6150613335798703 -0.666520185126265
Ni 1.1630535052154618 7.893296709440955 7.598125331082232 0.5724280938358465 -0.1285944959426624 0.42271532785733
Ni 6.7711753093371065 7.666517935944235 11.096380745100731 0.562081974714832 -0.20432993910276423 0.1327547979679391
Ni 4.7965395005447995 1.721964970605016 4.704746470491599 -1.2766781894127173 1.329471164844033 -0.6428760633447638
Ni 1.9705030192274056 5.907072521890942 6.2742299150139775 -1.0162200398578176 -0.49258145672084847 0.03368710783980004
Ni 0.2883306451635463 1.204519467331004 12.436941704122681 -0.3306407812175725 -0.12332476290329084 -1.6720953436757264
Ni 8.16428436552168 8.780511823384815 7.511355159081518 -0.4660738973486231 0.9575240686785057 -0.330567761887792
Ni 5.303841720744155 8.590329867950558 7.111746623664463 0.35347654816516544 0.2196524283924475 0.8888990113109401
Ni 3.978560117351906 2.8905135211885087 10.187801226125487 -0.43306041853708 -1.4420006369040326 0.2926463042516702
Ni 6.495355326927709 1.542644243871389 6.376546371146357 -0.09972075033110567 -0.676483466986564 0.29030634326458393
Ni 6.154045817225953 3.151164601141432 8.865522108158784 -0.44032661318119 -0.41288445780983735 -0.7246476853966165
Ni 8.68192316184884 6.100199895277912 10.63997626756737 -0.4068133119150929 0.15773306517983157 0.32203684159864543
Ni 2.3135613708385856 7.108048283247587 1.715151850703146 -0.5367730636363981 0.02805382081342265 -0.155534514866616
Ni 6.945626892017654 1.871122776616638 3.585483966688103 0.4876665359177344 -0.6443631894132515 0.08320501206426961
Ni 8.321201506952482 4.21200289896664 9.300304456589895 0.7345047806963543 -0.640427087583639 -0.7006888605881738
Ni 7.434529454443653 0.4236431459111955 12.432240080715662 -1.5114965269123257 0.20702702631895314 -0.6581964957519181
Ni 2.9877123136280477 0.52800758796382 1.4505023658794145 0.05236565808590981 -0.17519651207191764 0.3730868661969252
Ni 3.327033666211723 0.3677427949411379 6.074095208228881 -0.12503171829206855 -0.3057077654213187 -0.4594625626796926
Ni 0.8470764307932603 2.246994925107265 0.8481146906215917 2.415568132198646 0.4497129394920965 0.2520403578048498
Ni 1.661740377903131 1.0880558005944994 10.421439141679587 0.5199786177868787 -0.04465620525679406 -1.1131902240269798
P 5.86688597569861 1.0980978349270314 0.6817077807243922 -0.4677535990438912 0.4576859303952441 -0.7038520888075039
Ni 0.7312009272041882 3.76674774882741 6.416731996895579 0.4956258999741271 1.9382505436154036 -0.9089710994704668
P 3.4524440399795937 5.621385389339956 0.3592894454168507 0.8814800931390496 0.46711647968052455 1.3604020500949345
Ni 2.424971804899966 6.493137059032072 3.9550510798737024 -0.16289506899674527 -0.2947270980400989 1.0068722800943304
P 4.051293531921719 0.5910763498762935 10.430762309943034 -0.9230190929231006 0.854320244894806 -1.1116784153681434
P 0.9219158191992645 8.088936892518834 3.2909136376803554 -0.12141649013698445 0.14754918266829428 -3.5963251475320064
P 6.685086265237957 7.854582872224979 8.813534560850282 0.8656904344049606 -0.19861926187123213 0.006694381301040084
Ni 5.9147306085679965 5.226561317209839 1.0055297917750237 -2.5803467913713494 -1.3446445301503616 -1.1181848490280937
