# total energy = -340895.45797503344 ev
CRYSTAL
PRIMVEC
9.02174645669281 0.00000000000000 0.00000000000000

0.00000000000000 9.02174645669281 0.00000000000000

0.00000000000000 0.00000000000000 13.20423787148345

PRIMCOORD
 96 1
Ni 6.412819753632684 1.7716454551229968 11.376071301855607 0.7108030662040404 0.8461860458234459 0.1935207643024022
Ni 4.603120572069414 0.5993913001664632 5.953447762403712 -0.17215489703211642 -1.4305628273807363 0.014428773830820314
Ni 2.692928157026244 1.6388002389463647 4.7097007778653985 0.5339942153396804 -0.41783923071195134 0.5753686645214091
Ni 3.442914959469681 4.314514903784833 5.0412725135212 -0.16096494185356794 0.45760082688060544 -0.5240283623762201
Ni 4.924538332118641 4.592240345875252 2.439284462680495 0.9476949984032259 -0.3885011438694664 -0.16984373240043651
Ni 7.124220546596498 5.969166351208096 2.758523470966961 0.2619074804069167 0.021259680709724674 -1.972367539903771
Ni 5.169126899572948 4.51834322086997 11.415974486313958 -0.24585788314322177 0.02536007603134342 0.42422379408205646
Ni 5.691693518017705 8.12063635276589 12.167810746775475 -0.2790798784211451 -1.43644474008281 0.8958448465011538
Ni 1.8402829019597926 6.452677829358889 0.4037222505523035 0.4478889989094802 0.4905744535931486 -0.012021192830592201
Ni 2.81581336514454 1.5853824783363928 0.4124399641272766 0.06146247818085545 0.9277249830392021 0.20635416862164463
Ni 0.6442302820964789 -0.019942570482746707 4.700444466028575 -0.42041341919703085 0.011064485344277718 -0.3705813261662521
Ni 8.578480962324322 2.036145016947547 1.3889402650532117 0.5379575708628026 1.9747990321633988 -0.38166689455645236
Ni 6.8645746843511 0.7901768784382522 4.812033545442303 -0.16999619881790076 -0.28149774383401843 -0.30108337927542983
Ni 0.9705865461412979 7.458097338465074 2.5082638337069745 -0.2194637094204091 -0.5774250328298056 0.8170737018385218
Ni 7.6575410867854 3.863202038641469 3.747560390731541 0.7498254702138247 -0.8646406529842077 0.2156700467059318
Ni 7.305729063014675 3.848929635789759 12.637551431176046 1.195863017736863 -0.26043320985423535 -0.08678630165762473
Ni 7.993366575882783 8.820390071089022 7.043364948570023 0.00921431950941639 0.2764259857380659 -0.2958766382635098
Ni 6.893218729265247 0.5396366648643034 0.572557919760748 -0.9950171805279574 0.27660930539346557 -1.1687921296619999
Ni 1.8024637409266895 6.719992176069491 9.37264545268448 0.21182958991391906 -1.0021139394737386 -0.7953900462175012
Ni 0.10817254404081862 4.744013186061296 1.3593498389385947 -0.1572206443197873 -0.4372767706112727 0.801628056707413
Ni 6.338318171616614 2.0627862341543106 7.015741263177071 0.9179455350549353 -0.48320052972658073 0.25458266461072926
Ni 3.076262162822176 4.230495379285479 0.22208562533482507 1.0869552015898505 0.10409805346319491 -0.13885859687283184
Ni 5.871857794217865 5.333665510956949 4.651668393956659 -0.40369944887645953 0.6945871185658101 0.8882035279058123
Ni 5.1310009991612375 3.0736638998504366 9.37776890248188 1.0184394161066395 -0.5791253033503638 -0.698905543435506
P 0.014853403321779767 5.500324232751919 12.519624574895486 0.5447018315651716 0.09346114257463903 -0.3213351875459305
P 4.010653462287708 6.222009816645535 12.659496829366176 -1.1702756561860619 -0.37176789027518553 -0.5103891743262307
P 2.576258932197979 8.528888422200522 1.4161020370289663 -0.6208545647683501 -0.6897112785307477 0.8492088918101697
P 6.438071621889281 7.869425823432218 5.824508060256477 -1.0313743790007528 0.2972871454577913 -0.08392132140500386
P 4.732835242234956 1.0475961736648112 12.566565623743612 0.37573715933557866 1.05718182698216 0.2610052803076215
P 4.006295958762187 6.2183920963272445 8.24171540724897 -0.6343657118809075 0.2070491378061402 -0.8390818306784968
P 4.701394455927617 1.1178304696196553 3.673048884794399 -0.05289401978555407 -0.8755454728221695 1.0739317927469891
P 0.2656940410518361 5.641451412150972 3.536913437694872 0.13173021335816668 -1.0191883784575222 -0.06805761489986989
Ni 1.5063068708804892 1.0815089184938746 2.6768423831421737 -0.21263383098276928 0.349920712493107 -0.6166770363518927
Ni 1.8766495618177217 6.318759025357128 4.892130414594043 1.0772222905728028 -0.19150167698984438 -1.5457330794976927
Ni 5.957456124342408 5.58048244977938 9.159555410714662 0.6118317924444495 -0.005087956045868657 -0.1899037363751052
Ni 8.893204586522746 2.04203621736611 10.227184372326517 -1.0620072733952612 0.7936928610207363 0.11898731187020153
Ni 2.1725357794710325 5.235400648845174 7.223932496835588 1.124192488674754 -0.21115287556186862 -0.5614775083616137
Ni 0.8298851931737244 9.035279049296914 8.899088569544165 -1.0518850973595948 0.19391851396145313 0.20965597930136795
Ni 1.4447785602302596 0.9110249762127325 11.678739166300087 -0.34538631495786326 0.6496419213136876 -1.523693068978518
Ni 4.176653596593313 6.858647396946819 1.6640115093440286 -0.34216060893171396 0.45437923461951424 0.03687090488442037
Ni 5.658231860510125 7.922609018635019 7.883286834646736 -0.5593872014914882 -0.12265576186072424 0.47634699713985706
Ni 5.312590711297281 2.8961069083684468 4.882121689104987 0.08335927825394676 -0.48437295276812703 -0.8359491985867861
Ni 0.8136036473921306 7.428857858286571 6.572699535160413 -0.8533686796148142 -0.06978205379014434 1.5591655508535147
Ni 5.105848370115366 4.679733242750022 7.020508353990499 0.1211344401201914 -0.027802109813932763 0.0441052178493305
Ni 8.266364622844065 7.202799957998771 9.172310355816904 -0.30116334058374583 0.08590209928045851 0.02526340255247907
Ni 4.707682613189085 0.2759571797902087 10.363372145555335 -1.5708764115325398 -0.1752808442556078 -0.9098000231296655
Ni 8.029931714162164 7.112420102266512 4.569999936576874 0.6557035541267352 0.8457710697732145 0.5672977145878165
Ni 7.241349880492675 6.143809318593308 6.802533036329024 -0.1443730989331578 -0.3311418892237071 1.0160056098541663
Ni 2.5510070639413818 5.008043617071504 2.4703679878292193 -1.5876837128978656 0.7456098894705804 0.19312198620208673
Ni 2.057174707875067 5.155332649282009 11.484742748473986 0.8614735681101356 0.4868684654964711 -0.04526041449969625
Ni 1.2212647924356204 3.3916985049885437 3.774840347585524 -0.9301983842803594 0.5521333481425523 0.1197802400851421
Ni 3.5249677432473696 2.6652043302479225 2.6990647489476935 0.8918475524163028 0.30897692309089364 -0.23083492737182826
Ni 0.9138036741130655 3.2192748872250267 8.21432989596176 1.2607412064674868 0.712671743981663 -0.4938091584803625
Ni 3.803866012373645 2.7323802541631146 6.8879906272092635 -0.7927191842535574 -0.09246612565122139 0.5509922925595736
Ni 4.198982419006703 6.913427441267668 5.994380328129689 -0.1055710384642956 0.2263028438294296 0.05018741948766841
Ni 0.7602860281675278 7.334093433789501 11.464698232256582 0.2993897936230908 0.2475234437711027 -0.09596462572278312
P 0.22746980360404168 5.766790535298132 7.938057857221156 -0.3766468156340417 -0.8845409914525604 0.7122151160602186
P 8.505792751340612 1.6333781693421436 8.07733557860213 -0.6303339650136951 -0.4613394679874313 -0.6572577859877325
P 1.7136446473267615 3.215097818628098 10.370951314730885 0.3232784273152303 0.28633655998355845 0.42938811189181536
P 3.9235845874951325 6.061332512733425 3.7657563511055074 0.2399885688466383 0.8145735611244874 0.9097444873013817
P 7.031964167606872 3.7934188300081075 10.27824475059442 -0.6032268243842579 0.1971092529846089 1.0613441858899657
P 6.313318912260048 7.562235357502553 10.111026680520812 -0.686658607747353 0.5442855699633593 -0.319764757735017
P 2.526603239849172 8.481010013898358 5.838121875618823 0.555046150913973 -0.13148570144752839 -0.3098384997602406
P 6.93260767417711 3.8783224856575664 1.6218637143739782 -0.5759217088114017 0.3998250535227179 -0.24700742336663267
Ni 5.166564723586927 3.0263899485590575 0.47143767490398875 0.13897558206667035 -0.7720693692136896 -0.40815002844864545
Ni 1.501299801612032 1.0746163042216201 6.789117699388131 -0.22884206531151557 0.7942654456947547 1.004393736646851
Ni 6.836850857572778 0.6039481842880808 9.19960384529053 -0.02924115625330448 0.6786881879473666 -0.8766412769895097
Ni 2.837673056743588 1.8028697195160241 9.07751706173126 -0.23439359125736406 -0.6823031589921347 0.27803369654481797
Ni 6.293281613439789 1.9000339285633805 2.5018069697872725 0.8285953293248762 0.8037219631219641 0.4216439491700222
Ni 4.113817132710784 6.570177054858682 10.459406831949698 -0.12852276216446254 1.3134331375445638 0.44181528191157454
Ni 7.952245455656428 7.394079025800261 -0.018635319425090068 0.2862278023198361 -0.512539387900014 0.9654939742578599
Ni 7.614038225501617 3.7777209912205123 8.19720391471435 -0.005630201702583852 0.8904869246233502 -0.4096024446244559
Ni 3.0633249784420546 8.62293110698322 12.531931139200177 1.5023706533516576 -2.98057679364197 -1.2138147171192775
Ni 0.08317599120818063 4.903391358487536 10.204565049678092 -0.5724507195436657 -0.7016561095974496 -0.9017131323564729
Ni 8.661562225194992 2.297586206732445 5.662795962028887 0.14852671609021517 0.5327708844555405 0.8171976290108959
Ni 3.682496457655531 2.645383553341976 11.314935437175068 -0.5212186608415669 -0.2407264754539273 0.6753717219796239
Ni 0.9129466082022485 3.179534094202408 12.504981378265517 -0.6875708351489771 0.14473202493447332 0.29262316432321867
Ni 3.107125557358017 8.458031625742032 8.145206176992406 1.319918231048275 -0.20164982116743982 -1.0805212730390488
Ni 5.475514430070374 7.843334932757663 3.8713640126363758 0.3286846859324662 -0.07562077195910846 -0.862381938857018
Ni 3.0879092374628576 8.427312579149065 3.6704343826790855 0.4547178489058556 -0.6176656255174071 -0.15845245984435938
Ni 3.2731437351564816 4.477113839686457 9.428076867097552 -0.11544587437584634 -0.23074211054770583 -0.4370872803082859
Ni 7.2192917104721746 5.987733105360321 11.322185312605937 -0.16621770561207505 -0.08698864747641792 0.010251502524679119
Ni 0.6515000053694928 8.994446624956307 0.5890487700595098 -0.38987257029569633 -0.42586878588464727 -0.4061489388582167
Ni 4.607622423537809 0.29002929987118053 1.5609651216245384 0.4426053819130378 -0.2112444068344104 0.14936463861047825
Ni 5.903460971960937 5.726048328421823 0.33070113712533966 0.7046594152001477 -0.04205733418136628 0.299901957372819
Ni 7.909509442819164 8.753096864470244 11.125798131975975 0.46811303926583897 -0.261244392901621 0.09834469591918546
Ni 0.009153463927525361 4.864435457404296 5.9267614364648 0.4969361341451183 -0.8534738377341108 -0.841083691599874
Ni 8.031582693758791 8.899267200123473 2.5370621504850677 -0.1776100066094167 -1.1446476712053126 0.7805882053179782
P 8.502896770736694 1.6947260450637802 3.5726575970491554 0.07924422764430868 -0.07959261212266293 0.4618110083072111
P 1.7881552510892609 3.081269232090633 1.5140899315253502 -1.5596918556706298 0.38897499818209136 0.19950269291745
P 4.768417010153505 1.2027611905084032 8.218872345289089 -0.003734270231451633 -0.8870727567354787 0.1654234918455538
P 8.455631841191744 1.324383354126548 12.424950367862714 -0.18746658768852228 1.094925364279521 0.23478208494503436
P 6.348070679507068 7.614642682512404 1.5315334782470833 -0.23467589838447328 0.5880470313200259 0.01415572267509175
P 1.8417714901206852 3.2002750892441787 5.975749519577814 -1.004362112077967 0.47874275106554315 0.8707043426797844
P 6.954368126565431 3.868082803459911 5.965133630554042 0.23341502939417866 1.0521584056256394 -0.13461653376702623
P 2.4439189338214073 8.62004414812573 10.220634584418589 0.4306320116012455 -0.10603486547459158 1.3192502584469732
