# total energy = -381173.6859187707 ev
CRYSTAL
PRIMVEC
9.14644106184206 0.00000000000000 0.00000000000000

0.00000000000000 9.14644106184206 0.00000000000000

0.00000000000000 0.00000000000000 13.38674103043570

PRIMCOORD
 96 1
Ni 7.270835395954123 0.9513762297160576 5.329342270099675 -1.1755160786493948 0.8209660949143925 -0.3141605241743622
Ni 9.262966878967084 6.644377344061027 12.286109911447573 0.8142118069096946 1.730486639130426 0.7128954299566949
Ni 6.794909473624429 6.685829015660331 6.2551020618968955 0.14468291686409276 -1.3820867341572198 -1.2884250455360005
Ni -0.004627184612111152 -0.02091608177698316 12.097906334440204 -0.10215609924547568 -0.7918694346587524 -1.0556386508647562
Ni 8.999869497335583 4.352974304399959 2.188678443699254 -0.8397148362768054 0.3281272707670994 -1.6269025491891724
Ni 4.060489407135499 6.626925934217366 6.286172522713938 1.3688517235241846 0.1148141543291184 -1.98668215675423
Ni 4.203530601341481 1.0366667940725243 7.875419733674725 -1.1053961819038576 -0.5006128116657572 0.3999150421333629
Ni 0.7943208582760833 6.361743163988193 1.334122782138887 -0.95059828809295 -0.241401647144081 -0.21363450433314174
Ni 0.5936790358565588 0.7548182933003038 6.27711022875529 -0.8458011516802014 0.4443804715355895 -0.2994813248956326
Ni 8.035459588884086 2.660644871625739 3.29408897532103 -0.43764032459827845 -0.29722955274697843 0.7433851139051197
Ni 4.201390334096504 6.277458708165691 10.43677175408359 -1.5728757013507557 0.5877624102000716 0.014214343827169068
Ni 7.134059513982368 8.14332357016621 0.21326665523252525 0.14199868516371028 0.6825803239129212 -0.6338394070637922
Ni 1.6465332015964371 2.719804053422804 8.659200233091356 0.08001478726174606 -0.47070496836273124 -0.7123786382212763
Ni 8.877828532165788 0.34419887591019344 3.800254861605184 -1.9283829067927045 0.8467910263972964 -1.1494764600525236
Ni 5.66136357417242 3.090491023099896 8.739520621290044 0.31866201158914154 1.0795026019665472 -0.15666374337505276
Ni 5.814328657099772 7.708117604138392 10.221178244205243 1.7570296797262772 0.9538062535072863 -0.5198436348709111
Ni 5.547362330833117 6.0537550488594745 3.821097771852424 1.3172437695399057 -2.3733873850655383 3.2981964800095263
Ni 4.682520581479155 1.5466997957035862 11.739047542546038 -0.6837113521935709 -0.5712584990077775 1.0958131662011128
Ni 0.6473585847200083 8.77964148569215 0.8897045205164492 0.10895589577612846 -0.10243557815910745 1.0939288046942064
Ni 5.813020716005618 0.4337416207888394 3.256605944566152 0.5638030711709967 1.5539081591093171 -1.0670764603880525
Ni 1.5239983286008782 8.263873665417494 3.482895302804654 0.9403511564436451 -1.105505453788212 0.5848827746594314
Ni 9.156410838779113 5.731516778313343 6.44224831029948 -2.3526401252158577 -1.726709174365865 -0.39237759610573714
Ni 1.7603972483174721 0.19493535774370696 8.070049600281756 3.3027905271381113 0.6100037380967752 1.5818699344295661
Ni 8.029313180385689 3.902329145596408 9.612403007118619 -0.727785716804966 0.006567368804872561 -2.9944193559520174
P 6.488311617560825 4.671526559135296 2.4084756579613256 0.7752999603358454 -0.7175984918593189 -0.8565861581108474
Ni 2.6561814083114275 8.605913981200276 5.885092843514047 0.17333709026567568 -0.0675451940398256 -1.0330795346173174
P 8.031243079482655 8.090932754870355 2.2600033069601833 -0.1543114410927923 0.44082437875321495 -1.613985326906872
Ni 7.579701569439756 8.77070541262231 7.130179593617756 0.26980616642870303 0.28211737969588835 1.7397832339410038
P 1.541669253033768 6.602075053428464 4.949586603955083 -0.4397483720802168 0.4664688187941966 -0.30507630248490686
P 5.358113315594548 4.8005645518367475 5.935132108772791 -0.24721773960522586 -0.31307114776492534 -0.4408927700973052
P 2.1695267104331943 4.582540832526818 2.156429921253353 -1.2581765310641042 -0.13218864105182396 -0.06431537424861827
Ni 3.6481038119462217 3.5001418323650357 7.499506487485753 0.5238229312336334 -0.7146046993383177 0.4061227136059715
Ni 1.4724489858970664 7.7535937098735515 10.281833783785547 0.6120783612376168 1.6669865616942516 -0.19389408848142092
Ni 7.275554959622535 4.0182877273563316 6.793958243737773 -0.6453466363724434 2.2178587837361934 0.8569689953715628
Ni 2.661202804540028 7.219194588838133 7.894790066885893 0.43114468957160584 -1.3547427949266282 0.04710492390760274
Ni 7.491063407597555 5.8034809778154 0.5703446350215756 0.9331734077482833 -0.13111032038598064 0.3156026559375274
Ni 0.18900754919041732 2.1624290720481416 12.924135467548885 0.4304561481450135 -0.8036484295715515 0.3639537935474055
Ni 1.6113468422313617 1.5078182740864987 4.102313338892369 1.2867777397405644 1.1578240606862704 0.8780453564258878
Ni 0.20525711665805255 6.0632399084023865 9.938705041497844 -1.2038730325255331 -0.5741700162276175 0.49116940686467025
Ni 7.586972990207947 6.446677017137164 8.478465639982486 -0.7225586640780718 0.4397368021159911 0.3653933542074094
Ni 4.1848901541395 5.125583340513106 2.370738356140591 0.11359056633466244 -0.5546602283294642 -2.3078743909643933
Ni 7.427879791664636 3.4422174201323807 0.189409077959881 -0.24400848863930877 -0.8555734005756169 0.3974092449923736
Ni 2.2763845831813554 5.5252462359683525 11.25454134370988 -0.6845207354687437 0.6493423877953979 0.1770914151017853
Ni 0.8096255983659145 3.8241545125074303 10.692150453971347 1.7744473609820923 -1.7943142751093484 0.7389522749447467
Ni 3.451848622734779 3.326167373960279 5.2312439441058505 -0.02726320659132724 0.3132053593499444 -0.9017321585198664
Ni 5.209593403099074 5.580975502308722 8.066970908167827 0.0578603626518939 -1.149669035679304 0.06750585616145793
Ni 0.5440833729968799 7.447983669461474 7.718018626756717 -2.041145063688801 0.7608781284835606 1.1565343953405696
Ni 2.385144915702829 1.0075079394700133 13.173183000825647 -0.3710526093757158 -0.9537026380498866 -0.9546601168671495
Ni 6.919941325072462 7.849567317572468 4.140893942593389 -0.7029308625448152 1.1579988957012382 1.3274973289471137
Ni 3.667485120886849 2.5598876751698856 9.95029815574147 -0.3575116374664875 0.19040227327807854 -0.20493260568376964
Ni 0.8768025505345477 1.926450888627569 1.8525778268433466 0.11532966051295622 0.7301953546877231 -0.09660431618931103
Ni 6.169896559443754 0.9317388204213302 9.189595956805721 1.2255916551495472 -0.6584528347370983 0.17620284184924495
Ni 6.488659182327103 2.8852906143773933 11.106149481391453 -1.0177781283735567 0.4403669795008222 0.4120907582639483
Ni 4.22754915597956 7.440767127340589 13.25776014276712 0.7036209466333043 -0.6639917622774566 -0.7348030286630635
Ni 9.025333189686082 1.0369503337502777 8.652533392087664 -2.7005566627947424 0.05904538409893057 0.7600399488529813
Ni 5.882533669261291 3.107722918354328 4.415107908881069 -0.38247139273561875 0.6715641753080757 -2.280323735039634
P 1.919783132979755 2.3857485808232077 6.361419379969082 -0.1830206361020267 0.44220994624683196 0.12205618060351237
Ni 2.8825558284532558 5.1705655384225 8.854526143875066 0.17038186429209368 -0.4405400147435768 1.1599876439964925
P 0.86958966699015 4.721136856300924 8.51630995516547 -1.3196804040058563 -0.21394226538154767 -1.646718555473835
Ni 1.601706493187746 1.0271636416471766 10.568698192921637 0.2153481445901388 0.9491916375534104 -0.0467357134936421
P 5.149601895151185 8.696546067227967 5.597197630452704 -0.07938718098007617 0.1626883523025779 0.012091898167527561
P 8.282687895002615 8.277995770657858 9.912533414597084 -0.3012782688950553 0.25840178124650337 -0.034798338626107816
P 2.4169196524936463 3.5290903188195357 12.276940604126677 0.15790327220910869 -1.3056789475204416 -1.221520570403967
Ni 5.637591973447224 2.50754259208012 1.8781595082855558 0.8180530350326556 1.1610911614733166 0.17006793259610065
Ni 8.623292219514193 6.580928481332791 3.566844084234462 2.6148078012626965 -1.6550466157235562 -0.10259498655510718
Ni 5.511700356524714 7.893076938445789 7.7499195844363395 -1.2014726506141566 1.427811489887844 0.48938017617473134
Ni 2.792710336370299 7.275408616563049 1.830087642532771 1.5486461393794297 0.05682935028421826 -0.4859793780232985
Ni 8.866761338292186 2.8492079037729687 5.552244701155207 0.6325440852911365 -0.057486010031610676 0.1566658002575818
Ni 1.0529383129990824 4.197439071490392 4.055031725660807 0.9128606643328602 0.1801944795071413 1.1956897253837924
Ni 2.8321497909016755 0.5479687812262233 2.13044671104168 0.42806785041849504 0.25240956821881044 0.47880137221762054
Ni 4.302485948877418 7.798301514546409 3.656226766391796 -1.8122580040719627 1.6783017295967548 0.4846138651343396
Ni 6.743991235364649 0.3139927537882384 11.50461876626777 0.5316115740401167 -0.026811720876205435 0.3849746187734467
Ni 2.1314134898784065 5.174297286439384 6.457549391812823 0.9886195045317296 -1.2593073022344374 0.9078593544635267
Ni 6.138304751477295 5.2128861219375 10.171031965584248 1.3748565349573676 -0.5639002588704934 0.6702423711728586
Ni 3.2100990349057414 5.461696762386719 4.3681473357362535 -0.10277702065892623 0.5294950419177462 -0.7420604815564252
Ni 0.6105020851885533 4.3598615746370015 13.105914584244834 0.20789091698114517 1.1761606542119294 1.3640111076024317
Ni 8.424750419998288 1.8989109541206175 10.835562993690775 1.0300962836192775 -0.5329693736195918 -0.6881207941151762
Ni 5.4468795276138 2.288741425266673 6.350656762588035 -0.16414488224344634 -0.7794898300474769 1.4883766530654108
Ni 3.397784008696058 8.579105761990752 11.329467160878275 0.5779351396970046 0.5266274905619639 0.031762380013261426
Ni 7.544213377514491 4.774021579422542 4.533781154394451 0.4267465605039102 0.019222595675037864 -0.2419937722021252
Ni 5.690046813831604 6.990259165155305 1.780088621615385 0.1393386218330439 0.8310772152064655 -0.48963960048370514
Ni 8.084749760607089 4.886861224727178 11.693907111203576 -2.5810687571390383 -0.6607087206508105 -0.10799327475254304
Ni 4.071748676274674 1.277821863222401 4.43577703674517 -0.08722390341567558 -1.5391070895407428 0.8921964511152893
Ni 7.699446777863869 1.104698023850905 1.6708929184919412 0.0939851333989091 -0.8170747302797864 -1.2398993300214711
Ni 3.5072943493973954 2.798115883130049 2.767133228148699 -1.3237036662326365 0.34238635178927485 0.8117378914479052
Ni 9.047677945581292 7.894009875450009 5.542365629995805 -0.3470796434998861 -0.5567497638686412 -0.8894183741495197
Ni 2.912053101380828 5.293411390419466 0.10028615473313447 -0.1461751851389031 0.3412859196362445 1.5038104711219777
Ni 5.303454182876667 4.9356483421832 0.17958945866839546 0.45848348659587496 0.2751453192534294 0.9261856635765405
P 7.38226648931121 2.0611962606489596 7.375773430690656 0.38930152828357467 -2.0331000818971376 1.0740927438048857
Ni 3.6094418049183625 2.7989207699572205 0.5023820035523289 0.6559526940230639 0.31989922643035223 -0.5712554136839839
P 3.726790645743399 8.333148811201504 9.15828494458465 1.342909806847442 1.6403260216839302 1.6427490293031257
Ni 4.879434314458283 0.27937530306691344 1.0246602606858504 0.11585956487449724 -0.031425308388816846 -0.4493799816327099
P 2.013753670051963 7.566878258852327 12.89401532197438 0.12289770266820126 0.23345950947886893 0.13442807190530395
P 6.310303578578995 1.5441387921625878 13.324078244105397 0.01024018967076946 0.029186648866285216 -0.4718066860673423
P 6.1012067858976895 6.45009778615264 12.159645727304826 0.30091137247393984 0.04546250320817332 0.08203927389094258
Ni 4.499152727943665 4.208158700597714 11.616144067969401 -0.9792226366978619 -0.8077925336469121 -0.5567150539759638
