# total energy = -340865.3359563776 ev
CRYSTAL
PRIMVEC
9.31503185971679 0.00000000000000 0.00000000000000

0.00000000000000 9.31503185971679 0.00000000000000

0.00000000000000 0.00000000000000 13.63349070454769

PRIMCOORD
 96 1
Ni 6.356465909471257 5.390105882066955 3.663782712523797 -0.787028047406051 0.0036666502183098143 -0.6181086265920968
Ni 7.753851087615393 2.8251000997791293 13.761100181492424 0.6054294884625315 -1.1585431982404821 -0.41005752988400346
Ni 8.972844092051487 5.2131854833808875 10.81887007754343 -0.6125455306820224 -0.0992299267376162 0.35942659510101327
Ni 8.000690114877125 7.437931784638615 11.094607127910717 -0.7263343290704201 -0.5703442147236242 -0.6569040021927396
Ni 8.717724001533192 0.8562721872636432 4.238543461216843 0.9043197167413844 -1.8766294283694969 0.4259873137403825
Ni 3.6761866088482518 6.128089275206722 10.412537213058375 1.2010882706915444 0.25668274167286764 -2.8028202341523603
Ni 1.4486923732140495 0.5777937230421316 8.962738214068308 1.0674986355271356 1.8365441303128371 1.887612152633246
Ni 6.470099982212336 4.563676262131829 8.957421193925624 -0.5127782433836976 0.8472656520408698 0.9811823315273941
Ni 6.261052038900974 6.907384834311463 13.215882987607609 1.1955565422400378 -0.7342967784506064 1.4119264432264715
Ni 1.8338037322872898 2.801048687711135 7.979068994601748 -0.6393557088963312 -0.32043350166726753 0.3521562866918451
Ni 3.4017471424085692 0.740536643351944 0.43880320228002617 -0.1802962951923282 -0.6911459540947452 0.08824463137070608
Ni 1.0844001101795269 6.136426228653995 7.083320634137891 -0.3101169502326078 -0.1924280454588557 -0.7136973570326999
Ni 2.6982852570627545 2.082040014316721 2.514138256718148 -0.681694064653226 0.35963408312612904 0.249189518619616
Ni 8.906642161157901 7.315597472210662 13.416322910046766 -1.482646178339537 0.1358871729493337 -0.31712989121533125
Ni 7.7163115095232095 5.519957425145129 1.5265557923988524 0.2664225946684508 1.5184799002086946 -0.1758552287018391
Ni 3.771796095086013 8.767317230754726 9.370734743230104 0.014463483723497672 -1.02233515161662 -0.08443605625789329
Ni 6.694024031283802 4.799588757110155 11.366472851068298 -0.6755154466463399 0.12950620912365438 0.7051988326433856
Ni 6.950029049821641 0.24820088490864953 10.442476656717455 -1.3597937270869744 -0.7605932502532902 1.0350412863293788
Ni 0.9764482068270903 8.740108022911732 0.35153998452132185 2.8821667917024882 2.4025717199389782 0.5597188737992941
Ni 3.7704640455408063 0.9529743267297445 5.4335595738392195 -0.15339767102927132 2.5188948547134555 -0.8797363709750655
Ni 0.6583827205271262 7.062563948812131 4.949148112935137 -1.829775701240752 0.9185656851374373 0.8186569871652416
Ni 3.774758275193535 3.099120389788503 12.375528326657593 -0.3469084080293445 -0.0431888766826482 -0.03168524691842285
Ni 5.818196797794621 2.4693124607640025 10.172192625956908 -0.6098769827109238 0.7913791252858952 0.4767905124351789
Ni 3.2277702937664556 2.488147455032587 9.741879143645424 0.07893106727926406 1.7698450863233905 3.7441126714633515
P 2.6097738250449054 6.511458723336231 4.714406517452143 0.9059348837473042 -0.04681773168448711 -0.5607136336123956
P 2.561326344732884 7.1160788064150085 8.310907686898513 -0.2109908960627076 -0.868824094937936 2.056992829354335
P 5.694791256711431 6.726300616417653 11.269988683345957 -0.5883131404972191 0.5417928854484927 -2.217232205895788
P 2.3148226586153995 0.20021449866996835 11.025812823671458 2.833383451651198 -0.5673272822741714 -1.4104184912223772
P 8.406834815720131 1.343767855191628 9.591623954946128 1.2176117222678642 0.7774897688983126 -1.5281081673270778
P 2.23526297214261 6.991704502026215 -0.09894519911984771 -0.008595712088811002 -0.5783100065379202 -0.65313373651703
P 0.7670937989700125 3.987942092617287 6.806915695991645 0.3919405085683185 0.8115643419845184 -2.0761089813584954
P 7.595299931608679 1.6170056825310892 2.6479645238588376 0.25372314482391145 -1.81796302487654 0.0715237190715994
Ni 9.340089220161747 8.031969991610017 2.555065711870413 0.23548245344616864 0.7639392839073876 0.06729374015065184
Ni 3.6975739218258337 1.4179993434835916 8.017133008983409 1.4366013202653323 -1.5915619649063493 -2.488794435783649
Ni 0.35427953536919066 3.175196254373829 4.256839115145096 0.32603747811760625 0.032220293486286446 -0.10732864458535063
Ni 6.436305046897586 0.48874201918077226 6.500898271801962 0.02407349600943596 -0.9859062193656246 -0.6113350553136891
Ni 3.9260623364717837 9.256179413845521 2.8612470806195067 -0.9280535700232146 -0.3455701488338952 0.04963566074925645
Ni 6.073978255569627 7.211045555459627 8.89356199352588 -2.1519806929861454 -1.1316839119557929 2.1841395371068772
Ni 8.48175561636416 3.920007565811754 8.052457472517201 -0.47160973956518776 -0.5253653360200887 0.6930303156016516
Ni 0.29311983118064183 1.6184774575530656 1.168301532967147 0.05832187566934472 -0.24644306622273043 0.5172607046350833
Ni 2.629680047968726 8.004602428226683 6.348448461614199 0.1770703320558628 -0.704176304916142 -0.006177332455305491
Ni 7.573623852645773 6.665864690198772 6.9033178914342805 -0.10718132037420897 0.10145444519276076 -0.47853346326821455
Ni 1.1084515222475215 5.042571361213036 9.12598600910085 1.4472544291038043 -0.4213564998365904 0.16506328029265765
Ni 0.34816980602163144 9.214541221768085 11.296300853628088 -1.911302040051018 -0.14884784687505978 -0.5540241374073619
Ni 6.135895271842268 0.3380695170575236 4.046229041003446 1.3638673829357157 1.6477179432726268 -1.4483720876480153
Ni 4.072429430904162 6.7120951929460455 2.9714196875494063 0.4799557975370379 -0.492598683112029 0.5757425029210601
Ni 7.754857111048136 7.662349530394668 4.3100912888516465 -1.6876906270108225 -0.8216921744471397 -0.43955322535027525
Ni 1.2997450149773198 6.2314302378257524 2.8800885954103403 -1.295852448348323 0.6943310366909462 -0.7155624352658967
Ni 4.943953119708831 2.8837941150542785 3.915347255409888 -1.0871446918928374 -0.2470249068681294 -0.9500051345936413
Ni 4.207050270256083 5.154016401484721 5.29839753114061 -0.2096058427897229 0.47506607354490443 -1.5253115784185474
Ni 2.6563303539046412 5.254525594441214 1.256203761906279 1.403587327233157 0.1092680276999086 -1.753285896413129
Ni 6.064001856528255 4.3019983892371325 0.10179094133006165 -0.7697355788741905 0.9553360598882515 -0.5123450125010209
Ni 6.919047254105858 3.43360455111211 2.354108805167207 -1.135082653224697 1.6902810134458177 -0.09814800652734709
Ni 4.518731233770841 5.851088175026258 7.648211175151911 -0.46091677862771596 1.5201691149856593 -0.6957482287534469
Ni 4.629822302834707 8.327740880836574 4.871791431479418 -0.27371758566796733 -3.848615416564133 1.04957624672076
Ni 1.662435092544881 -0.1170647989473703 4.4862366768932285 0.2549683300849222 -0.18592238312985399 -1.8693064123455225
P 5.449302909058475 2.2796490985965194 5.892885654147212 1.972727237236035 0.25826242745516165 0.01204304720746313
P 4.516551516333229 8.924890308424052 7.074132286785502 0.4126592291729087 -0.6743509940245935 1.2895948974743856
P 2.466732196959651 2.808360987662094 4.6258429212563 0.6900776607312309 -1.3162603225807137 1.1925365244667914
P 8.363314987222195 5.444440462466882 13.090264194972383 -1.1730439629598184 -3.087093998069619 -1.4705439957593642
P 8.014066500519899 6.182684676496621 8.953058964540867 1.2124988265213312 -0.1499855600239288 1.318312577124052
P 4.3627789716320455 4.142338744448042 8.771733487323834 -0.1343159718074719 -1.641611316154257 1.1867798244886723
P 8.428613360032667 4.901197123817236 3.5032893723899803 1.5888152553991475 -0.2073998362773396 -0.78389875774845
P 5.696747413386211 2.006103875208164 12.789372832773799 0.22496509885461258 3.1761135599331367 -0.1182558330208157
Ni 7.551062845663323 9.144259306952819 1.4652181711032166 1.056223833944265 -0.8820879019263775 -1.0945342994886893
Ni 7.462365113009781 8.643222377319473 8.261772757240783 1.0498269292789857 2.1807366820729155 0.0749114045969097
Ni 2.5191106206848 4.557425875804322 3.4615570984915207 2.0005298612706 -1.7496048480171158 0.89593277822927
Ni 5.494247937419464 0.8404878659045351 1.535622112834863 1.3100400527026148 0.01092564577356828 0.884249942574703
Ni 7.662247065045037 2.4125093969411395 5.480867825763977 -0.9916212674725309 1.3694831864605963 0.609871326283969
Ni 5.922739399513871 0.05639599693387315 12.990098726688746 0.9152001110993142 -2.5894161006624694 0.06340057574383275
Ni 1.5330772461512936 6.92324833344074 10.84606903885146 -0.3379763956470373 0.6276237651713836 0.5107259888403591
Ni 3.93275052929317 3.4168002337725816 6.739007251275109 -1.3883671678492928 0.0020843933328544744 0.25698613184589936
Ni 4.145151884047011 7.598215536557277 0.7394421271172463 0.09573168377637062 0.328346328756441 -0.10612022609954626
Ni 0.47042400917623645 3.7795182564354963 12.519238774024986 0.8081925972988081 0.09438571127143745 1.3281357338620612
Ni 4.54143196623006 2.7971177442980077 1.0723241029738921 -1.0291665727161565 0.8702402585591722 -0.36831361317799793
Ni 0.784929290328103 2.68192806124889 10.420158772064585 0.8003928987487313 0.14440112395761584 -1.053748890041211
Ni 8.570257733350223 4.95937881234423 5.645369424074733 -0.25228564104643647 -0.26883763186784665 -0.5878246308965748
Ni 1.7423487502254877 0.8040316260089074 6.529106051052271 -0.7616461169978367 1.182166494086377 1.0752281429609094
Ni 7.954049750731328 2.7945840556525803 11.26573543983308 -0.4878470273596566 -0.7171999708693196 0.26318274757491444
Ni 4.021858123345237 8.052034570074177 11.886972608112515 -0.6819308632543803 -0.5995979693824189 0.8970447803465261
Ni 1.7787891545670815 1.5424947432855858 12.58243008664577 -1.4598006411999311 0.12582130407289943 -0.6211715817881367
Ni 8.843411725403623 1.2201853285045303 7.286283067184334 -0.4381275486473422 0.4088146586158378 0.6218076727102387
Ni 0.37699330887290805 8.289642400837309 8.12212459523468 -0.06114777515391405 -2.5170452030992263 -1.5030057158324954
Ni 0.6370792428356066 4.082107748928425 1.7375477828436734 -0.7990818932467916 -0.03615999486032482 -0.025722344466768604
Ni 6.311381155633498 4.315551760483815 6.578704869292878 -0.1923105460443849 0.8177951533855787 -1.0880944574006164
Ni 4.402554157352548 0.9496209152872666 11.324877508137071 -0.38343632775204933 0.40579746905606884 -0.07737632119763448
Ni 6.448805819552602 2.3745320123550764 7.950779243071733 0.3698256789471502 -0.5872281349631564 0.1032110228725513
Ni 4.002929978758806 5.4431643031123835 12.67039379479468 -0.07806691950675587 1.2174913946399162 0.2232655996650026
P 4.609152247304545 4.502672118974084 2.3369169825054366 0.6360626399673562 0.9173151005597879 0.42579628077549897
P 5.912548754741452 6.426188922379444 5.416340737585274 0.4212834805068099 1.0275056400739657 1.3322088754901702
P 6.1607291465801755 7.452332823777701 1.7464231451280985 -0.29499012189349844 -0.14117233260767298 0.6098684980704916
P 2.515263512557735 4.506929088499675 11.118138761205127 -1.5552623591443666 -0.995322627583518 0.01832039557574264
P 8.621266847403026 0.5968550725830835 12.990098726688746 -0.9821212984018957 0.6226448238995534 1.4533150334755873
P 1.8293790921895756 9.332450894098326 2.3112037687670584 -0.3674535791705478 0.2571529964410668 -0.6490299987613015
P 8.407971249597859 8.591505320851034 6.064040048158573 1.0041286559109222 1.1043361160704592 1.1291842854623908
P 2.130068318198433 3.013794698641008 0.45790088044493815 0.4609638298155674 0.44655228237592776 0.6362001939864849
