# total energy = -381166.49980223126 ev
CRYSTAL
PRIMVEC
9.19500126175934 0.00000000000000 0.00000000000000

0.00000000000000 9.19500126175934 0.00000000000000

0.00000000000000 0.00000000000000 13.45781379155271

PRIMCOORD
 96 1
Ni 0.5219983771014051 0.09730334132166202 5.720459408890001 0.39184486353071873 -0.4494738268980969 -1.3456292626611341
Ni 2.7090128530461928 -0.08612589790624628 12.309794935807032 -2.935680961570544 -0.18831505173174665 -0.42461023088719774
Ni 4.20944394804794 5.371195565162218 0.5125597084061729 0.7351182459106371 0.05426904575620976 2.2257847234514894
Ni 5.571848880571236 1.340419684739272 12.309539314774662 0.5407621301911332 -0.7247638992595067 -2.0785780117242783
Ni 8.87046359827956 0.692225433657502 8.4960118878622 -3.8548223167057936 -0.40977213743310076 1.4058586397658368
Ni 0.7495259224135453 7.041679011697939 8.83903784280007 1.1458375777483556 -0.1447060567925443 -0.3881530165014283
Ni 2.483064089433976 0.07801774587949935 1.1240208493363764 1.6751940372057086 1.3459035993684434 -0.6496362648867328
Ni 2.5551069235568638 3.7366461831768794 12.7045528867958 -2.8249137236172897 2.7536959658218834 1.1141716141036424
Ni 6.517968525379727 8.932309176111156 0.5396031263307197 -2.0611587878065665 0.6424484888890418 1.7596452629722534
Ni 9.070850258654811 4.702801735522546 11.409615355815998 0.5214130362405601 0.07244803065808168 -0.6894824503493932
Ni 8.68489008478012 3.216209117273185 7.293987085148073 0.12562384335011267 -0.8271567971061367 3.029799278113208
Ni 1.2679906605674804 2.2480766396771776 10.862352793515354 -2.164594525095414 0.6337265356350118 1.5511493654172577
Ni 8.927913965554582 5.481701089155692 2.3598409593300538 0.06964090022658974 0.6637927588927729 -0.27695871831308433
Ni 7.890984489246712 7.230654675628198 9.669398859449881 0.10700134315291894 0.878255929774797 -1.420459163287831
Ni 7.581048584999083 8.345520981805322 12.25494123686083 1.4818882171275898 -0.04193057879551488 -2.5780675084188696
Ni 3.7762214681883544 8.333953670340536 8.389103448324233 0.29983150914619977 -0.4202635238827278 -1.3843577895795836
Ni 7.528600298357481 3.141159517769546 5.506412654784953 -1.848283273126636 1.7957366093781717 0.6536554133484548
Ni 7.463370960097396 5.243688484015813 8.144197350811421 -0.30337911728814204 0.5166572667231296 0.6623732528374269
Ni 6.0264405431368315 1.5244116580384401 4.102170466963744 0.033280359319684615 1.6865431436699403 2.142621620368749
Ni 3.610922932256363 2.0974717156058595 4.737594700428429 -0.1346116486710198 -0.14385836408026836 0.4314046281012119
Ni 0.5258961380949841 4.020790109158433 4.59502252937431 -1.33272823832875 1.5842726303337877 -1.09710308865713
Ni 6.255589167154251 5.292054190140432 5.8257394137217595 0.981112397521407 -1.3350936532371331 -0.31396717721663353
Ni 8.507123127269233 7.576782104458813 6.963166574755795 -1.5379840316798932 0.14482072799353768 1.0801991138129396
Ni 3.957050361086977 5.870438153382024 2.9010063163586013 0.42660026473403306 0.3885111711717954 0.16397313255227244
P 2.1675744044830636 5.405299824480889 10.891624160222028 -1.0912417447803464 -0.6086230556991646 0.09093889037341758
Ni 1.8442413835389382 0.014563042844139056 9.924720134781582 -0.6753382976385273 -0.6703418728652004 0.4213909526189517
P 7.503442775171747 2.825918097850072 1.0602204142572356 1.8609757809926402 0.3607795095844819 -0.43938096143846905
Ni 2.076442747942931 5.070270762055677 1.6139286723741084 -0.3932489429670969 -1.5775473957948123 -0.35616849317503174
P 5.106112876594415 3.998354306317355 4.530936129758957 -0.5516003584572178 -0.8502671578713551 -0.9095657956316723
P 5.916312014191097 6.809790277333534 13.329009322871615 0.8161887281304072 -1.140793587566545 0.45380947815897327
P 5.3532928978951775 3.4035572659973505 10.76225417183972 -0.8222321061110097 -0.3572108183966171 0.09452403662151462
Ni 6.829495164828792 8.949209588251279 8.184099977864348 -1.903598243648857 -1.4953618261339925 0.7989726213624369
Ni 0.6243350620604466 7.205589102454108 11.222161464578443 0.18239817202667943 0.07661141800715193 -0.03738846795078722
Ni 0.3620844338512725 3.1726707867598636 2.4975416187672863 -0.30206348380051207 -0.7710658676498398 -0.5551423101722052
Ni 3.836384360806868 5.796409199007631 5.404092520828006 0.046554193610455305 -0.25543010021268914 0.9069815798442636
Ni 1.8535099447126295 6.22480430325592 3.991344956929751 -0.3622980031115373 1.3056781761894933 -0.31723093556956977
Ni 6.8730243003409495 1.6772141873880444 10.254571492051134 0.05919347964102063 0.3260660173626965 -0.9682232002635647
Ni 4.338091209338727 7.669550471206204 1.4843426014644379 -0.10155883198110896 0.7484345034035691 -0.6531242234353333
Ni 4.851383759337701 3.802215736480046 2.292767103836395 -0.787537897162934 0.6797423402434938 1.5858957677595074
Ni 3.976461008544975 0.3766419596947129 10.320757110432313 0.8253863354692752 0.3515407645950333 1.6062977284546271
Ni 4.815762324826908 1.2976997093295801 8.551081669335767 0.3519272014001745 0.6480501513465355 -1.884192842539052
Ni 5.932863016286975 8.348380627167442 10.515343564073074 0.042074560572546896 0.8612953906610584 -1.8191056231214153
Ni 5.695227406194836 3.523230206151707 8.651153625508023 0.2669674114283273 -0.21649434237944007 -0.9797859654004997
Ni 0.060822174201999375 8.158384318107938 3.452534439699401 0.8374664065622608 2.3299295709922196 -1.1353335928932384
Ni 2.6916343008455215 2.4867328948985623 1.90364844706174 -0.14946928250914257 0.39956948586848606 -0.8485193219423129
Ni 0.4804627178416848 0.7929336839103326 1.561752557766972 -1.381927068650904 1.244256321438586 3.3548774776413386
Ni 5.409980080073557 2.5781036214689683 6.282874413609421 -0.3490267399239279 1.4860045532888086 0.8179558473331592
Ni 6.627453404243955 8.873645068682434 3.063684276958745 0.6880526598814021 -0.32192731260397456 -0.11590198807665844
Ni 5.15778878313821 0.3889632612549771 5.941409769869263 -1.4557251855789768 -0.38606373807256733 0.9362762150433229
Ni 0.013352061190790708 3.7339152678310596 0.20224772861092066 0.030939627001649945 0.05388980803992009 -0.16189876652174698
Ni 4.164866582403044 5.187727706929419 11.788640659812517 1.0238243345676368 -0.5771589236526125 -1.4269686822715748
Ni 8.574025955741236 1.7001373252908343 4.527194683785172 0.9184602699078246 -1.690768751715514 -2.647967575844117
Ni 1.803443163372601 7.317529046629224 1.7190468451853738 -0.5321479061595609 -1.2376660698155781 1.0124909118326886
Ni 6.497252187756387 6.749820479739473 2.0499749370912737 0.7353699569101271 -0.09394399574832854 0.5497121402955695
Ni 5.958480289530926 1.8937656598102686 1.9639934007033082 -0.5584132676139931 -1.390471101566173 -1.3913221367125588
Ni 6.8448508167733015 3.76066352621823 12.242666829806504 0.29701358008143036 0.044592699008710296 -0.4031608027641702
P 2.4562146860339973 8.518561708717717 3.834803740106712 -0.2999333248313867 -1.429860659107389 -0.29549662921627173
Ni 3.2564556373696596 3.4479415366177943 7.622855496793152 0.9039443356798369 -1.2195940428052157 -0.5148976037195454
P 8.780269831858194 3.5228440161028036 9.622713999538112 -0.49445321982226453 -0.5670156645710235 -0.728005803235572
Ni 1.3456332503994735 6.975989923379635 6.362598751705028 2.2257207029827732 -0.5286188099603798 0.04316393698198373
P 8.339774106077586 8.458463181107355 1.5490754096616464 -1.4841019369494568 -1.6634075860937418 0.41964080269706444
P 5.048653314318229 5.785182102585928 7.673012389144591 0.4697480037661007 -0.7365007280804606 -0.0764538093833651
P 0.23701678651377647 0.4054131183380461 11.192782516358143 -1.5765318100461043 -1.0044143054721413 1.7609074175141286
Ni 2.693767541115657 4.1155813761619875 3.8084131672648356 0.6499393979494484 -1.4147379445333377 0.17577166784909729
Ni 4.612644749105836 7.835897237270935 4.141184856904193 -0.4465026600849149 0.644218179194955 -0.4044463543448132
Ni 1.252064918550781 2.4939969458184192 5.928059547678704 1.5022302711190514 -0.9851076347237292 0.9388426902189185
Ni 5.8805066796570165 7.379448184470134 6.60280712312296 -0.29215625198912903 1.2235895371178538 -0.268620373650718
Ni 3.1865184585134143 8.362982289016474 5.902448710935567 -0.6739118496046459 0.6363508606317363 0.6324625813209237
Ni 2.8706793635182555 6.8377798608778955 12.851740948434434 -3.3372726200753817 -1.003228512694156 0.6705889558789999
Ni 6.573000607348518 4.739673690191695 0.9296293297202988 0.24978447189113753 0.2768255351693297 -0.41053626929263487
Ni 4.553474916613076 8.031759957073312 12.298705764402794 3.079803635055793 0.6292409890598325 -0.22145091505376702
Ni 4.046306237389577 0.6542151378442036 2.8399616231284237 0.43191499207872713 -0.27179337206206095 0.1289199976028812
Ni 1.5191245323689238 1.144161579886826 3.59446112167178 0.23766532003010035 1.2170203685407683 0.709012807072837
Ni 9.062455222591735 5.271990697599763 6.4112485833656265 -0.1342617215307688 -0.6483751387861221 1.2676970689600298
Ni 7.840200497815862 1.59753030729756 12.451142332706057 0.8711265178188674 -0.15920322196745484 0.6217351676010905
Ni 5.161531148612111 5.515354793417308 9.755852099397579 0.9385907221091127 0.9130509259667953 0.1984220582587615
Ni 8.79564387380503 6.5413514133407356 4.661369060275867 -2.381416940238234 -1.5349208193735373 0.497691267143588
Ni 0.574505511750459 5.897250776777345 -0.17596105928220196 0.3513564164983691 0.5279665210883617 0.9317770416213887
Ni 7.161581826881404 3.9655005671570387 3.3986232283725464 -0.1240518708773025 0.12364023726118062 -0.8943140116789243
Ni 0.46610196502316203 8.23594415292945 13.386890935701247 0.8283346194643217 0.5693571682200065 -0.8547020537142571
Ni 4.71180364166247 3.1008762176684144 0.07393148736205055 -0.0046192439395662385 0.3985122482485653 0.09960916445390587
Ni 2.994775099232677 3.2142413870240083 9.968350415306547 2.3741913690240724 1.8423987893214013 -0.23012530289931338
Ni 1.1937134411616495 4.694130849424539 8.560246326996301 -2.42774461966018 -1.623853992170836 0.3866998289946695
Ni 6.8204288936807185 6.347539178798013 11.288239501445998 -0.6573855698148485 -2.3456366973148315 2.291984459207014
Ni 3.048050935979073 5.731924655841861 8.598412018329277 1.6980560294055467 0.8755966377750792 -1.3027769433822982
Ni 1.414255544089213 9.046989230633255 7.7467618154835876 2.5432522005118976 -2.3240386594290814 -1.4763292349825734
Ni 1.2639724450586483 2.046531409155215 8.625812202299002 1.9714442567585533 2.5703968792474896 -0.9457250191610486
Ni 3.2923805069188776 1.9611282383404887 11.952839473605248 1.4062656453962683 -0.859546526290752 -0.47818970677555067
P 7.1491685753094965 1.56067674263074 7.301725598128011 -0.4825883500638786 1.3586547283865247 -0.7785356936643237
Ni 3.191290664117725 7.208871717869791 10.314243371607468 0.1790444250630981 0.5814030436409472 1.6384519445896686
P 6.498760167947345 7.0096252376389225 4.286609317319502 1.8813846836662953 -0.5823936896889905 0.9099730583724198
Ni 7.28119040202761 9.064450537844404 5.525859162747492 1.152948477761524 -0.07494945692369673 -0.42838820987239123
P 2.719771004408513 1.3207331872463426 7.0477624244682895 2.1494381290699494 -0.24549818581095784 -0.61322841568166
P 4.428055100730984 0.900814954571493 0.5120668563437624 -0.9902344144273333 -0.555465754949895 1.3561329904059356
P 2.139722745956168 4.760436002820856 6.436293927537155 -1.5881074306988456 0.8533239424198078 -1.1198239272934134
Ni 0.8381252756330088 1.6091803737728245 13.18447218006867 2.1967317719495907 0.7855609759422213 -2.7908139537201033
