# total energy = -381170.39581347717 ev
CRYSTAL
PRIMVEC
9.24351270135329 0.00000000000000 0.00000000000000
0.00000000000000 9.24351270135329 0.00000000000000
0.00000000000000 0.00000000000000 13.52881518700949
PRIMCOORD
 96 1
Ni 5.084514175911562 0.40330923679233643 5.704316641598485 0.48218005888186644 -1.4151027840719241 1.237649871865662
Ni 3.420376903213915 6.205021995776152 3.42000346531188 -0.969673559556846 0.17291697200912157 0.34745193923764034
Ni 6.406447375064141 0.0719681390510037 1.3293566639823784 -1.1382412534583364 3.0290225478481836 -1.0475237350671056
Ni 1.7664814422849369 7.772074657457245 0.18829681858849198 0.3414615259821603 1.7585864826904358 -1.3164989209540812
Ni 4.113510926034763 3.5660916331068 3.4543532818403593 1.1238731576621224 0.5305412237940734 -1.0918883772254098
Ni 2.0227578243123556 8.604767230894865 11.462491532701783 -0.3710724068700577 0.09278931331859504 0.07575009844812115
Ni 8.951667008752647 8.68131275729952 12.168343704270388 0.8973258019220546 0.4208818741930171 -1.0700314292513182
Ni 8.11285523008862 1.586223706453857 5.097184258394701 1.449699033989555 -2.3195114609826892 -1.730609794971852
Ni 8.554843020278811 7.025476158760957 7.829760645457914 1.8628277465997145 -0.9141076493660838 0.5909338659495177
Ni 8.52474614381781 7.90034687940114 0.6935841818760239 -2.1084935683367885 0.11853942569950554 0.5981267841535313
Ni 4.333635930961759 5.670303288922334 8.611076852477261 0.12912285764230666 -0.014483538328155701 0.8794720615700853
Ni 3.2812897717309006 6.682356977485653 12.501206284157139 0.41613638908823164 -0.1854089338285452 -1.5778464150924696
Ni 0.8330512217197714 6.999705246115602 1.9374614646934407 0.8441523032228687 -1.1004678913643047 4.2096880319090015
Ni 2.6783169691190847 5.661170698644855 0.9269172417093847 0.5645438059917631 -1.4904718450315428 0.4676330143056269
Ni 3.9414984032882083 2.5109816636603886 9.06518566051245 -0.5233850723652663 0.37504141882013475 0.6020430884888018
Ni 0.28200385016436796 0.31708667722827655 6.910153173375481 1.2301376226490168 0.08492070920379569 -0.05098960367398961
Ni 0.9092473433547008 0.3923473554056343 4.568856516032631 1.0943106135136573 0.3367903457587361 -0.42003906657674756
Ni 6.270817317228674 3.36521162105198 1.949556600703644 -0.8172845322977473 -0.4662124798090165 -1.0186029382676973
Ni 7.995906310867307 5.788352186122411 2.7289104100348243 -0.3470567606817507 1.215369720311223 -0.37334346229242155
Ni 6.563596329828727 4.0835711892850135 11.815498499219819 -0.8172202547187151 -1.065049916876327 -1.256700717849526
Ni 2.5362349396098534 8.818495725222654 2.632328646094277 -1.864032308430777 0.05092455476400907 0.7574863291931923
Ni 7.943514082433352 5.7333348001593025 5.4589845782841575 0.3384278813621591 0.15939142671886097 -0.20512492420023382
Ni 1.769069625764384 4.258412226834108 9.871570273232729 0.4258914115924665 0.8315024756693422 1.290929814235725
Ni 1.003817718991221 4.559334773881993 6.408896905857189 -1.516335600172182 0.7811744168387514 0.5931588986252946
P 2.323393822475017 4.081204850103805 12.528656743010405 0.06857697773844965 0.5958256468241803 -0.0741632135769755
Ni 2.8024665845207175 6.900217321868132 10.009997417928485 -1.2901924218490683 -0.48865821040704227 -0.3624340144687693
P 6.96917392457055 9.264033024184661 3.6831117273737974 -0.19870847915092874 2.3277456759670234 0.2752419927322937
Ni 2.6922007247838344 9.074097330842932 6.214393068674236 0.5734192541045221 0.2628729296439795 -0.3764421558224033
P 1.0915294084072058 2.3299844468351805 5.8841547219653965 -0.09437259864531489 -0.557877449715181 -0.024067068251532743
P 5.920996589444088 8.793510511133562 10.31036350552829 0.8461940162432458 0.014905713467238844 0.12481240319241085
P 2.221068139912581 7.721826923906261 4.601609977965037 0.26557387351491035 -0.5147937311518296 -0.9248777433983942
Ni 7.814973798629085 1.9539029002466302 0.5318005299807419 1.127465245888755 -0.1289840180715972 1.4663381852081327
Ni 2.896260505113404 4.214542516857476 7.6464996924394315 1.536652200242347 0.7416573325807356 -0.4077615347609751
Ni 6.93532418206435 6.588507595818408 9.488460884146235 0.1031230911444353 2.146733328544277 -0.15804879664803748
Ni 4.727871735956148 7.257386642031864 5.424094016278723 -0.9554728425764318 -0.044438689929349275 -0.08324229306010825
Ni 8.596891758307404 4.9345289432775905 9.82523439414068 0.6845317912123372 0.2606414692102995 -0.17861093707010528
Ni 4.142655720715825 2.375444040949188 6.457073168273373 -0.7714546184478263 1.3201447452367845 0.6769169549795568
Ni 5.177115683401218 5.453552166031046 2.041809627774816 0.6131587387859893 0.6378855521087078 -0.21691626040820705
Ni 7.885427850344612 4.480053167799065 7.367940899356456 0.4600549448480528 0.3492355135006243 1.1589039240140107
Ni 7.01250751082644 7.936738587824655 5.31530896723258 -0.10995759756776546 0.18541664713802905 0.955075092917381
Ni 3.7934820388011006 0.1230135877244037 12.747715046603371 1.7340519878841814 -0.7217392535005699 -0.36674215492582
Ni 1.5660173882893145 2.2344435023938676 2.936239620709681 -0.13973380038893354 -0.04645134948400387 -0.8335961249735773
Ni 0.3043870155053741 5.6258235071255465 0.25475582423324356 -1.1204358498457994 -0.5557642600269203 -0.2210595931526193
Ni 7.442330838663229 9.001665167468113 7.506801564785019 -1.4794819216789423 -0.10785032141677554 0.1106682504815449
Ni 3.519837096924105 3.2126751789882664 0.9499881243749299 0.5776505185770502 0.7243941746249137 0.24916869268400957
Ni 4.670441793249696 8.903471334960367 3.3483135559849173 0.8730941830681996 0.8099237210573019 0.18484303402274618
Ni 2.5804651465711226 1.1026308668315494 0.7680711780632755 0.059887163273935576 0.42656246951756216 0.82864289473336
Ni 1.4250815543209807 2.7412005841572284 8.188126076129647 -0.6488556779669664 -2.1552570497445718 -0.9901390265000496
Ni 0.500945685500759 7.325557546178021 5.921223979849781 0.6737766095783622 0.840113871487437 0.032663037450659876
Ni 6.4677965670394695 6.5183400929881055 7.114330346312869 -1.2542777102303302 -0.837732258629138 -0.023695800955043058
Ni 7.988345117702349 0.5335752843666486 9.873680567119722 -0.64491186282787 -0.3842719362794672 0.3803690016806352
Ni 8.40509811896793 2.0435279967349205 7.908105883732027 -1.005736109607358 0.2804955278217492 -0.15868000247413316
Ni 3.8355307768296933 0.33499967995978003 10.323013252284087 -0.3599773253981607 -1.0382309969112702 -1.712511028488612
Ni 5.5361984106372555 2.2564892795313027 13.22365887969267 -0.5279495518074971 -0.19300294412571922 1.454608041255398
Ni 4.916125110036234 6.90446009407194 10.77478067862162 1.113840713126785 0.09755845257246425 0.693131102845574
Ni 7.267073843054939 3.9969225037980878 3.9767818145717744 -0.6230495155371398 -1.106410996321617 1.376396882861294
P 7.2067968985210955 2.890991703030243 6.186172625235834 -2.864017631597287 2.3224715720522777 1.6103842398191752
Ni 6.5706768603475005 7.634586653624033 2.4728235200121507 -0.5607342024376859 -4.1647466913116205 0.9708639803205213
P 0.0016462695631770349 2.734619203309491 9.896232888738133 0.3327244032194786 -0.37430454065411023 0.8239740285027809
Ni 2.1706909971876236 3.810758163526412 4.553798834289704 -0.3144909109305874 0.6101965708338717 0.27412870506345693
P 0.663104624000561 0.35937297352623265 0.6028091924418647 -1.8880145302779872 0.9811933872709874 0.025444922435665852
P 1.3679751345494606 6.002755456857344 8.48953390757993 -0.5231888971940603 0.08481940773924103 -0.1354904517315473
P 4.843692946661415 1.6132240062519485 1.847467552059329 -0.5763253720077236 0.0790400820533026 0.22174119260067615
Ni 8.561868089723026 3.777934450899564 1.9490149308754452 0.14093733377873147 -0.4673687049006467 0.4976948666880139
Ni 1.947450928572865 8.366608133223577 8.267688684990343 0.05368900488302366 -0.7552931781966153 0.4849293394922293
Ni 8.70665846837325 7.93928055374197 3.73431801316342 0.8027997084180108 -0.2114801769943003 -0.6978616755520239
Ni 4.15737139249897 4.453413364985611 10.902195102612326 -1.1314286014118773 -0.26814471956588015 -1.1600853459166216
Ni 1.2805037764565672 0.7912076896670494 9.685075939567422 -0.49450747009896767 0.8647761501208076 0.42398982369437954
Ni 8.592251515069252 1.1480904609455564 2.5675935555170852 0.37785189168573635 -0.5560463100437133 0.22236365667602348
Ni 4.022721146980722 7.630223715758678 1.277374847500164 -0.053336249529295235 0.3128243218614419 0.5240594727244716
Ni 0.6157501098391014 5.7729617379321265 4.2267809273102905 1.7111689126384206 -0.4405592980172864 -1.3259649514629874
Ni 7.0479933550321485 2.985395695443084 9.755980150338125 0.23283575985194097 -0.773461878685842 -1.2404783424533925
Ni 0.9098306089888192 6.293972315857301 11.605084728448206 1.5482920984741206 -1.253353655754164 1.0339850771507224
Ni 6.768386347639996 9.083784531866007 12.655543362441554 -0.8645493788219821 0.19574168321312094 -1.7497007501650317
Ni 2.7860408629386533 6.470772978040834 6.783631672685185 -0.5031129523797916 0.7830600638972385 0.026474906362076986
Ni 5.517776090371046 4.031724328084228 7.624475175380578 0.8522209391636162 -0.5000001177824227 -0.341551000372173
Ni 1.0201325184241659 3.2077668738897427 0.6747292652282502 1.2401546405653867 -0.4115138027145558 -1.296185920428342
Ni 4.165958615543278 4.919646888270768 5.709389481218201 0.8752184285000539 -0.6478894573989551 -0.676439501122506
Ni 3.1864328472091556 2.2756418372792133 11.581125544238466 -0.34726064916244065 0.11048544504677747 0.6462071846005258
Ni 5.494639578767272 7.150771969703487 13.241381466068184 1.6102456573587816 -0.3229213010861277 -0.23140622649426595
Ni 7.6762841381804146 1.9961919695983141 11.979183541621252 -0.8343885389678855 -0.6219822506148901 -2.602327666517815
Ni 5.569826308845218 1.6943543148201956 11.061740900149129 -0.43933288180935304 -0.5379372591478284 -0.9566411518529201
Ni 4.917650289586623 7.795285117160432 8.197582189342056 -0.5006917445328086 2.6610825159595204 0.3967335590815877
Ni 8.791560130011549 4.040579612988909 12.152258143945621 1.9020303849411049 0.2569303389072995 0.11616166949594832
Ni 0.2416670106371813 7.672374132423964 10.064748590733707 -0.5626267914747085 0.414963194715737 -1.6727203788542353
Ni 5.839357887692377 1.6638045062502904 7.830437270567541 1.3717992361882825 -0.8845471621001476 0.3501099456857777
Ni 4.774616178297451 4.830345314717408 12.986282707523914 -0.5980157124969636 0.35778648839442895 2.5238064330824597
Ni 5.747098390162506 1.9675278375634349 4.232611734948988 0.7132268451541846 0.2724451467134469 -0.7672801753551625
P 1.5347928033122675 4.715568620916345 2.4752323793505218 -0.6497514503083585 -0.9698368246075878 0.4875266679057604
Ni 3.2832309093404857 1.6811268485377346 4.571413271569828 -1.0764884977305718 -1.4038210405105178 -0.9805863498146079
P 3.734739517330073 0.6551653711773562 7.986411374902706 0.25967679130418503 -0.49826822269298054 0.046911062729241795
Ni 7.849165551095069 6.4002819522756 11.82268255707777 -0.8349066162548847 0.10428214444954298 0.7312322805926698
P 6.943597125686155 4.823699229282684 0.1300636146521697 0.587515070075956 0.9589466600576452 2.446755099324412
P 6.019504701374338 5.797688133673275 4.36108084370757 -0.699019443305551 0.15749549524772877 -0.8202173896738261
P 6.02191725811768 4.805378587653168 9.9067584763383 -0.9021520196661044 0.7101196669837706 -1.546571516238588
Ni 0.6135908253362482 1.7807719124964567 12.035693754841256 1.7921758886101071 -0.30340971341576134 -0.029884960484890467
