# total energy = -340867.1537277051 ev
CRYSTAL
PRIMVEC
9.32295957604556 0.00000000000000 0.00000000000000

0.00000000000000 9.32295957604556 0.00000000000000

0.00000000000000 0.00000000000000 13.64509371873865

PRIMCOORD
 96 1
Ni 6.703618010486607 0.3665675756013829 0.4711189713668729 -0.034317799445263475 -0.655483210585813 0.7208483662551842
Ni 6.893060545259288 9.211829712509395 11.740674988250635 1.4727237770195023 0.27849803777574617 -0.4937528513211303
Ni -0.0600855409624239 5.331595369130484 3.6839161260572717 0.9671999012053729 0.2625973073850897 -0.18916120178212584
Ni 6.386814527508728 2.1548528952829193 11.115798041466196 1.4480602128345512 2.2886140000728843 -1.6922538209014726
Ni 1.0576151589410685 7.799746314661236 12.878525400280319 2.5942410328549386 0.7097116329120744 -1.2212153804587227
Ni 1.0054998159598043 0.7291738257586264 11.890116433471363 -1.1947175912785102 -0.7150122191893815 0.8475011650904437
Ni 7.805573164278997 3.7492560869310085 7.0734933720790005 -0.5714749858939577 0.5357813891470902 -0.2942162198419514
Ni 1.2016921733297012 8.3614546178135 10.28138665013109 -0.3439896917206527 -0.19395116697160145 -0.29922292902792336
Ni 8.532465661875277 5.619190020344444 1.1697787510472029 -1.1866343000497437 -0.8034486548559195 0.6053988923349123
Ni 4.332649593620738 7.35257989055509 7.1831183223436685 0.8829404797346599 -0.10664884490950664 1.6677877174393083
Ni 6.9849569559509375 5.841440049204973 3.394830733637103 -0.5842721376586261 0.442247998573619 -0.3105129001194459
Ni 5.559019640451585 1.3525935939906566 4.743403335243535 0.15819123576317273 -0.40940266990882396 -2.427124212467362
Ni 4.979112920573125 0.7951514770545313 6.907105583577941 -0.6915925547138606 -0.02869608238311187 0.5092206079394263
Ni 8.65182751092521 1.889763868032603 8.397040353799099 -0.9775097677718132 1.092470474981125 -1.0379036954788383
Ni 7.4976637845576715 6.855973812812155 6.879283075875082 0.12557422105909988 0.39780468065857943 0.5461259656062079
Ni 6.930958375173212 2.535173700574098 13.307431876128305 1.0498492978764886 1.2089687018808855 -1.070244573703389
Ni 6.096917105325828 2.4694748057639067 8.461950526245028 0.07111414233800656 -0.47396332739902897 -0.4069248977922928
Ni 1.7607341100968792 0.9710048662226526 4.023910470513843 -1.4403016519350549 0.3601130796450766 -0.34635716351156476
Ni 9.412832716923718 1.7574710743109325 5.953572875545125 -2.366741854724563 -1.1781799986348032 -1.860043756096674
Ni 5.157069569379273 7.956763596680993 10.473837703898415 1.331781043924132 -0.5638868891340547 -1.54753105193838
Ni 0.8823211473362523 7.142636168087273 1.7885305135134515 -0.10167813116779262 -0.07591593460202409 -0.20419418485584834
Ni 2.44957961042902 5.463916131730319 12.196680510152941 0.8973281159148998 -2.12681730634664 -0.9397978550433363
Ni 3.157434624954148 2.324940966365242 5.923607951774806 0.25964233852182383 0.6877392424060415 -1.4786278012087632
Ni 5.605140320546095 3.578263688788009 6.102972367448606 -1.6778736409204005 0.8543462130367351 -0.1629068960712872
P 1.6380159956671152 3.970247516274101 10.516287002585766 1.5042033356850222 -0.031321692931417025 0.15372394402043849
P 8.857389442480468 0.4455610104994601 10.025855520845782 -0.42161849524872547 -0.7029951401238473 1.5230130121923577
P 6.592292552429491 4.137725158727666 2.0651576353028753 1.3799946275148813 -0.37680493847846075 -0.6257108644193868
P 7.195357503428784 5.238300514530571 5.507964317952784 -0.595433039371452 -0.3179922392156265 -0.8795121707794015
P 8.831825887837423 1.3893819917373595 13.33241647499333 -0.6039634454399664 -1.696181438090653 1.1995021571513471
P 5.152091109065857 4.304941758318356 8.44209635193145 -0.8096545265563152 -0.09696864150726525 -0.6671853295140897
P 0.11508633987440388 2.4447689633845955 3.5349529486531686 0.5003477309298286 0.10204271359606296 -0.05218542375430367
P 4.617307512627346 5.783367335174509 12.89030123028383 -0.45078740350319785 -0.08170271648713026 -0.6753462680583273
Ni 3.966490363640568 1.8025009681569981 3.04029070794272 -1.1098537034545788 -0.8254094753977268 -0.04303563893423556
Ni 3.0268572557599462 6.980006464515686 0.4309081152286814 0.5904101322355638 0.4632233152737055 0.10867281731807091
Ni 8.22875161387874 0.5785399740321184 3.998094263671371 -0.49585061439042344 0.21403096844061206 -0.6385131583903777
Ni 0.11564385284583137 9.18602376092225 8.088675081363679 1.9911435349596933 -1.662818289249175 0.9503236942753247
Ni 0.2069724953107262 3.934792301719942 5.629583255470654 1.8414690784182801 2.2103635038004126 -0.5596707941701781
Ni 3.1534723672140696 7.632650913542595 11.552277557225397 -0.45000167437710886 0.3113598215007734 0.5252660914380631
Ni 4.225519467288411 0.04723384144548782 1.212964563526239 1.5071127960223334 0.020834420246847986 -0.6378354155970627
Ni 5.109503830579557 2.157230249926966 0.9541620077915343 0.4976457586176332 -0.2256947779317855 2.082593817751891
Ni 6.003939231345122 5.078029519684255 10.884486096080122 -0.8301130515209832 -0.3053262137121839 2.7610783743288834
Ni 0.8135009257228183 3.81259627301593 8.206036223328857 0.5099153200136057 0.22862506420470305 0.5147150553950942
Ni 7.778275539189705 4.013403495283094 9.347434953701772 -0.3025010855585629 0.16190545138996634 1.4987831931107156
Ni 1.7900175255359045 1.8204569879390937 1.5081238639879626 0.7324491837189063 0.48086519672518474 -0.11571378332525233
Ni -0.04944897659617625 5.973537060779487 11.450689930249483 -0.39080228119881727 -0.6972975755184377 1.625002503952982
Ni 4.736082015235809 6.052232160977134 4.375681577269866 1.044257148500692 0.8969483639779777 -0.2381659138156027
Ni 4.7095488728163675 5.44615589409538 1.4651962974839856 -1.310646575938362 -0.7268284950980192 0.7302976845935422
Ni 0.6892379969223933 8.03664271272097 4.104430073863805 -0.3010288718884106 -0.36629658274796917 -0.1883883281718433
Ni 9.354937139121633 2.508435453048112 10.515618546397615 -0.13869533182209015 1.0348901054634951 1.5017060231844654
Ni 0.9976592071141435 6.89764744127839 7.530522554922156 0.5131559384380904 0.26007659784576503 0.30046271497229543
Ni 5.824612107508876 8.064210703632527 5.182651769941096 -0.012776840049694123 0.5175455828653538 0.6557392924606772
Ni 2.6422572121094827 8.506063040887273 2.566192118755308 -2.2837672135035443 1.7369776461714084 0.9853264356027546
Ni 6.53425713023658 4.906692172043884 0.03631665600164875 0.7600846860479877 -1.2310521640434864 -2.1745722051334164
Ni 8.04454858228235 2.3387855610570445 1.771146923437805 0.13097353769780026 0.24125946513926189 1.0212059231081831
Ni 5.223346487671546 7.912190527844961 12.77883499553995 0.12755011383854808 -0.45702618532405814 0.9613776380966411
Ni 2.9975179025645904 4.971244342849299 7.594763338883998 0.40181225915607577 -0.4065667431219256 -1.4811109726419331
P 3.4228033409861163 3.521608064584585 1.3862326960559515 -0.6492182035127076 -0.4238689818457991 0.3908850707206107
P 1.5617914797073986 1.78538401471986 7.241983487922148 1.2870374211598543 0.0992522953351194 2.8810743299692576
P 7.417178676157447 7.14802483861378 12.000791148963168 -0.42749475152384436 -0.6356630905360924 -0.1039684698638661
P 6.062748459167271 8.50703262866367 7.72847135784083 1.1265121379468663 -1.7311728665641732 -0.3887808798934143
P 8.817794833957851 5.675845644547868 8.437880509696008 -0.3689314492676549 -0.040847887254297395 0.017696645948814684
P 6.386078013717044 0.8009475609063117 2.6589509031903864 -0.7886604408031515 0.7119122401078191 -0.22822782876628434
P 0.9586239761548316 5.81461789504449 -0.04835259657209814 -0.18393337772428323 -0.8357208846260639 1.053371194986818
P 3.3249402362858786 8.532083420540353 9.58784797204282 -0.6675062031886182 0.6954116713496346 -1.1933896164957059
Ni 4.882098205177233 1.0476395923954598 12.2882795184401 -2.053254445357825 -0.4599526149422336 1.3316812851214743
Ni 8.46432415170532 8.08578403165733 13.670746671199069 -2.5625447301929225 -0.11196922868115555 0.5928786483807145
Ni 8.694489373086617 8.821440111078724 6.179821521687347 -0.9985043677456094 -1.099592687848203 -2.3500867626663853
Ni 2.3515486924597906 2.457224437127524 12.336242415309762 0.958746371121381 1.0384935065440373 -0.13054442058018165
Ni 7.540167156409475 3.15405971365554 4.446362661577228 -0.5358035006342773 0.4199570483859026 -0.6712556429287213
Ni 1.9806254302321382 3.544775618664807 3.788997065916024 0.4985119632726705 -0.14244888532725145 -0.08789444712013894
Ni 2.198372469708061 1.286055632835508 9.908234268313668 0.10791871276086575 -0.1664506475584875 0.013330912780951235
Ni 3.469035896593288 2.279155912808714 8.276035799304925 0.4604465238595167 1.2030991304739862 -0.35533314175792996
Ni 4.593589903943207 3.4649058255842182 12.913293512727549 -0.7535499702532635 1.8312689979568268 -0.8981724661930661
Ni 1.1938981792809826 4.232744760814437 1.62695896583245 0.7679602321413225 0.6429467686816991 0.3441799533545879
Ni 2.7957783843585844 6.187536270581264 2.8972084533208315 -0.6926446501274588 -1.380143751498236 0.8001756405316026
Ni 0.24833660152526518 3.3353633048821316 13.36854853639909 -0.5721558140110663 0.9790298039607656 -1.2566796348036033
Ni 0.07443823694089549 0.24545767166612129 1.6094252761106496 -0.23612214391269656 -0.2714200478830422 0.6375695635301858
Ni 6.7179940138635486 0.3919642492713761 9.376935594094547 2.409205423205412 -1.2624563893863807 -0.7088377149475535
Ni 4.751735264048966 1.0585474548799103 9.912601142491203 -2.9346329799220037 -0.5107745826901074 0.20257336142297372
Ni 2.895254361033019 6.609213723719472 5.699446716239652 -1.767933985343607 -0.13663330708673888 -0.8419318985327823
Ni 1.6601114094176692 6.169114102829748 9.948446989043736 0.34431185094676187 -1.2017827256554077 -1.8026605901915147
Ni 8.168077794178908 7.2398839574678755 9.806183290256152 0.030537763577540955 1.7423036863700123 -0.1976494417587951
Ni 6.373464049664512 6.955645571633746 1.009034149863954 0.4897594138910211 2.293678044859353 1.039980375502209
Ni 4.027434549162665 3.318982865236679 10.57249139555479 -0.6491629247947401 -0.5154827867990541 -0.21261274793684673
Ni 4.960746690577938 3.9281916464729414 3.4014621546500856 -0.47739883544313905 -0.9488113713958563 0.3205183480715899
Ni 3.909284684833227 5.452653996789109 9.640299873858005 -0.006659928518678852 1.931590357986409 1.109034292877077
Ni 2.6035016699318234 9.0952554283166 7.467168384398152 0.06523222963593281 0.3211197291010147 0.2505786856576588
Ni 6.360374614683171 6.017988931143471 8.954851659927005 -0.44657567941469545 1.179393045106298 -1.9133285835627436
P 3.4538674416683297 4.464914418464244 5.089934006527327 0.13501145521259972 0.4506701611990432 1.159940592808641
P 7.779851119326348 4.114035518921693 11.603432635389652 0.5525447246483581 -0.9988152141178088 0.8948542004531105
P 8.117603292050005 7.582884956327212 2.3304732104663297 0.42817815074411414 0.13559252452705034 0.5160281177795629
P 3.498710876326627 0.32670073666462407 4.982505545494571 1.7274013153368832 -0.5876341121523235 0.5889926830627469
P 0.7073804758922574 6.337589301937874 5.5091520629788695 -0.020271862875158635 0.01836976075643933 -0.8264998802484281
P 6.9521867537006425 1.820401050182763 6.211451526004438 1.6353676492373899 -0.5880421462240195 1.5257414668671143
P 4.451349512554094 7.579435461353497 2.411934432714522 1.7600550968161621 -2.241902197838642 0.5994722424378321
P 2.727655520107404 0.05128373500381719 13.393410072200187 -0.6043521962379528 0.13734730243462798 -1.1394381019799151
