# total energy = -340867.2130331475 ev
CRYSTAL
PRIMVEC
9.29589053493225 0.00000000000000 0.00000000000000

0.00000000000000 9.29589053493225 0.00000000000000

0.00000000000000 0.00000000000000 13.60547544088923

PRIMCOORD
 96 1
Ni 0.38022794530831294 3.9600400088354832 0.8310209945419172 3.3187138832365877 -0.1014845270997478 1.9218978132889935
Ni 7.914139943713877 4.101588531753467 13.286862470777608 -1.8664643149110371 -0.7755994938541353 -0.26598473580008386
Ni 5.236031106872788 3.574985637238406 13.123664748738086 0.5043375688155121 -0.6955494824790796 1.2951659638042596
Ni 2.624899160267731 7.289874424796352 6.858615759621318 -0.017513840514047255 0.6879477588724217 0.7143378188301762
Ni 2.27124630639686 5.106130334609316 7.65429099014596 0.7400761041365448 -1.65993299728158 -0.7607817121150123
Ni 4.510207985480778 5.989574573397879 7.868209878902328 -0.06673529654402055 0.6639046018802889 -1.5605981695349833
Ni 3.20017533684745 4.799747083354714 9.866255544368881 -0.4854006227016931 0.049865260261559276 -0.1233183351453876
Ni 7.226048841401404 3.340924413192179 6.772044062039202 -0.7141642693667895 -0.5396431860953416 -0.10684630563229341
Ni 3.907072025412178 1.8105698665041372 8.887640909390523 -0.32702683861406906 0.7926646768665381 -0.755852393134195
Ni 7.483535709222066 4.141030994664152 9.471002651428577 -0.17267940207701873 -0.8379243200352858 -0.06327099214450395
Ni 6.020771581535578 0.6562312971902033 9.91518074506302 0.35458829317210544 -0.3805852314564994 0.3269458488644886
Ni 5.1321960112535665 6.403873816151452 5.111468034869348 1.7359157805657977 0.17263903575738657 1.824723226418509
Ni 0.08188656882722938 2.1277828300592208 5.832381066959112 -0.02571925914297506 -0.8018897950092319 1.4048808492335998
Ni 4.744055404048112 7.477865216086191 11.592490304517938 -0.1759472741950131 0.9818595601000769 0.5086940460119949
Ni 2.6313690999768604 2.5859865631090866 6.667662368065245 -0.4003937815419943 0.13381872045607923 2.350886375749545
Ni 2.2961871803043237 2.2970795857814448 10.753931272461463 -0.3021537295214732 0.6301231345544697 0.4005261933548005
Ni 9.325358359206222 3.8012662010309812 7.69596446674945 0.9011505749847835 -0.6799238601266807 0.5739378456121534
Ni 1.6979873380310502 6.815635280829462 -0.00905605641470409 0.06766012235113508 -0.9429076043169116 0.6770622223081695
Ni 7.210589775688355 8.082274713137767 11.932137969932237 0.33435962483005643 0.6578293422204864 -0.2250327188677544
Ni 8.795241618124997 4.715916743847631 5.586721360477424 -0.21146320771343582 -0.6468952118064859 -1.700688324822071
Ni 1.7419476036696622 0.7436191739482702 0.8752889541523281 -2.1218442786120812 0.5082960392426278 1.1742762927050228
Ni 3.7383609107843148 1.6924005079086553 0.32212026409021216 0.07217523661266924 1.1199959340949035 -1.6609575818913522
Ni 2.2181109969465944 8.886620220626066 12.684438575912626 0.9316893670035888 -0.6309312322780618 -1.8242306030528068
Ni 8.170455529345817 6.351175413549361 9.541342794806512 -1.5217524003123792 1.582273597625888 -0.027265777694488527
P 5.949072378983112 1.973220060599885 8.148237421732613 1.1104761675299262 -0.7298395140102011 -0.04121735477857418
P 7.32863828770881 5.510975656839636 7.733270734049275 -0.22748246595982757 -0.38222071017739334 -1.5899408843631586
P 4.950108110359271 3.8582871926628792 10.600134484369988 0.6235925325248035 -0.7621389974738552 0.4146806304783116
P 0.5730182048047947 8.432004701265459 6.625580801873781 0.048239808842994336 -0.5978768729262541 -0.43775551001990415
P 7.072304110296097 5.301520654646952 4.305602649302826 -0.8513974148210562 0.7000602258652395 0.6954188704384863
P 6.445287007824113 7.740901730467701 9.699710372201116 -0.5051338394645624 0.9853457188764643 0.8029843136249913
P 7.9266986916262825 1.0082229754489744 11.400721663374952 0.8100821010120371 -0.5838291365839364 -0.5136174514555413
P 9.039825790088946 8.132444633554682 13.347773792536332 0.10657942512415193 0.35366732401973283 0.9604062753223073
Ni 6.808096313725865 7.381187956064715 3.467967628750786 0.021671571436162676 0.41989945567508974 -0.522676476334016
Ni 8.413450104053645 8.737476955262165 9.783425442667404 -1.0462335555007725 1.0156271434688249 -0.12128279277259757
Ni 3.424345733522249 0.11896508681258167 10.334324076297094 0.6213585009879622 0.7026159024075577 1.4252506711392035
Ni 6.011392028135417 8.785267127740088 5.42242114583804 -0.1415464281176401 0.42039233615110827 -0.8820529349233842
Ni 4.719356223290702 3.1500425999920827 1.7942490717522424 -1.133433547657048 0.9940118791918946 1.2864324405860037
Ni 3.464959478621656 7.399658890263049 9.48885262014908 -0.1409545601699121 -1.6758121304056814 -1.160108485845073
Ni 3.9499725595467083 5.190732233018495 12.241077591043174 -1.4676296503260466 1.1090268366779092 -0.06254285572922777
Ni 1.1462576518007925 0.18376394993101505 10.627168792792533 -0.8278952179340581 0.07399172099611773 0.34814459442929074
Ni 6.006093370615009 8.12181013495232 0.42448660902833724 -0.2864923688351324 -0.8736045470457147 0.4673075126454081
Ni 3.958645625277481 6.767733557666898 1.4263028568228115 0.06313729478011706 0.37392530293782056 -1.0712233926768906
Ni 8.191213252579274 1.6636018394907193 8.49701365150663 -0.8075007134381061 2.2020616688029366 1.7166865000225404
Ni 5.842615842274847 8.017426581800283 7.65993731396683 -1.0091947575799198 -0.12654609805406594 0.2006733161867834
Ni 1.0239888055447846 0.6396808939457574 8.228578083988538 0.7238784113307598 -0.002387012174937824 -0.39658752042202666
Ni 9.250136014197205 7.0203772665961 3.1374903592029484 0.14258181136068993 -0.20766800233706173 -1.4878014972882312
Ni 0.9772211810093951 7.433923542228352 8.976974416006522 1.1457355049528526 2.0855768116396147 0.09663825475104
Ni 3.3114564406664018 0.004734396973936351 5.7454152236246 1.6305638000908436 0.7452540487930585 0.5029304040553403
Ni 8.659428659575596 6.155022830500017 0.7388764106729859 -0.2915024204552141 1.1753332732146275 0.37805346617358115
Ni 7.92698686422827 9.227863060830718 7.265949591708153 0.11380756744147498 -1.630449643110482 -1.6516967254147166
Ni 6.433090799636789 3.176071093074788 4.369330625848714 -0.16394793574129182 0.9410918912644115 0.07708681498167369
Ni 1.0412419781024633 6.881543143671027 5.099277404216255 0.5430234154214841 -1.3447766848528517 0.1881834112498888
Ni 3.5085943880967343 7.360049101325403 3.9459279176394637 -1.5175604737182187 1.118307747759203 0.09274431901327254
Ni 7.790272204311361 9.394798660394725 1.877296697288768 1.2230578329841002 -0.8861643859885964 -0.4975539702347754
Ni 8.70514584849729 2.652126823210318 3.7476549419929177 0.518759400667797 0.6880292628426343 -1.4567968213766007
Ni 6.802676809630429 2.7940099981822217 11.489007523144373 0.416236919221838 0.5301594149746225 -0.704529831600819
P 7.232937096177935 1.301954519887303 5.582721338844036 0.16210599743654663 1.0621083177494999 -0.48141284169853865
P 6.637042634720559 2.509565048240187 1.2574681068528053 1.495437159456618 0.6434879858971498 -0.6364627036192523
P 3.086672515226082 1.9355531127530559 4.78910050009485 -0.2472380513202 -0.6768256808173311 -1.5505011903102977
P 2.158226871075599 6.923634935341916 11.186734914618762 2.4108457870223123 -0.38809979466598965 -0.04737797506333131
P 0.5731362626127056 1.097045208093706 2.7503741591181052 -0.4760603191373737 -0.5997550637855735 -0.007820524485683305
P 4.413874673403609 9.262536731973036 12.899242433433807 0.40464021552317403 -0.46633203610601626 -0.3527828645322505
P 2.053982756279365 7.743225703064371 2.259311312729401 -0.1138924138457974 0.17932261842514924 -0.6033152703330061
P 2.9138340252665325 4.479392108848933 0.677173079053317 0.2797882173420794 0.3301581851541991 0.23222769395429685
Ni 4.721029483560305 4.217703498573492 5.894476685153099 0.9118664187403908 0.41374320626570676 2.6415472741400703
Ni 6.211225783777887 1.3368141088373549 2.9403877361560853 -0.9729216341804986 -0.8865569934413248 1.1967636751742616
Ni 2.170618292961044 2.7721925434446826 2.3333930519879735 -0.13106918273540005 0.1786469325143633 0.19242470302474604
Ni 1.5009237577238115 4.589250941438722 12.20138971662628 -0.38235312199019955 0.4421394980202127 0.012385003927914154
Ni 7.793070267317752 6.915501031253571 5.813347731392383 -0.8182533239689197 0.4339757312624978 0.019208197497334663
Ni 8.459139405304178 9.277940022343765 4.408541621088771 0.1803140358041411 -0.32996843774089624 -0.34096453174108377
Ni 5.509544089720087 4.006854112822806 8.289516363829382 -1.0190955616333999 0.2521861393540947 0.418334425180815
Ni 1.6039965903313242 8.950213406761346 4.330813104031503 -1.059907453443439 1.3512615212462469 -1.7078704443928072
Ni 5.526053591046832 5.833357135449713 10.015942619320404 0.23312912272264366 0.016294880505281613 0.015454129771541125
Ni 8.645791588378335 1.7656614200460838 0.2667083910842487 1.635619617347196 0.2464590070623304 -0.19747794917793732
Ni 3.7702829983721755 0.3052500822164645 2.120480908160483 -1.4689059459353089 -0.0757333862775728 -0.2922027889563484
Ni 7.277204126199307 4.416970204902374 2.2811482888367522 1.4128240153400766 -0.7749600604979233 0.26473543677401506
Ni 9.458289591735754 6.850532053341061 11.57375629662166 -1.2477905598440897 0.33406343374587627 0.10488378258928388
Ni 1.686999595593994 3.8804671871254985 4.880746824239055 -0.19354364712053765 0.21632259268826615 0.16283207696929375
Ni 6.548954777416374 1.113926545035918 13.286766723106625 -1.7763288942755215 -0.9478117264867483 -1.1924275096927528
Ni 5.154850096125907 5.4453094871481245 2.9899664379444064 0.7926811319267703 -0.10184499576296008 -0.8899572773721253
Ni 4.439066536351514 2.0730951069143795 11.595266057387402 0.2915844386460591 -1.7726144215384116 -0.23102544611607956
Ni 0.2803147858432328 6.138346003146313 7.186547814381282 -0.8345140088021564 0.8317500729037739 1.3184673575343617
Ni 9.268383847026257 2.9764697346919853 10.40613389994516 0.3741507886850653 -0.5392022419031811 0.8074048112901901
Ni 6.321177575271543 5.570580905999031 12.412056902925388 -0.6261988597993989 1.5593103039614953 -1.303709739609213
Ni 5.162249624873705 1.9318161648176102 6.073987765232207 -0.5133986505765158 -1.0929168184899243 0.06242432787349249
Ni 2.596174858972888 5.534735952667991 2.8897753313567645 -1.4485104129980924 -1.732295667314707 -0.5497283382454855
Ni 3.8775668693248546 3.720317587543768 3.9840912660329413 0.1393069972641601 -1.0225835201820004 -1.8564616951723707
Ni 0.7749212256473393 5.297411871096039 9.49770974450951 1.1811835613478172 -2.4721318875263036 1.5366509146907665
P 8.140801639012308 5.008569965001104 11.373891864540916 1.2016109759642337 -0.7807969788946747 -0.9212244629165232
P 5.019018545795733 8.680483851301426 3.3396545945653586 2.9704898417196133 -0.7854856426195956 1.426399440031666
P 1.7146176859328215 2.9688192169037473 8.764933297108264 0.3352284005882549 0.38550889401036187 0.10940712438093415
P 1.383525958030424 2.4811939907800378 12.746452390271212 -0.6900025845189214 -1.0088975380544754 0.789193687598802
P 3.5640815578148297 9.11029793511037 7.879720050379117 0.5177415009262438 -0.3770851887230409 0.939129368221402
P 6.50368379123324 5.728202023395584 0.8615737974758197 -1.3122494016491077 1.5791335093350094 0.5987376782646526
P 3.114690328851537 5.556767212884424 5.4879181303245135 -0.47766005952432583 0.504245523322338 0.02988316071267757
P 0.5128393992085415 4.829019842182372 3.371273636126613 -1.116939663767083 -0.24723599443767094 -0.8705151094871137
