# total energy = -340855.4375938598 ev
CRYSTAL
PRIMVEC
9.39811833430044 0.00000000000000 0.00000000000000

0.00000000000000 9.39811833430044 0.00000000000000

0.00000000000000 0.00000000000000 13.75509615860389

PRIMCOORD
 96 1
Ni 5.792727653166771 0.7280769336238341 5.501735591925291 -0.1574862392763481 0.04417258075215618 1.4070580593905768
Ni 3.275930334566845 0.04187519627661778 6.0502887275385815 0.15480097913470114 -0.4546535713268235 -0.18071949877267587
Ni 0.777682082306924 4.049010158279909 1.314733800588858 -2.1502688525013616 0.9014963883599764 -0.6684855363827519
Ni 1.8780354034501443 1.4815757775935738 7.9469793960669595 -1.1277051298137029 -0.5074514318541454 -0.6859677523279153
Ni 2.6865367355157845 5.266658576079005 1.442139393048846 -1.1651000255223933 0.33485841884334583 -0.08030120815391331
Ni 1.1173235035874352 3.651620118699034 12.413328040101577 -0.795573880093533 -0.5633685547367394 0.2242127940696203
Ni 4.411636557798121 6.620034620205482 1.9274187565383496 1.0522514795600781 0.6977058667004501 0.6820195663134447
Ni 4.105990950304761 9.300829105362173 8.358765473454806 0.9778650942287029 0.2739764957563088 -0.07386727960311149
Ni 5.6716141009938745 3.909927403673974 11.986466440944463 0.6648983332521259 0.020939064145512325 -0.6195638709813845
Ni 2.005210742008663 8.505550925923774 7.897640214135362 -0.5411853337714808 -1.0649740693330692 1.388267409046635
Ni 8.518755282314162 2.725285177791633 4.132058511386624 -2.38863094148817 0.6192563670432948 1.0304397830016254
Ni 1.624624538175839 5.833553079615056 8.578860948716098 -0.3238129596624617 -0.11210832536218111 -4.342057678623379
Ni 9.113975714790161 7.018890766261019 4.127477868465148 -0.8503286072369097 -0.26624004634399956 -1.6403992981240265
Ni 0.15689124921386755 3.1973714626328618 8.43954981983238 -1.0401086735499572 0.07520271058508339 3.175173821727687
Ni 1.6644819584261108 7.991314079936007 4.869358758435032 0.3741785565992072 -0.5629870030276046 -0.060228862884070464
Ni 5.525943265370386 6.971167120887079 7.684449536482623 1.9796262783487129 0.4568816893263938 1.1058751784228051
Ni 5.324607374301871 3.1540179423276262 9.680066679200678 1.319869637198527 0.575772584828047 -0.11911946657269162
Ni 8.490861666821871 1.4272170606099444 12.906131537203994 0.910129381444626 -0.7338334656609427 1.3467983432685708
Ni 9.012043722327428 8.83465423701173 11.716109828333854 0.8931094498478619 -0.40240875508949403 0.7813032291071318
Ni 2.84804340068931 3.0343517003925373 0.12248097840407147 0.24796155974978587 0.6866295542816303 -0.24679967823120078
Ni 6.347320019681458 1.0186714544558382 8.918419666554449 -0.8514863749904369 0.5498584360654466 -0.5543321555660841
Ni 7.605925437586821 8.487412557359043 9.817066810763116 -1.9404210689041612 -0.0002565960954963323 0.4196554579850837
Ni 1.1424728684989485 2.2807071855871746 4.434216477131605 1.423258066189207 -0.6325805949560266 0.8362919266381855
Ni 3.1250999319267567 7.0770181287340055 13.505785062142161 0.8723904721329555 1.250012250085757 -0.4456814497352002
P 5.019112136703348 8.097738373007 6.014979996607133 0.5953854739629681 0.8199929323678459 -1.3193703289646053
P 5.596889661378238 6.746063388315867 10.00351796186644 0.5548813432013346 -0.586705429690467 0.16452103463594248
P 5.736780654168924 0.7677003407252656 10.933967399021324 0.3734355077855956 -0.5341711072371769 -0.9413651995304562
P 6.471835690725044 6.046965552862679 2.9834524308020054 -0.18683332497989757 1.2912087789287245 -0.6927024999485877
P 6.812752436676143 4.598161014225177 9.72234975381704 0.9407566194121798 1.985132038658291 0.9400320825413294
P 7.7458916153249255 3.345683169534427 12.60808618808281 -0.4885988179240166 -0.5200287542985238 -1.4013748929628704
P 8.450694108663498 1.3656217924372773 8.460209703571161 -0.2686964783042921 -0.5654501198561165 -0.9587052334708005
P 2.146671220576711 -0.02445860320710501 10.249018430860469 1.2171368395139748 -0.858121106698135 -0.6832801781934232
Ni 5.719450523788942 4.838292338161677 6.30924260306132 -0.15977632086210547 0.49723746743562103 0.3509411833378214
Ni 3.350588987353489 6.916169331850392 6.807713165575413 -0.9135366073539622 0.5356289227296259 -1.4189008176617757
Ni 2.2680197257102903 0.45205983428444907 3.2502471565286597 0.5862719416974741 -0.42538593271095776 -0.15729803452494198
Ni 0.7299753535461532 9.344483365457082 6.268060048112797 -1.7885184943631778 2.156259522867157 0.8879459033690513
Ni 3.5379968669127133 7.174758560378152 9.347990743254158 0.05642568708789637 0.7519376314608212 0.2513104216173608
Ni 4.890019581985656 1.6178109023160305 12.646256646075377 -0.9238842691368734 1.0916160974006297 -0.694048729563837
Ni 8.479941053209323 6.234129081342793 8.55525757428588 -1.7324111098466486 -2.5899272359709333 1.852871920938583
Ni 5.856991986972797 0.8218391417376957 0.7620877844004691 -2.984175309626506 -1.0141662426525824 0.3920760057049183
Ni 1.2149605559288814 1.802239578333794 10.574766613669869 -1.1787723808031634 0.4541118398907405 -0.764242159859787
Ni 6.530047636263876 3.995854400454977 3.517769296621589 -0.7191216133720647 0.4394791775792303 0.6638778624074114
Ni 2.4245359899989074 1.1589289738651887 12.372241345961012 -0.21194348978396402 1.1300440623595247 -0.024757923670970263
Ni 7.824328311719353 6.54234977328524 6.180082381890951 -2.9082951133584234 0.22231994792228163 -0.33461313560175926
Ni 6.5400284380336915 2.8488234445187777 5.628378996980823 0.07324481552776418 -0.43368802481874985 -0.41341024840632024
Ni 1.019188350969341 3.900444702180806 6.639805441941038 2.130183651715712 1.4257162979217124 -2.3367411945974146
Ni 8.226464401106025 1.7290470320218116 10.526307095623071 -0.6806365699229892 0.10472643107581318 0.504809366245608
Ni 1.585049061478387 5.128440448368383 4.12560764289811 -0.7152361622747295 0.4036788800511693 -1.372852102932829
Ni 7.2620576824495435 8.654266751917714 7.437779001744394 0.5326734396457278 0.6042465238980238 -0.6973767654958055
Ni 4.213636998771306 5.212976523622143 8.069564693585573 -0.8216929457780879 -2.459290255676945 1.2914157527332082
Ni 1.5234537933057197 8.922611227373034 0.0885641088117098 -0.7532146984010318 -0.2640846905638936 0.23650960915910235
Ni 5.667056013556623 6.23551060475161 12.474235366005365 2.2877747920010405 2.296361248118471 -0.40738255415500163
Ni 0.06868614852608143 8.701135168514769 2.197170130322239 0.28731872139116965 1.0935732211270004 1.3268483825092052
Ni 1.5016407604359059 4.067750006423989 10.018909260414866 4.43406563369126 -1.699259048574712 0.04775078502171776
Ni 3.141067335134777 4.7585962938979876 5.723302812532301 -0.42748729532467666 0.6352925945705511 1.6387823313458936
Ni 3.905435103065714 9.00308731546619 11.835764792526831 0.9875296139016604 -1.7639462043404524 -0.8252919759832561
P 8.474330376508211 4.496163234933453 5.8782270355593305 -0.7936740919676589 -0.8362657013859404 -0.043812626309576164
P 1.2034948514475488 1.7481628049029843 0.30096534451655355 -0.9945386982296419 -0.26581684276365186 -0.12362712463505808
P 4.4745287663137585 3.6705949198037966 4.658328708208734 1.5168909584550199 -0.8251148269754435 -0.43511884372800547
P 2.830478317348646 3.4213944115849317 7.811147450625034 -0.131600886869154 1.3009740858456045 -0.06030933841301872
P 0.515522508588625 6.2614588097294455 2.1543786174989576 1.337970974784928 -1.0209143600096935 0.502595903534057
P 4.169334268504911 5.250587793568284 13.440655161628978 -1.080166203692475 -1.544389678095921 0.9079614272590297
P 2.963677849819078 7.449474960127196 3.4693793246511513 2.3330670881799365 -0.20127778254000175 -2.0395545792732293
P 1.7134743497877396 6.34029022709782 10.460901830239965 0.3277202651366679 0.41157139542536864 3.3770223891694933
Ni 5.0028909842977916 3.4318545173945405 0.4765259559862959 0.6756455444663009 -0.2582847960526648 -1.4763428618293284
Ni 6.303740944533967 8.088650392487779 2.1966062432166 1.638079134631282 -0.4909616617292384 -2.2901998565027655
Ni 5.010625635763477 6.135618003987607 4.573748461798366 -0.9605502570993393 1.1843933265343667 -0.6191134137075273
Ni 2.9690159810857963 2.2296002175793985 5.7415830926852855 0.3931746380857358 1.2185620019962755 -0.5191180695587964
Ni 4.46933160682345 4.151628213387836 2.351296453094789 -0.43939664516775295 0.2419364366016285 3.416809182149128
Ni 2.339652184363337 2.9529545966935036 2.501804500272819 1.5230595491595769 -0.6803061831667638 0.8477909284167205
Ni 3.838746054705439 5.58877908517546 11.084131475064915 -0.8525623816634349 -0.8983580998413109 0.39777125631748267
Ni 7.001617024591602 2.696442352338182 0.9147921718549648 2.4885326974818303 0.7834621844316636 -0.7737079332583772
Ni 0.39416554514846125 8.064525422484843 9.739626314921985 2.007174877390943 -0.9286719203335039 -0.5104758205027661
Ni 1.078678440614288 6.249025099050099 13.593556909570447 -0.1296887574481057 -0.767331083197756 -0.4811269350270037
Ni 8.919801189963264 2.2334910386083098 6.47350573636958 -1.41256741924458 -1.7202968430816177 -0.5710402123493843
Ni 3.782507714036345 9.14299710449373 1.2112050678053237 -1.2523133874151078 -0.21597060866548612 0.6216346374674842
Ni 0.15967403208019754 1.9168872250286928 2.175836401492219 -0.36084044472940435 -1.3608162548142178 -0.36083967339845596
Ni 9.266159446483783 5.059561638414542 10.788726997221806 -3.484869882372792 2.0002719796235224 1.3600683209045996
Ni 7.1655484043193765 3.769491320014504 7.7971724485236065 0.6683371837303458 -0.6156434528810558 0.03924711842608079
Ni 0.6119039723081812 6.335243437502348 6.108308011649652 2.7201443551186832 -1.689735425354993 0.7966938526305892
Ni 6.790328526108554 8.922583033017753 12.494428163258307 -0.39581413259111187 -0.4127134794496118 0.02052743052939045
Ni 8.654821240904926 7.173273657666635 0.7928562843196779 -2.4653516313796766 1.8935614282381454 0.4852427569675901
Ni 7.357176039052467 8.710693054955355 4.252346908761601 0.9533048883908356 -0.6662599894863429 1.2993260087192204
Ni 5.037485458228763 8.846354894453745 3.8085113679129012 -2.86479976117895 -0.2108263454603853 0.1743447055945836
Ni 6.93186418962402 1.1041097490786207 2.844705189023925 0.030841410860888818 0.7408029550002403 0.6776440629535684
Ni 8.381664928814818 5.102229096074582 13.453515546884926 -0.5178196624623469 -2.6760882453397334 1.2954148465902722
Ni 4.604852474545431 2.294503623438483 7.378921405469605 1.9749304155349405 -0.08664334832185723 -0.0797003413451208
Ni 3.5360702526351124 2.014702841620258 9.428334317877491 -1.9234654148864294 -1.217085417450749 1.7202945290887726
P 8.379578546523954 6.8127994272682795 12.507619362282895 -0.1738273996385329 2.9135131672242536 -3.1516554268907724
P 9.295754121411418 7.690743456393402 7.527297959388319 0.7728103611447723 2.6982033320712175 -0.5970271233314492
P 8.175770950309051 3.7289948277111744 2.2992609509863935 1.5170938184944451 0.15231960747374412 -0.8495981568287885
P 4.262131289856286 1.6252542121104696 2.3707731137235704 -0.2373788991379331 -0.5458413444862535 -0.33713847312677425
P 9.344802901483611 0.22845698122608035 4.307298647017994 0.1980266225925557 0.6970790317497285 -1.3494694623428307
P 3.5707493096319296 3.292358245577803 11.288490740831499 -0.7606801535401415 -0.39725626435427713 0.20645958385125734
P 7.732884619421512 0.16205833472520909 0.8861842993621971 3.044289244199267 -1.1331514976402548 0.4989871031368761
P 5.1102832835667975 8.071940537924 13.701423813820034 0.3783283171015226 0.0191320928437606 0.23759024381779084
