# total energy = -340897.3025365126 ev
CRYSTAL
PRIMVEC
9.01698155873657 0.00000000000000 0.00000000000000
0.00000000000000 9.01698155873657 0.00000000000000
0.00000000000000 0.00000000000000 13.19726396168159
PRIMCOORD
 96 1
Ni 6.325304471444379 1.951960134400579 11.491557095866524 0.0010788348864755614 0.02719070148217898 0.21386384673512848
Ni 4.648109803956781 0.4120472101742289 6.033802584764492 -0.14400260296761652 -0.7892649071563697 0.3110060377057805
Ni 2.676276241849579 1.4321401553356528 4.895986631386481 0.19484951041615473 0.20990409075643202 -0.26650898373467
Ni 3.5082551110123155 4.548147544630274 4.849638443657438 0.28743416392311144 -0.4655473354211918 -0.1682013117010071
Ni 4.895607918154322 4.469510447066999 2.4083023655666476 0.6893904048562192 0.513249269482845 0.34153377398099244
Ni 7.115381426563252 6.134856800577056 2.5531556683765575 0.561044277478937 -0.6859266146773347 -0.3091823542334804
Ni 5.03146678170046 4.443992388804865 11.361075960217045 0.18262571465645322 0.522650508192087 0.047102867025073714
Ni 5.613251459131951 7.871617649294214 12.466914089630096 -0.9936161864153726 0.4867833619818326 -1.0846728333135771
Ni 1.8532332015694477 6.511595313739672 0.40111862833192996 -0.6214104372718201 0.12460208695381766 0.06738090054781945
Ni 2.8002507234913017 1.5288382672802185 0.34383464517521317 -0.8126125807433746 -0.20777727422141634 0.29694904539208217
Ni 0.6184738743441409 -0.026866998727156657 4.685754800931544 -0.4383566339390128 -0.25761373812756927 0.1576908990879865
Ni 8.452383407791565 2.387173774004869 1.5060054661737254 0.18506234912240385 -0.15097569185134 0.024067068251532743
Ni 6.84286118809807 0.7311131082680798 4.835240127250026 -0.10651334777290689 -0.11336919435247572 0.08484486166053774
Ni 0.6357017196146825 7.418938116102025 2.5299288251689847 0.5232043238130278 -0.6889576881941748 -0.044092362333524066
Ni 7.650097459426427 3.877978412398275 3.8578245565602205 -0.13167390619893451 -0.4158324846945677 -0.7172513929325454
Ni 7.598294899456124 3.8255536806894255 12.547431227881587 0.3419842312548497 -0.43636994252628714 -0.3272011594084043
Ni 8.088809687937328 8.906929456199393 6.95411361023377 -0.5156774193083635 0.012419713820591514 -0.34119773079781235
Ni 6.795071184992307 0.7670538956981288 0.5429719813242387 -0.03567662746600307 0.7782911817536854 -0.7169179208525266
Ni 1.8945309778382011 6.313203681978731 9.181904117088234 -0.1423792084315806 0.5041151683920608 -0.007559300404496658
Ni 0.24201218252026913 4.714393636566302 1.4644083261119325 -0.4288983167395904 0.355355253245117 0.3248737968268082
Ni 6.215026785032403 2.176798573540615 7.054109232392633 1.262810687402006 -0.6638511229345342 -0.07873489210805795
Ni 3.21334570694117 4.3883485946226655 0.4030284250598169 0.6026074456327041 -0.7659645418675325 0.3371392444577226
Ni 6.11513666155964 5.70792976717167 4.819851746249971 -0.9894772245463347 -0.21382656573928985 -0.2212845646792318
Ni 5.361848991850486 2.782135607219702 9.452566857319493 -0.6328317917348844 0.17396186833386815 -0.7337501619185169
P 0.09240693034493695 5.469971619631845 12.588025679576331 0.5821720605964876 0.6185747675952379 -0.6370612564351996
P 3.9547309607824737 6.043884472023464 12.43679827238992 0.9603263140139913 1.4025141487736361 0.014061877409704814
P 2.3342350743380895 8.516034281739408 1.288656532048717 0.37613439477399735 -0.3089874646138549 0.18271724592899502
P 6.46991882423876 7.839445058524145 5.905591023413448 -1.517725281430857 0.20624669650950284 -0.7682276268700963
P 4.699939414872238 1.1176909518814526 12.67044269587582 0.9038643743715208 -0.9210565698800912 -0.4283365306988494
P 3.9426031203716714 6.055038478408714 8.21999504985899 0.3349970013037392 -0.12253466290182768 -1.0592127413692598
P 4.693149627638532 0.9779006843062381 3.9129760235406144 0.04912606810268959 -0.29789161181100954 -0.6035703237666057
P 0.15118142057965053 5.530610821685855 3.6467469332201286 0.679280827226043 0.1638576900203307 -0.7978241095802905
Ni 1.4823467095418579 1.1684926268810503 2.6230354732952437 -0.08318290057708254 0.07407965272423372 -0.5282578270765353
Ni 1.869193259210429 6.5736411649417015 4.704415444597087 0.06887368304326204 -0.258966909721354 0.25229669679003003
Ni 6.03624708850826 5.700878487468141 9.12582931117991 -0.18975846904649257 0.24640372834436275 0.07169958252783135
Ni 8.361032366005814 2.334027683758574 10.184064990706934 0.895882898827941 0.31708669668222167 -0.39649573203916877
Ni 2.39729984447426 5.202482856965345 6.899846709159919 -0.0826455400163738 0.2527168150465841 0.6401527508763298
Ni 0.4540023244102294 9.081994156255691 9.15593160294751 0.876766232603148 0.41723502146904917 -0.011174785669896882
Ni 1.3472001875514483 0.7981029705461256 11.401802961543044 -0.3465008881782806 1.1299810703320734 -0.18831042374605633
Ni 4.163970021550251 6.899686206885336 1.2573865411486278 0.009105818956010123 -0.1784327596210282 0.9348194279921384
Ni 5.583387215681709 7.870752019049279 7.884058378970632 -0.04998224545539779 -0.40442887084331636 0.45515982153928064
Ni 5.2463594900054655 2.931150247092501 4.854811486069094 -0.016380755350868564 0.029990889935135448 0.003754067725793534
Ni 0.7465159164388844 7.3377942976211274 6.964367721843558 0.8183291715121778 -0.0987846116700815 -0.11195920137882652
Ni 5.201761498427899 4.511809108306458 7.112705186389329 -0.15656424168271102 0.8001586712507381 -0.08788493403844219
Ni 8.348309404801618 7.064705989307707 9.272952188288258 -0.28868629116265765 -0.3986418318478941 -0.22087164551152932
Ni 4.808034991708443 0.22115319871186145 10.46060049113117 -0.8221655145391326 0.33511347227694543 -0.15822825964869522
Ni 8.083038819637764 7.108627707256418 4.7045344687557655 0.8689289959469164 0.7848508372490741 -0.3738653962341626
Ni 7.403780569833952 6.248200260773176 6.980217772307578 -0.32719858830524295 -0.971434765222327 0.4012512444462832
Ni 2.397543302980648 5.180526506481848 2.604176456031904 -0.09967498469483478 0.18334459510034876 0.098633687914514
Ni 2.2892854204735187 5.0937110065002855 11.50479402502865 -0.7114972640575876 -0.2795866428542346 -0.8049725476996137
Ni 1.0632644502311916 3.362423465685995 3.7937913625875295 0.47684013472619163 0.22849625193632261 -0.1396129585403531
Ni 3.596314954470972 2.5020411041113424 2.8161512690529436 -0.18630547750088558 0.7069196719892341 -0.47597958649810934
Ni 1.2408178372416772 3.341531119045231 8.0476390511108 -1.0586586686380024 0.08843026501895093 0.2179606425123214
Ni 3.73917099583033 2.731333932220105 7.127077353549758 -0.787513985903534 -0.40990994856254565 -0.5738002915930246
Ni 4.129002166447582 6.756649825891618 6.029170561255919 0.11090736307554448 0.8022248097511474 -0.10076358977332324
Ni 0.7783404517146351 7.222963035441525 11.423182225196584 -0.11040059864245502 0.24449159892331443 -0.5946905047784725
P 0.1982942483583862 5.465174585357833 7.99841354451552 0.9046999828989386 0.16017612740368542 0.5344796396165311
P 8.528558869345806 1.7700966301288572 7.92613161566714 -0.3600593435890057 -0.1199437622461999 1.270077396266748
P 1.7526848384312668 3.1281081787602694 10.369512745211589 -0.3834209011330816 -1.0990252453805072 0.3491285556091148
P 4.132491738372474 6.208029607219181 3.5967162101574255 -0.41325341111348185 0.3225160952279091 0.10393196019897585
P 6.891769296936873 4.059138592095988 10.295925157410434 0.7221187483271757 0.009155955467655198 0.8218644383589458
P 6.373374000983401 7.701782798634395 10.076982020917669 -0.8359198880107475 -1.3724453544127138 0.4340654627628266
P 2.3955234990758005 8.427794098646391 5.860271673298437 0.5182189547832946 -0.15007503441394154 0.16277628403069386
P 6.915213449403851 4.049481404675936 1.4768526625810385 -0.22202941326505635 -0.12485688327710111 1.028111649089081
Ni 5.260849779626402 3.1103988266659828 0.34323321249461797 0.028317873108086714 -0.581942718194501 0.09460991146710158
Ni 1.4316983232314673 1.057773108364888 7.080728264122542 0.3214007506765433 0.07873643476995473 -0.743607514328571
Ni 6.936926341380959 0.5210589123529888 9.104753018112095 -0.3613929747987647 1.3642376217909409 -1.1886269049997398
Ni 2.8292763876417637 1.5207770856242653 9.049667375098243 -0.31548849895716635 0.46227946330319736 1.7419786989304258
Ni 6.239976773446298 2.010002445719785 2.755879058154859 0.4266717414019168 0.5080286445138541 -0.9523684926194954
Ni 4.075396210133665 6.771645066488765 10.224923639966018 0.34543259481476635 0.7271557965304509 1.1569246888004527
Ni 7.942211599164971 7.494121709667279 0.03162616167795317 0.9744866646747733 -1.1361206075709078 -0.019504131471198668
Ni 7.567673229541564 3.9592124006963534 8.165741674257715 0.8766137661856839 -0.6738128621329363 -0.19462916687523257
Ni 3.0492997585443513 8.339743272169454 12.279051587421343 0.9735852359064264 -0.7231736719542513 0.3176088877342788
Ni 0.2484800635066396 4.693158644620251 10.21125119058691 -1.0547763028644608 0.24011146757774776 0.11837281821465419
Ni 8.537963581277753 2.2624418658988286 5.784835604245076 0.4359778492941911 1.0426550941208945 0.11369212490953323
Ni 3.5964051242881525 2.571886644499501 11.462364617554279 -0.4227515804119042 0.10964829385746278 -0.5767084663787553
Ni 0.9211297674092792 3.0471807678406053 12.643427818648487 0.5224149951425132 0.4838222224709797 -0.6956677532244987
Ni 3.2309829231817115 8.508108354809227 7.99436131293142 -0.5626859268474181 -1.4846071587206495 -0.08021430486706185
Ni 5.5799878135739975 7.916386963524423 3.5620864918691844 -0.409188754125805 0.047651283329375994 0.24978987120777627
Ni 2.873856345255894 8.321222391720541 3.4106877620301286 1.3913259933673006 -0.2587933602579672 0.23874698313005335
Ni 3.2751931845454014 4.119173656374887 9.24703287433967 1.1518434176228034 0.5312912145862204 -0.24371178333449642
Ni 7.259021945332081 6.077869476118863 11.365496986353412 0.421303535111468 -0.42322800582769043 -1.2185730577398692
Ni 0.3809584606066726 0.08405450017949018 0.6157345152981919 0.34282086822353214 0.9402182304102066 -0.5473557242482509
Ni 4.5801578297294165 0.31097676379457184 1.57065902848862 -0.18036520075705065 -0.03193670080759661 0.5433738567823674
Ni 6.187894687042734 5.700436655363955 0.15426973681808895 -1.3281681297618932 -0.4393601355028626 1.5015630698486977
Ni 7.841320590721503 8.86535215349738 11.111396638141901 0.9148185593901793 -0.7176499139225446 1.1333399595019773
Ni 0.24967571528245547 4.943785651473962 5.821036080748605 -0.7891728616631957 -1.1209343867487729 -0.40069742882534215
Ni 7.812466249223685 8.85055528649803 2.6409179514385173 0.05373399918834616 0.4109587015420342 0.16029131282531103
P 8.605392570565467 1.6526053583424254 3.6658836735203852 -1.028623555728493 -0.06290898081939489 -0.32901970067438174
P 1.8426382480507175 3.096765150308263 1.4763251691505315 -0.6655879031199827 0.32141129219950454 1.4699176750292748
P 4.87395814504924 1.0210469418271955 8.280452108882296 -0.6519034636543547 -0.21367049977739977 -0.33860348770807497
P 8.378570395447456 1.507837716858837 12.306317136740438 0.09118957293164295 0.478420334729118 1.3570267058647985
P 6.341147308323025 7.8215734007589335 1.350238910390437 -0.9184872664910182 -0.6264675400797532 0.9906779297226552
P 1.9669373410342905 3.2598913665698395 5.854187915733255 -0.38279638017520523 -0.09546043239285495 0.48405053643170187
P 6.923617276365091 3.95297264934745 5.922113740713636 0.25316470121728013 0.6540832449144929 -0.05605364846045831
P 2.400212329569196 8.334089624632226 10.135657324353483 -0.3997278658232213 0.32854893168555027 -0.19236299654887515
