# total energy = -381170.93280959316 ev
CRYSTAL
PRIMVEC
9.24035929619692 0.00000000000000 0.00000000000000

0.00000000000000 9.24035929619692 0.00000000000000

0.00000000000000 0.00000000000000 13.52419985981351

PRIMCOORD
 96 1
Ni 3.0780375256295787 4.612445349273621 1.7684245370082723 -0.47284566885481794 -2.845454523883119 1.3641687162262184
Ni 8.672982532634675 5.542940266217594 4.817360475815506 -0.8647666370391107 2.161440038626832 0.24105917620299774
Ni 2.7930925733082916 3.412751051845942 10.198639736249264 0.6813009429798653 -0.0006103798904892714 0.09445024596078572
Ni 9.033134767342153 9.15689089622755 8.59135597280977 -0.10127678196431592 0.03470397914008862 0.8203390028533549
Ni 8.351168547665532 1.2041758715715918 5.337771953837476 0.34164253164471486 -0.0014652716916168313 -0.44986592013019294
Ni 4.6466346777941885 8.526393476512974 7.124007282933152 -0.4838492190541732 -2.1510368410156375 0.6441793555372197
Ni 6.671474558527193 4.04892205202312 0.3486840250785919 1.4800236531150253 -2.4755229154857235 -2.4023259224767592
Ni 2.5237176260024525 9.151217315764947 8.456236050352862 0.8657706528235929 1.1265923563654983 1.2527409618708296
Ni 8.120141090457087 9.299404954003961 10.97876906232387 -0.5709815911973068 1.270680834178702 -1.4305499718649297
Ni 1.428633433488652 9.21226836807181 6.463336394745316 -0.929618086296857 0.013823279036337484 -1.1724960608761483
Ni 4.01406741765026 6.966990481612679 9.454673479390356 0.24448439983446282 2.9857701649174513 -0.4702488546619192
Ni 8.175740330918778 2.42013320094419 9.683867649361375 -0.3599829818251155 -0.4442359755379252 2.6386830652183977
Ni 0.8022950993868077 5.723681689423625 2.6307542492053857 0.2737533240019092 -2.251837711784799 0.7822707352267236
Ni 5.503825826318252 9.042439808915184 10.160784757289747 0.3584197511030537 0.2447525658941849 -0.23223283616061938
Ni 7.442129744457981 4.739176873776214 9.989433386960094 -0.10641384608056513 0.5445131125931332 -1.2580436050306656
Ni 5.171311505558077 1.2152550620840679 12.336395880654832 0.015406564363057337 0.19532876404541846 -0.39060944846172085
Ni 3.6547190941809684 3.011599343990961 7.437376503757715 -0.39210968715633115 1.6923854613833307 0.7730399606570751
Ni 8.23681910430282 4.275227685752103 12.075757692839858 0.6217737341485098 0.5781117744841849 -0.20925591564947188
Ni 6.455518126944977 6.860033325497658 5.941816073636192 0.303125092295807 1.671391889850799 -0.7233688186841929
Ni 4.075922381195309 3.721231198692063 4.09941507006847 -1.5644707651165122 0.01584570878300497 1.1190070878190728
Ni 4.131152007294617 4.172918430244068 13.183348711340845 0.9383737210023 -0.35913066112714925 0.6492210317261852
Ni 1.9525063500143534 3.7093758180185796 12.825850307755287 -0.009246201188616333 0.6297356693080638 0.27953059280531856
Ni 2.8899407766120953 5.809016405339151 11.328139646080594 -0.8264194047194799 -0.30386942666099925 -0.527247126423834
Ni 7.1129881547545635 5.43225000504249 7.436023715191388 2.8722433619411887 -0.4571197734791289 1.0860008080963812
P 7.307442270805061 2.0884782335765593 11.837258481295809 -0.5422376862953951 -0.3647742325661718 0.19160837777103773
Ni 7.5234356638235145 4.763571421693593 2.516772572133247 1.8468959058608065 -1.0027533728299503 0.8513547345085789
P 8.089158166530204 8.066149672471767 4.787106616218426 0.010122690256298696 0.09399464648060586 -0.11306066197312142
Ni 5.614118752053793 4.333820802549109 5.812065723828823 0.7235500814570636 -0.0921064283189575 0.07825975224385232
P 9.259209392094645 4.893481629712691 0.808901032078525 0.20190616015262 -0.4454045419247296 -0.8060320993123796
P 3.775869441811555 1.256346938822167 10.018334457990846 -0.10609914305362374 -0.05188023380905904 0.01844817940285855
P 1.632771445833623 8.355881130785935 12.485189686448157 -0.960213956805843 -0.468580980041193 -0.04922556979503135
Ni 3.4211782593083084 1.324041809292892 5.963522601103129 -1.6945295043095268 -0.7839391240680822 0.06881017679517827
Ni 6.727166202579482 0.1777336863321269 3.38566201522678 1.401868030549205 1.2704851732281282 -0.7317989517294171
Ni 3.0340996183011186 6.500158301561968 3.097636327195018 1.6105089383224975 1.1460808041074133 -0.8162236951334007
Ni 0.15272650260909615 3.95435621740704 8.360809014272425 -0.08530046114071761 0.712577898716276 0.9387329041139317
Ni 9.21923559880276 3.524513194671961 4.054311953462593 -0.8439198754970885 -1.5337257706241716 -0.7698895879535514
Ni 0.5487054574625054 7.280913199944911 1.2045704349034372 1.1560181178257833 1.3195670183564434 -2.6208552930083573
Ni 1.117371938565587 1.8777148837858455 10.148654013916287 -1.8987478575350913 -0.4403716074865126 -1.237577880977146
Ni 8.20960624687226 3.6431594049973928 6.175366148867911 -1.3714004580879673 -0.34112265458550284 0.9463755082608539
Ni 5.3424891571374085 3.3960167615889825 2.0866079849028933 -0.7122130591776895 0.0009312535650177512 0.13583472244484346
Ni 0.35583236684710856 2.8182078692323196 1.6631380378112293 0.21351263404329682 1.063366358526317 -1.1679351809783434
Ni 3.2302632007776437 6.295539790545897 0.4698103477756234 -0.8063974530715984 2.137257527843358 -1.4384064917948711
Ni 5.828319515414683 7.3117575184859 3.6133148933066543 0.4579522966827532 -3.10142841241442 -1.409977547030217
Ni 4.864771834114474 5.773274696496569 7.5525354025740485 -1.5781076391736564 0.8039047685567315 0.3788484512710508
Ni 4.413675985542286 8.759213563378983 2.3918761829398933 0.28566267384498545 -0.7808995659108099 -0.014908798791032386
Ni 1.4285502702571153 7.286235646763249 4.622788083169046 -0.8733214685876572 2.270939465611257 0.6453481790343402
Ni 6.9325424230384405 9.501861221000084 6.915599300666734 0.40097150842233525 -0.8551239717430241 0.9822107727919085
Ni 8.701313473511448 7.601812389367153 6.910636303815816 -0.30201926082613795 0.11693454310623087 -1.4212901438295586
Ni 5.569025799842882 1.2824417128065142 1.2225429332743847 -0.8573508041910138 -0.3622936322361632 0.04469194359073593
Ni 3.463480623083217 8.601554557103865 11.27659969535379 2.04222235591338 0.31686532470003487 1.2069323881771472
Ni 0.8557163872181486 0.45493983794098813 0.7207572470088763 0.46289807072380285 0.9897266215529794 -0.6379873677938948
Ni 1.3673328914871792 1.5337702388689292 4.523344263005397 0.44737966337322954 -0.47936778624405196 0.25794592465600735
Ni 7.815126078258319 1.2034643639240015 0.5109345657704312 -0.28012580318715624 0.6991197163288412 -0.43944549612781736
Ni 2.0161631835760274 8.586751501890367 2.4781062896482964 1.4548055019781847 -0.5852082763196502 1.1046117383293492
Ni 1.2769529395251042 3.3721673948561213 6.187091240478654 1.4157008226672394 -0.49416345649598764 0.007088788525981339
Ni 2.3223609617344247 1.4498030960942256 11.767825499285973 1.9836978773149256 -0.7484841256945819 3.268228987113159
P 7.625550871791298 2.190039020000766 7.795308280183168 -0.6517237435433808 -0.3150408698967865 -2.647778342651446
Ni 4.985515605946438 1.2098864134704326 8.103443761636367 0.09671590206651086 0.8995603476795281 1.7815088958145642
P 0.9556564146632992 4.729437535327381 10.598969052147938 -0.5410660345847972 -0.10889007553519957 -0.19166519915090216
Ni 5.857519050043059 3.7570006286118254 8.32667420387031 0.582040677224946 -2.20781605478821 -0.2906835240983445
P 7.950478857763531 1.9174484277421815 2.5853674535763784 -0.9059518530281687 -0.36173621707079634 1.0716599659936767
P 3.153817710277465 -0.1389491272512131 4.455750112448421 -1.2873117578671636 -0.8238994665111036 -0.9893170448193864
P 2.929489513387239 4.950503885469564 6.7207025714172826 -0.22429661203267823 0.20077796008544774 -0.47588522701209
Ni 7.797486232813519 6.24984621499611 0.05133481475568021 -0.642020657323004 -0.2783831094644367 0.9145905025397731
Ni 2.260265748853825 5.533662945721742 8.905591015278219 -0.263749675821978 -0.6159931229109907 -0.1451104913198146
Ni 6.705442118430331 7.646766736192171 8.610384644221233 0.27047542458158574 -0.348001126872891 -0.1823025269890796
Ni 9.196596719106708 6.642552234670605 9.031676638682544 -0.3111939853468705 -0.5938770077382417 0.2384608193482022
Ni 5.804922926275744 5.631989606475085 1.4034331262612754 -2.8894635824742174 3.110603908266101 0.7869987368300123
Ni 8.19550545894729 7.105004484527058 2.7044073031977494 -1.921996029429754 -0.6049263235738679 1.84165239807368
Ni 6.709018137386401 2.8385458995225283 4.1835762603834254 0.3444728020046583 0.33864462535865547 -0.8974813536633124
Ni 6.944638053047473 8.280812453785638 1.1315143081063248 -0.8080673845748535 0.16971286324952706 0.3786283648404447
Ni 1.9025714496562045 5.121127115505318 4.522140244219929 0.8557168681320166 0.09330944748812318 3.4967080126583006
Ni 5.528654671111432 1.837343755054396 5.921246110333588 1.4278228027417539 1.4616896306925278 -0.0902115252890898
Ni 4.921369033354605 6.1336117383852375 12.128407410689722 0.7479619346425248 -0.2142489979886891 0.8402632525811078
Ni 1.7399134091298363 7.829661163059091 10.25159993016353 -2.6284045661105244 -1.0955210888819906 -0.5025645360754892
Ni 2.2873030394622527 1.7129223203167068 2.3748766943779236 1.8105183956730366 -0.8341321999827054 -1.7774774060576677
Ni 0.7538737698426234 5.623904292297924 6.858445831811215 -0.3178783393455816 -0.006196101508382877 -0.5598132332853133
Ni 8.085101648903034 6.7361108701491865 11.3784090474367 -0.09788626822552819 0.07526236017842522 -1.8575775539443689
Ni 4.629272043121176 4.906944832862548 9.907760625339892 0.4157208988173679 -1.442768882528625 -0.0203659652508617
Ni 5.2557591470038805 8.901173199611819 4.992634378565963 -1.2167771421817108 0.4183850759130923 1.1774752592582947
Ni 0.9876188166505008 1.794486969735911 7.938069055546471 0.08327983116626303 0.028386521562493047 -1.362448648211318
Ni 5.678366968595283 3.6908766191812346 11.642739682731897 1.405710801334063 -0.5122398543817243 -0.5971916739337715
Ni 9.139500540477357 9.14806635332562 2.8632213543553187 -0.8655562228199416 1.8022368723905349 0.832783656374611
Ni 8.597017540805597 8.468040609051517 12.948853347377327 0.9867585400635909 -0.7825461003752974 0.19622736460028783
Ni 6.223991690347313 8.01551250482509 12.244972692154928 0.2157345813952801 1.1472779097393078 0.21073584262910802
Ni 2.455505295424389 7.214844632668678 7.112241533742547 0.8672228118890871 -0.4579294138646178 -0.020820536289777043
Ni 0.9556194532270608 5.934565163882114 12.546102133369128 -1.0047354362569858 0.9793331941337973 0.5279148419148199
Ni 0.16075822270371182 2.4138959585789515 12.57476018295661 -0.6275988254707192 -2.255062903590316 0.03592962401707361
P 1.9801535043207157 3.4874685952019724 3.399659311130282 0.2500490384064339 -1.3207224721171253 -1.076140884583166
Ni 3.142498270429439 -0.18826492355236787 0.35798537050799834 1.106602543507133 0.2615557534944528 -0.3561736353813543
P 6.093961357660438 6.446804468351763 10.340291668525413 0.589742673854894 1.1523437542979897 0.0770122529899964
Ni 4.260286025152709 6.371449340220618 5.256734928920575 -1.3045103811336374 -0.07380968689229869 -0.24526987185023566
P 5.642154001440659 5.00624173131715 3.637387876728758 0.8431539438653414 1.2285332542763745 0.38457918310724093
P 3.5149494230452616 2.2358989220136256 0.462845889152393 0.22273106731777123 -0.5870134478491891 -0.24267537165018208
P 5.012709982658879 7.500704380536868 0.5709035720314138 -0.19097177262830337 0.8376708092635832 -0.5091378184176328
Ni 4.538319188897405 1.5535815686927394 3.5336971875413106 0.060702460086379334 -0.24944508627384782 0.3158003737706303
