# total energy = -340893.3696230927 ev
CRYSTAL
PRIMVEC
9.07952292717969 0.00000000000000 0.00000000000000

0.00000000000000 9.07952292717969 0.00000000000000

0.00000000000000 0.00000000000000 13.28879957617263

PRIMCOORD
 96 1
Ni 6.452235946149945 1.934038285599584 11.280875211304055 0.2966055460097344 0.4450271039806529 0.8790665986015506
Ni 4.592168534884455 0.47192001419555635 6.249709012823704 -0.6987278802070611 0.2502706674989367 -0.27396518290239913
Ni 2.7360325571020474 1.7474631663297533 4.743238179245304 -0.1418791288667105 -0.4482913765542215 1.2868358466720098
Ni 3.4874084875694575 4.252975712572794 4.715397637699872 -0.9456630555748617 0.9094902051987305 1.0709272015927103
Ni 5.081936167550435 4.272378653342643 2.8248666106781832 1.6069448751203228 0.29825465157738307 -0.7524788486762718
Ni 7.329036408107618 6.066156466779088 2.682516940259948 -0.6069834632132127 0.4615988922964051 -1.0214864304630795
Ni 5.039144375389321 4.548241802341391 11.336382875504558 -0.22454266660521327 -0.24739231750987717 1.0734833923556608
Ni 5.970013397143182 7.979311849350758 12.332644438209568 -1.883861941562194 0.260916320138241 0.5817583700978367
Ni 1.8290608400305643 6.6460383657720445 0.46799584433091956 0.9215196255594387 -0.2826830223913712 0.35457646609756355
Ni 2.793306188536866 1.5117859863751575 0.28973302841850457 -0.24446717344328217 -0.821026772948999 0.06443390210435354
Ni 0.29819786776325435 -0.008916091640613825 4.693989030287037 0.9585756498714717 -0.2396011036002325 0.7772539987384226
Ni 8.83089847578299 2.2706252847942836 1.3591519401918268 -1.3778552125743755 0.7935365379485302 -0.38518647767393666
Ni 6.853251240947287 0.7793917068078158 5.1166526319058825 -0.3861961498853736 -0.3086030846912427 -1.762233849635036
Ni 0.5452752968664801 7.713817515681523 2.407159520695398 0.7485574021346786 -0.9298836812534179 0.7954224421173334
Ni 7.738686329330852 3.769972324583249 3.4605630617509213 0.185564485569803 0.022398936520490458 0.713365684724894
Ni 7.662799675632022 3.931351767373748 12.648345810519437 0.850481073654374 -0.8725128566434328 -0.2945527772457637
Ni 8.065994055962713 8.926396899281947 7.11372005860524 0.6358268698074662 -0.2688206625869822 -0.3721101041059527
Ni 7.062325418348932 0.6848475411820034 0.4246874273079421 -0.4594489358329377 0.7383205548980187 -0.9369454731962058
Ni 1.706260290703373 6.519333621530939 9.274080891555219 1.0271544273821342 -0.44138796456616886 0.48080657557310735
Ni 0.3213887855519059 4.783864505157653 1.5801448075085764 -0.5520762696523718 0.4079114300752782 -0.32611743942592225
Ni 6.387698696270634 1.8178385495338245 7.216443058599549 0.492294778718365 1.455201451865023 -0.4100007085041391
Ni 3.493183064232829 4.04750610582423 0.1155632614995608 -0.12797717407363765 0.5192877623674412 0.0880001194600678
Ni 6.059809880163213 5.532571055846713 4.822877399823019 -0.3573064634342169 0.38673196778418556 0.347663283917498
Ni 5.3630472808753265 3.147162440583345 9.16746459207466 0.7993513448580943 -0.20248542969485772 0.4601269357365689
P 0.24067091763518395 5.685016247950486 12.60481222132468 0.4636609170317563 -2.391512119690707 -1.1414271073854858
P 3.8876701819531845 6.3264391542144 12.821406059720985 0.6203845671104671 -1.5611784675184857 -0.7255745680862601
P 2.549221370232771 8.529195004167962 1.4146060352063001 -1.209287261562569 1.024090957965462 0.02263110713595457
P 6.385964507367011 7.955659691790881 6.026298268517245 -0.7093879310240686 -0.6715294654153984 -0.6833133454242039
P 4.690708598607044 0.9743326986210897 12.626870922588298 1.3824623723290836 1.007233520088491 -0.3542008279256997
P 3.89956435715604 6.238267905821323 8.184146797437736 1.2208698241938458 0.5829143380791508 0.26085255677984104
P 4.729178537793684 0.9857275000558864 3.8829079721105146 0.006948663403691257 -0.28972244573665584 0.3300864513759993
P 0.1821579313032738 5.776356249889972 3.6236430992097373 1.0957846269560225 -0.9124559726952738 -0.7508423415141133
Ni 1.3804416058526328 1.205397480863433 2.6853869774978274 0.36220647183899557 -0.2804978418145943 -0.5638565501167515
Ni 1.9874985173510444 6.5028452076619425 4.762294282234428 0.13790548893094315 -0.5479529915126176 -0.8810178087906505
Ni 6.035885336911669 5.634089203131543 9.396125116611877 0.43431100311472937 0.5837895415952526 -1.030215068585329
Ni 8.958111673315209 2.3838741758669677 10.300387504003567 -0.6456423132359913 -0.2512271178749351 0.035061362479507356
Ni 2.285860724481605 5.2814586866975715 7.128922812009562 0.03224291919410576 -0.3566022382783407 -1.0794614643159668
Ni 0.6537528985734391 9.063016482699785 9.084741965467261 -0.9395458869335302 0.3533302523952883 -0.24726967588908386
Ni 1.3908648983204783 0.7879409857169828 11.377484968425021 0.4173769463635521 1.029502873009653 0.5192972754491378
Ni 4.090025512293674 6.961488235293272 1.725656875807083 -0.21179822245535135 1.0068339706572271 -1.730114086282356
Ni 5.57854068107729 7.969233578759026 8.070699972762439 -0.9984524314617514 0.2354793681223751 0.89139812358371
Ni 5.269891374324718 2.8813775621763305 5.003086865478557 0.2838328197250983 -0.9244126308365177 0.050827109954196335
Ni 0.8701951089347146 7.237877996629246 6.791228111002077 -1.3454901659801086 1.1413697717849893 -0.08743499098521716
Ni 4.963139687890768 4.566264655606786 7.081030143795804 0.8045660562898143 1.0027955389217955 -0.019371976768708575
Ni 8.421121441236979 7.144340750110301 9.501624634756595 -1.0687836728871465 -0.16955628306700476 0.18914757493537102
Ni 4.728987867809516 0.31115071535439454 10.475348097380653 -0.45929235565041543 -0.5832215849069246 -0.8089919532716519
Ni 8.122123667492524 7.008983220397194 4.8844447377108375 -0.7944317960692898 1.3912295769987524 0.5783298040322621
Ni 7.330552688457907 6.415627309189706 7.337942512272872 -0.33526979534915163 0.3672450627041675 -1.0998605967976092
Ni 2.7697720647767126 4.853377333671441 2.4771916979279665 -0.964942472629764 0.39264936170988507 -0.7140130885009057
Ni 2.437661270448431 5.380134943265993 11.471330918727856 -0.6443359357197419 -0.16203246388613385 0.1410520049797248
Ni 1.1714854622507114 3.4656085527129266 3.802483372788489 -0.5878583123479876 0.414499367705441 -0.1390380598734896
Ni 3.6427409680049174 2.4597426705196863 2.627288925369559 -0.1659145725493594 -0.052105205335671555 -0.712154180915296
Ni 0.9885875498184051 3.434365913878555 8.167575759908933 -0.47302307497294666 0.049591437774882334 0.3586048705306663
Ni 3.46411043140875 2.848772994883617 7.0746644901815126 -0.5176443132267472 -1.0129130869717717 -0.04674676923723563
Ni 4.118734964195528 7.12748915531908 5.966883685545912 0.6068389672155484 -0.7028794404815895 -0.1600743117184985
Ni 0.8678643953663383 7.486502576461148 11.647127736178367 0.4219370549304088 -0.19263373371175854 -0.9996994164949751
P 0.17841898370897155 5.639473360303522 7.997811377576573 -0.25245764784792646 -0.46988992866060364 1.2463450856468148
P 8.573720985232699 1.7826735567394278 8.10913086999994 0.22460180197792284 -0.2578479656255624 -0.4541177534280115
P 1.8014318513723282 3.493600722293387 10.40754857486746 0.9780576698554834 -0.9592143118967352 -0.02755682657234609
P 4.162752491969149 6.138029971287335 3.5641758550046814 -0.1912301684960126 -0.7276561332056372 3.429365421547584
P 7.003208643733823 3.96586303450814 10.487281314532648 0.04360668094635716 0.10705739320183498 -0.3124875073473134
P 6.403787611125184 7.904342227480545 10.195406426625324 0.6073992105943927 -1.4544018387818631 -0.2900967983569391
P 2.315196663474297 8.5059695841917 5.791657970095599 0.15974161096942813 1.0783679741414718 -0.8869123198982145
P 7.025344520943412 4.0328245170432995 1.3684012503285818 0.09540592500583568 0.02093546460108653 2.117499114269508
Ni 5.496252963624253 2.7421067580262535 0.5529765483222527 -0.6407867849159029 -0.23384080407768756 -0.654687454157395
Ni 1.4640640131948457 1.0854025041604267 7.016751660323578 -0.32841369165926665 0.665134617632648 -0.8100417346924049
Ni 7.066456601339237 0.6957012030426855 9.193511019864303 -0.4823104138121436 -0.24654076814285927 1.3086074340211464
Ni 2.553443348453632 1.645836064768256 9.183583469355295 0.28830062568846476 -0.4361174601958489 -0.13333535306175748
Ni 6.316560633129892 1.9667790457381311 2.702622636114301 0.3423539558894426 -0.23713927232330131 0.08175311010909146
Ni 4.352496364785389 6.758606292615558 10.475361716665237 -1.1090173235962126 1.2946332312292412 0.17143293126442732
Ni 8.178380392345115 7.031373324252341 0.3443100415058057 0.19135332433743818 1.5637451998043972 1.2995800337115555
Ni 7.53399756156507 4.20631604358999 8.096015498946104 0.6465511982035058 -1.4841901257878891 0.7165312269370692
Ni 3.289529362095387 8.387972102560928 12.288100298098723 -0.5531903286521569 -0.3297730339006385 0.38468099879242784
Ni 0.09134000193948581 4.829625301357951 10.355895168204066 -0.6301601584399922 0.6702454564966521 0.1291907347657646
Ni 8.594022798785053 2.4455422964607045 5.73132635529565 0.34324895689988627 0.2501436550027692 0.3485045488718707
Ni 3.622321120652839 2.438142485170378 11.195853649458972 0.22155941560717327 0.6313734620218029 0.7956211883917007
Ni 1.1120690633747676 3.3849279108407324 12.596161251757291 -0.47502545011495606 0.06519957662578449 -0.6707051697418901
Ni 2.810511884727256 8.222552272010681 7.93354651338893 1.3004241268794055 0.4475611832564163 0.14648757417299932
Ni 5.561325905363844 7.887871972657661 3.6058363385930647 -0.15294669953478174 0.21829719991613375 0.7456160601181675
Ni 2.848110189700557 8.622695932594684 3.60333765384816 1.1698411397518047 -0.6052626238673641 0.20203831485511012
Ni 3.4071818218500445 4.3814237252405785 9.218825638095664 -0.5031692595390238 0.1495099059390909 0.42503472001912607
Ni 7.2654615876722035 6.083489276292258 11.636975013497578 -0.06948174894090615 -0.14640632731310269 -1.1501536886252064
Ni 0.6276038721732682 9.110121048312315 0.4159483863669127 -0.07666438273227442 -0.15629479007140823 -0.21784262887721836
Ni 4.77591992248399 0.27720056274483934 1.5425374230122197 -0.12700144042392966 0.23239070189472233 -0.0105723761992076
Ni 5.707978361758136 5.5982795642001975 0.6372408779444978 0.31925773619161146 0.06499620236572679 -1.0627492937676084
Ni 8.032817478717496 8.836291712478026 11.480380479357388 0.1226984421732016 0.18963274210190567 -0.571781461390783
Ni -0.038789538398197945 5.014193846032491 5.837730193936706 -0.3264095167450443 -0.9717754363911973 -0.19501560368037382
Ni 7.5611725740705245 8.858845247748173 2.5152902846216327 1.0480374414787306 -0.07182788057557953 1.6310489672573778
P 8.448450805634378 1.5307985076536152 3.5762016832918433 -0.4341919610383619 1.3279187327552484 -0.0702934462089241
P 1.7876218968047382 3.119606088109554 1.3741286134720636 1.0568920636558832 0.26358846765376537 1.2418217438551644
P 4.670479421239134 1.2716144425080327 8.503303836222571 -0.35936128908071663 -0.5972955465014875 -1.239495152604517
P 8.641426988658418 1.5904600536520606 12.471246081510445 -0.21313185366511037 0.5945616925100922 -0.30489118305729423
P 6.374424433563324 7.764926150961579 1.189500143945357 -1.434092952021182 -1.2068524268688314 1.1345944007343685
P 1.590859552666508 3.4585083656834357 6.00336157737415 1.267025496814302 -1.0989383420936556 -0.9078629540079526
P 6.823325132955981 3.872934116033922 6.0979774712321015 0.5326574988061278 0.2300939354407457 -0.8046064226094466
P 2.4212818108561014 8.421275793128924 10.102398516300521 0.6639105154175599 0.21949867642340265 1.3781987119567234
