# total energy = -340885.3699618234 ev
CRYSTAL
PRIMVEC
9.15334382295881 0.00000000000000 0.00000000000000
0.00000000000000 9.15334382295881 0.00000000000000
0.00000000000000 0.00000000000000 13.39684391907347
PRIMCOORD
 96 1
Ni 4.831189780530477 2.859111011010027 10.550938580297263 0.33447352470010133 0.39173559164636407 -0.9422002938372418
Ni 4.519014990048762 0.6550828481242975 6.46981864256242 0.2530700846209448 -1.129424426497655 2.104980670087523
Ni 3.6139323545750206 2.9536101324565367 3.4932400244951003 -0.19952943239032733 0.5957374579857483 -1.5148482169933781
Ni 5.124993809994839 4.912590466991521 3.3929248683946662 -1.041946240979328 -0.894447194822679 -1.1846411808791146
Ni 5.067812871242771 4.630612557723681 12.299132967679336 0.7032198545401437 0.028950621596079175 0.07619412796407524
Ni 5.836144550264473 6.007138165892355 5.246967608207511 -0.2388698818611628 -0.1857326357165511 1.1930746563584484
Ni 3.381373348512305 2.977070152629668 7.994700731793949 0.6585502795469109 0.16847873373210984 -0.1997117236044625
Ni 5.610560392181441 8.20813291064099 12.709505745839305 0.8248446040331924 -0.08314176292650197 0.6367468105185744
Ni 2.865939405488824 5.388033450929395 12.019674973961111 -1.4246793720167656 -0.969759177292117 -0.7908548773513089
Ni 7.716772261825597 7.953788946321523 9.148503517153145 1.7999858715728292 -0.6042583509725659 -1.0693742552832937
Ni 8.31913551096856 0.3571488299349579 6.9069576286780165 0.10534529560673471 -0.9087641256659834 1.2971176882139916
Ni 8.662340136950435 2.5040436514564073 1.7909835236689757 0.14428593853599023 3.4473731709789144 0.5170239060339289
Ni 1.8504033703158342 1.235024066281655 3.28368703275277 -1.2128577525226467 0.49698010000917636 -0.7453957165772453
Ni 1.9333143585047616 6.486398094197064 0.5096709977636285 0.2934739423592881 0.6201218003673835 1.2224330549159077
Ni 7.336258606493084 4.099279256510292 4.381665404911852 1.9747154713106572 0.9033115871918443 0.6828811429827916
Ni 7.703930120466681 4.514246097926171 13.07739602472985 -0.1390455160726573 -1.7812795534125774 -0.325045289407666
Ni 4.266602381272226 0.5341241557396409 11.34254538194723 0.23737658514508794 0.24460678434494001 -1.9942424855999916
Ni 0.081131578153166 0.43624378909143186 1.529946634359032 2.7321737754793913 -2.0898522990865174 0.3255309707948329
Ni 3.59252268341429 4.7563886549530965 9.583057598978108 -0.4169563138863658 0.40851229688407065 0.9759025711856937
Ni 0.09879295502560315 4.9834465013887925 1.6433776167981626 -0.05696587586208254 -0.1261681458893569 0.6912079176809321
Ni 6.6609432072214245 2.468098470332769 7.70005001802759 -1.624855951072789 -1.1542887938395026 0.2696382733922711
Ni 3.5222158496453395 4.438639478093919 1.0029666634594725 0.553906380882575 0.2666300826935666 -0.42117986504941013
Ni 0.6321674519075853 8.901507857240619 5.021539056969168 -1.7050345176059087 0.8580447449342449 -1.1202003367962254
Ni 6.949630517498592 1.0181996582203485 1.3672010968341577 -1.768790419806631 -0.7166865215680108 -0.6622542107610594
P 9.072098725741066 6.097316909062736 13.141111535624564 0.07715366366386713 1.2723199124440217 -0.0548269751422088
P 4.262455916528399 6.508128132390983 13.348253536608564 -0.6185125468987348 -0.37816119539603904 -0.7629406674395441
P 2.0904315049237217 8.491099381039808 1.875411220926451 0.23754936327752638 0.684105759418512 -0.023587043291320667
P 6.640970611038135 8.283885983974127 6.24083950926198 0.10557515222935365 -0.3248601699800534 0.7910492527503021
P 4.775830357195676 1.2105571782899347 13.252761277359172 0.39416914078852117 1.2612955363090599 1.6726121354111452
P 4.105604217079795 6.596961334021977 8.50465182187802 -0.936082353864962 -0.5531245084112281 0.19256714213988127
P 4.579060925411906 1.267857110511472 4.4619795894632 0.7750865587734587 0.17256987308234795 -1.8644565404523887
P 0.3948880664444465 5.546624285701019 4.131318705832185 -0.26704531585411434 -0.1143842658805514 -0.9953167140462471
Ni 2.8408134767431177 1.9436118702857887 5.581044519746684 -1.6604276775298115 0.22295732439596438 -0.227135367033054
Ni 1.748142213322381 6.810865825409374 5.327897812796959 -0.7689213105030113 -0.61729950042724 -0.7655161414762042
Ni 6.462965534055349 1.163033017252519 9.830644564900458 -0.7668083779250665 -0.07217626505393376 0.06994609017183438
Ni 8.47538308972601 3.0986723250838413 11.113901261030065 0.6336352614727861 -1.173422686455476 -0.525379734197792
Ni 3.1456747455243517 4.7000498238311215 5.191424202662221 0.21104771744257203 -0.38329106042343664 0.925374994749787
Ni 1.7949341068553681 6.825218268496175 9.841710042226754 0.3776696004716012 -1.091375185034417 -0.8319490762884575
Ni 1.2251109949404528 0.8084947209708488 12.30747990189544 1.6028002568243298 0.042076874565392046 -0.26808892662728023
Ni 4.2643323520084975 6.918390155090907 2.115696564495269 0.12759742213671574 1.1237960245672838 0.03443272775657295
Ni 5.4685188030099035 8.326027978853993 8.235387907155822 0.3708438357990194 0.3385872897581588 0.030844753294998487
Ni 6.627231441986293 1.2599394681198377 5.449769093559009 1.1467752590712765 -0.03702234286062011 -1.087811378942559
Ni 8.17526325303595 6.918994275782061 5.252567623947628 -0.14512694638004683 0.4648834765849478 -0.3470086810526346
Ni 5.098677946554437 4.7800958154089725 7.544928300558198 -1.0068643096745307 -0.38824377644302166 0.22022886972120784
Ni 0.41565608820442196 7.387453258396449 7.28354266884927 0.23692329965775327 0.07344304758149932 0.19997911833323623
Ni 6.602819474057405 2.03122767719067 12.217560198354752 -0.37453028351167117 -0.023274397146908304 0.2362147036265029
Ni 0.47432902199676297 7.216697629707506 2.6558170757618 0.7113532822805555 -0.5113731355060548 -0.07986849149186889
Ni 6.8665273090897525 6.346837061196779 7.43917331223424 1.5102122608832633 0.4630093994906864 -0.04100652431934873
Ni 2.4381761894330554 5.464216731421386 3.006090829164554 -1.237136165454037 -0.14784768774531956 -0.33500317195132634
Ni 1.5187777242477347 1.4088460651453922 7.606433278923917 -0.5089526989900203 -0.9149789962274435 0.24895760511446802
Ni 1.1790239088804784 3.329894942950975 4.093726838157963 -0.6594244546217483 1.494742961603071 0.577173836050948
Ni 0.5536436614045656 7.67136252320722 11.793148021466125 0.28368086752826627 -0.30454382702020455 -0.11115778852345372
Ni 2.3227342173598875 5.340207229546404 7.420940766708349 0.21056640693077927 0.18881641684819742 1.079198183352251
Ni 6.129600752664231 2.5878150539630385 3.298315906822492 -0.2675276548071715 -1.2084380261883962 -1.1756235507615365
Ni 3.6533466530008902 7.378702661718527 6.46342777791752 1.3086596274153204 0.08226347408660671 0.7080635557856902
Ni 7.956946849934371 8.256563252715136 0.054001982448467156 -0.30205191383628627 -0.9898621186895792 0.3932844241907227
P 9.115201821720493 5.967568260621794 8.814412875598263 -0.13064855025821367 0.2666452522022182 0.006747346026162574
P 8.481177156354802 1.5839129187666583 9.227384288064572 0.3863378176695605 0.5981818057611826 -0.852638486317009
P 1.7547600808936543 3.687406245300625 10.952415223612807 0.47442869707122165 -0.1319616126426824 -0.006035921781434766
P 3.765749714930679 6.630435112318169 4.343417242486786 1.090163167004187 -0.9155420678197652 -0.14372492382619764
P 6.702517694785358 4.440506760230212 10.834215349051085 -0.11283286223303149 -0.44358420088653927 0.4732899554810881
P 6.28372475565884 8.259144495668247 10.588905735067508 -1.5372049874220237 0.09413837114732175 1.3673059763036195
P 2.132152445988541 8.975119048123304 6.372623861365233 1.2965003663449672 -0.512609064795685 1.2576337711867567
P 7.038289805597285 4.357403551821372 2.0678968878093125 -0.17919483459803331 -0.22446501928974244 -0.32746855413717796
Ni 2.6530234752324047 1.5132765646207151 1.0067836078263066 -0.8820909872501711 1.710935713581692 0.3504958682702867
Ni 0.8404179228264135 3.410059927998295 8.88995816802702 0.3436299943883888 0.13927871512938594 0.7141521851819314
Ni 0.7543911364061423 9.079238333909244 9.124188574668594 -0.8898649747686352 -0.7724254670015278 1.278742528140914
Ni 2.3910730822106863 1.6272356949974147 10.024577375438948 0.5304730895602993 0.5468777561705678 0.15300352091464617
Ni 5.596116415656586 3.1394047050176814 0.7881953504137077 -0.1307501088330845 -0.09378510157296106 0.4396858942733976
Ni 4.0077641251443294 7.196111759489257 11.066931792627255 0.23636459894080583 0.5647991165356789 -0.4414689543157494
Ni 7.192139208277732 6.560888006085063 11.696020975013097 0.5972983747149648 -0.2903114854709065 0.7393492532728493
Ni 7.757889082199264 4.158400704149096 8.866513708538358 -0.4753141849999686 1.19016236780766 -0.08563599010326542
Ni 3.3456478476399947 8.740473079672967 0.02145543787975779 -0.5808224885471288 -2.307875419405658 0.02927072393965927
Ni 0.2169543855433426 5.351447535739383 11.007235514997474 -0.03474640234224984 -0.5238630404429493 0.026761584364560363
Ni 8.600472686170024 2.5739385847541167 6.461592532484546 0.7933331636884725 1.4569492877940649 -1.3152514217002254
Ni 3.189656562509094 2.706039642553035 12.327306959912226 1.2793629353337321 0.06541323529848735 -0.36054451075554034
Ni 1.0799755755627056 3.116228438502517 13.118323370886744 -1.5996866508960126 0.7014362802771598 0.49290721549138333
Ni 3.0990384588360556 8.6123903398046 8.749572418749873 0.5003274192148545 0.5613085868839172 -0.8711344882386675
Ni 5.332069906903441 8.267281818311208 4.547451683248867 0.528257055745587 0.41184007570572295 -1.3748786464445548
Ni 2.931486500478988 8.651346971040201 4.11540287162343 0.7970612632723371 -0.5872016526005951 -0.04459064212618127
Ni 5.070540567696768 3.184356776445792 5.526532696048259 0.500832383875731 0.7581252483287717 0.6629532937106131
Ni 5.933874802074275 6.2340312521395544 9.705142152650824 -0.4002410580142139 -0.8786639638464931 -0.6310250775434487
Ni 8.060837302125178 8.67991455705672 3.3501220020920535 -1.638232886600327 1.441921446926665 0.7498339548542571
Ni 4.523536741888609 0.7948415933507779 2.2556402072666177 0.5922530989815735 -1.0411214310851875 0.14135333827022753
Ni 6.32262646683161 6.04401698808414 0.7299938138273426 -0.9620306982996077 0.951766083148806 0.17036232390806788
Ni 8.138695644533549 0.24504599768198448 11.183873082415738 0.5957546843769289 0.38323552459515287 0.04718462810560261
Ni 0.2577352781993515 5.01156557355885 6.251650523630487 -0.97899895072283 -0.623787422144429 0.2408755994372819
Ni 6.893383219814671 6.46708453876776 3.0440579839347954 0.9474247754609747 -0.5314079426697429 0.8658902091205927
P 8.795640282787856 1.7907144153610983 3.8898004068527854 -0.9109765599362698 -1.6273753750605326 0.7594794483638211
P 1.8221378446448904 3.528934403998472 1.8993243316179473 -0.08912292021060135 -1.1406573190989968 -0.11533146028516911
P 4.671555464565044 1.3541822959397978 8.658433489814309 -0.4451662006616785 0.14176985698235584 0.17398706514484877
P 8.545213949617082 1.3369740095857259 13.081482077404562 -1.4190597118371433 1.1553956537504357 0.21450379431197253
P 6.291221344235428 8.15566594394868 2.0030692456422488 0.01800594965911738 0.8276702464074455 -0.759611088845679
P 1.554503225120045 3.2802655128383273 6.78350556544078 0.3985137909104621 2.206426116419219 -1.600734632544553
P 6.990838871310311 4.326611703260149 6.526553813471168 0.06856772176706902 -0.27307506698796197 0.08565064539128475
P 2.3051689505974067 8.682504953353638 10.83710872102796 -0.16568163060294694 0.30756744433787675 0.5826212323187644
