# total energy = -340872.40845396055 ev
CRYSTAL
PRIMVEC
9.27932375421736 0.00000000000000 0.00000000000000
0.00000000000000 9.27932375421736 0.00000000000000
0.00000000000000 0.00000000000000 13.58122828271991
PRIMCOORD
 96 1
Ni 9.180480606120597 4.685993647055089 2.0998748239150706 0.20516477629923377 1.0324930659862284 1.1592399671971905
Ni 3.838856324318734 1.640937091321915 5.455552109714494 0.748030583096931 0.08531485931842082 -0.1887613952405459
Ni 2.8512485954002735 1.1397979212683556 3.3385374465036803 -0.19153201600714756 -1.4825438484337177 0.5457341294844279
Ni 7.251847354587954 8.085613171490749 2.3936916262131094 -1.388577484087886 -0.15580576625013168 0.8659776266280764
Ni 0.5905436005915004 5.026201501583728 -0.2053699979932855 -0.7854221363715118 1.5135523810000902 -0.4604005011129296
Ni 8.47671811796739 8.27254515276559 4.659665421169207 0.30762709393121856 -0.06952802879780928 0.7014694475079403
Ni 5.132505436926719 0.8364039287060447 2.570573171701461 -0.7589438875753252 -1.0880654039348938 -1.5238061975176143
Ni 6.04217612386318 1.6560345514129633 6.959686911617666 -0.1654142358741732 0.2935135373479719 0.12760513544619959
Ni 5.042672301621595 1.1275492136345613 10.092849720466079 0.9776912876550001 0.9029380059025095 1.3496327273935724
Ni 3.3717815525406736 3.61881571513679 1.7961040907997807 -1.6391898511969578 -0.5203192889557491 0.048187101228187985
Ni 3.752373024964974 7.895322074940583 12.92255265355203 0.16757679074313075 0.38646945815141825 0.82638752304028
Ni 3.051774786283831 5.1100309142835 13.167462778892558 0.42020618828223116 -0.234585395553196 -0.7034939341371368
Ni 0.18335387395393665 0.7130111903491174 9.324097631059232 -0.36986887348025976 0.6423497585276485 1.2253276028548832
Ni 5.6634961921756695 6.024044324835579 3.342517348552267 0.8704091800368686 0.08085450955422205 -1.0364970449392987
Ni 2.6231164157208533 1.7449675922934822 9.609507365844985 -0.4183457380347247 0.10695300641348676 0.20656834151497974
Ni 7.295599367082908 5.763796404913308 1.062625495581072 -0.03534726915104235 0.36531082179593216 -0.39923498534720275
Ni 4.055389349041909 7.645930964057357 2.2608673829781605 -0.6582348051890212 0.6762001314181904 -0.44023353924675146
Ni 1.488774736943915 2.1874707142122336 5.694799063639186 0.34457975989616785 1.0305081743457156 0.47966192044570294
Ni 8.586937928023609 1.335109132083586 2.786568923567063 -1.6052934555598288 -0.34849143624574824 1.400252349322653
Ni 3.358669867778135 5.202879829877246 3.709712260968302 -0.5455469531742863 1.508985587565014 0.18504949360659745
Ni 3.3726074123735583 7.194677439639615 7.082203681792298 -1.4907330691127294 -0.6948627408247001 -1.635598020080641
Ni 0.19026975410504798 0.28484926361826696 6.831371491897309 -1.3603634835475154 0.9904347033635975 -0.21065253888668237
Ni 0.1223673730587952 2.886417233227607 8.059739632479152 2.084611876623184 0.49193019629009477 -1.2089771865213177
Ni 0.11634694767030598 2.9273297725892737 12.178545737362636 0.6024138415646593 -0.8934002416154032 -1.2403919533871735
P 6.724865267291881 2.197529501390289 2.349986938270376 0.02888325869325348 0.5760026985609822 0.4399018669389456
P 0.3762422532819064 7.778439710277496 9.566685141611323 3.463239191476893 0.8953321685307936 0.05172956716380769
P 2.0004459396977445 8.594862470689716 0.9874787463153473 0.2017560077280009 -1.5648492315018534 -0.2665416367448184
P 3.457884399611869 6.176429382988738 11.270151885403758 -0.11466914411082188 -0.2778406066974054 1.5172663395165675
P 4.272442015907124 5.536258101967648 1.5453674779416309 0.10927625523002471 1.058327510550829 -0.4762564943085798
P 5.870183854171985 3.6505695617450056 12.790923587243771 0.16011339248655004 1.2113914523897653 0.6078183004096822
P 8.309578934709887 0.9437072472400658 12.057414370255978 0.13644073145995858 -1.5125000284761758 1.0766964999763198
P 8.038502043720467 6.3100702067326075 3.6810966817250486 -0.5397524579796963 -0.5360053322324382 -0.8216818900344947
Ni 1.2059038251949852 5.6144271270487724 8.823533779091502 -1.1714719904870083 0.4101994547785065 0.7170541893200747
Ni 1.471403842481443 7.370854684439024 12.676922452671816 -0.7280369135838236 -0.6318028362497377 0.7775010817522222
Ni 8.130812758524245 6.720708130155563 8.906488151541375 -1.984909124014207 -1.825115062540289 -1.650042991861378
Ni 6.339188725334764 0.9188284517575158 4.50667256729634 -0.4166513810514373 0.012030191691656702 0.44636304918325703
Ni 6.2139364104552515 7.824706419566965 5.1173931299173265 -0.7719634397634447 -0.3467297163596351 -0.713563659668313
Ni 5.498314946274781 6.1657024844852035 12.854741209880634 -0.5346573028449759 -1.0876889944320818 0.4137558046711971
Ni 5.1111629918072286 5.8187207234621185 9.83947777960187 0.3070977037903098 -1.8588852170121986 -0.21640975308543373
Ni 8.21604334914273 2.9924335095276833 0.7415840847021323 -0.4021393034781912 -0.02985796390169696 0.31146857916449583
Ni 2.030214010977451 6.081631809362342 1.5022334684227447 0.5087863486154851 0.8904812681963954 0.11592821332890356
Ni 7.05266666567932 6.196556236668814 11.039678532287969 0.37977147730595245 0.8793702458848984 0.15644237139286604
Ni 0.9938341552989728 6.451997466777216 3.5606445611326283 -0.39235265640507266 -0.2710829762585976 0.9241148970904407
Ni 7.244962096205927 4.0702455467098675 3.8583456884424145 1.2805628691791042 0.3758672571555398 -0.47477451044641455
Ni 6.672928891059801 5.010259623011866 7.80044655499288 0.08851588275422174 -3.0043366150657294 0.0683571484181597
Ni 4.611295089136874 8.921188456566721 6.358975955757721 0.25277183665423564 0.9025070890126778 -0.028358753648351158
Ni 7.0829358204531365 2.360298123060279 11.267448818332754 -1.1974560732555957 0.8635060251591321 0.03053339270216677
Ni 4.246580540016682 8.98829652748157 8.632975438011144 0.8099656300388308 -0.32847308414229237 -0.23645741576492826
Ni 7.537993867696527 0.6158019204242187 0.6877250325445041 -0.47660127924250817 -0.5432167623792129 -0.7439942082440284
Ni 7.745804327892606 4.4989039172728456 12.304634119331395 -0.5484263316046104 0.5167130596617295 0.8855668616139135
Ni 2.3493763587534793 2.2660665881957476 12.495857787940043 1.8210514339938766 1.1518519022632356 -0.26165268408363324
Ni 0.21435145565900487 5.969472620597439 11.079172263015389 0.28520244637911524 -0.1367952865858999 -0.22247241433974588
Ni 2.5963362867578756 8.621280706018059 10.85134722895921 -0.9293095539175028 0.2470148795658004 -0.5313431508700786
Ni 1.9007024863980055 8.48821520036002 5.3466443960669245 1.6531550551277978 -0.06554718977319034 -0.09194830547453842
Ni 1.038894552472992 0.46356904318408476 12.461374892153724 -0.22326148589994455 -0.9269497954360746 -0.8653325368449097
Ni 7.993590115729888 4.227233149549665 9.727690691727963 0.4421808927811095 0.6628453073778392 0.5667392709811853
P 0.5218339183602929 0.7482160175399147 4.560413772039612 -0.7970124123122725 1.2713819740107848 1.0946571982197986
P 3.8294006931984037 0.6816257329023124 11.909393378163555 0.33128715655231983 0.8442543760183718 0.3409534759974902
P 1.2761111903141429 3.3053972688950943 0.6733495038579328 0.7088354009547083 -1.4329765790285514 0.6913441861484804
P 2.8094545202619328 1.6567768973301629 7.416423588566325 -0.054160288092487366 -0.12343017813290355 0.19169373839599244
P 2.9557337832461252 3.1510821113572156 3.9674705382707645 -0.05909989148594983 -0.05979691755297443 1.3456403184047276
P 7.12945307148966 9.222460267738237 6.531076793539308 0.8585857050393795 -1.0595367003675815 -2.177889185321791
P 5.890050886781041 7.788294352328322 9.999654686088437 -0.013799624887253652 1.409441986241721 -1.154661603797889
P 2.188816216187158 6.203580684910316 5.443601268379976 -0.16071220241281353 -0.3872611008147782 -0.21127963094771998
Ni 5.3800406830169445 1.6550880603685336 13.335123460156892 -0.6903406845846304 -0.5557215797144429 0.31766776599667224
Ni 9.002234072076993 7.437266806056498 1.1643584359389063 1.9461795686544932 0.211225637781333 -0.7612496528903664
Ni 5.082564115347112 3.4294339923351926 4.172465651575864 -0.42495115916638426 -0.2822608472522881 -0.2778084679078893
Ni 3.093392554266837 1.417240428497763 1.093362328282724 0.6379030356102046 -1.164595575082149 -1.271831145733061
Ni 8.189226102883893 2.130931793293515 5.2320456730316245 0.4004619157757684 0.7022883438648099 0.7893065590275825
Ni 4.307916871425303 3.604265735159677 11.293742710719966 0.4359511098213137 -0.3261472642225931 0.10705276521614468
Ni 5.834523412174506 7.042153191626981 7.6756897560130986 -0.3305554205926178 2.452576076881563 0.049749303508985286
Ni 0.96736024402684 8.805605197258734 3.0633544546597493 0.8713144654599575 -1.8816086267516432 -2.6800508295319068
Ni 0.748052701438131 1.0151302037986378 1.128109684802047 -0.1767466301678569 1.3188324541832643 -0.7421972642446056
Ni 3.1682024640726327 4.300363501717796 9.297274817206015 -0.27527438863212594 -0.23408248777484847 0.3966633679652846
Ni 1.9437585495955858 8.85782923253373 8.327860130853326 0.2731827962104198 -0.09947418153793837 -0.4567189384962844
Ni 0.47897921649275316 7.22817579915325 6.8074280522704305 0.07057138246065911 -1.599576864791026 0.5633803818112813
Ni 7.5443780425844436 2.103641301512462 8.759634498403749 -1.779439157769729 -0.6627514621124522 0.6314161423342802
Ni 4.375850802173037 3.287868625925218 7.124277992514382 0.057572141987513745 0.7145481350687694 0.30819016552354017
Ni 5.025310686483088 5.67389831434043 5.601564128168495 -0.16521240427601225 -0.6509596116838466 0.6349213272740613
Ni 3.189906802826757 7.027881591368817 9.325496025180756 -0.8550542948473532 -1.291945142874117 0.1924262456866428
Ni 5.910641706659366 8.671667435147986 12.104827076055123 0.28104163013320627 0.4350471099498056 0.08127617047267291
Ni 0.1743547855726838 4.354248535982527 4.96139934267418 0.35898307980569144 0.7080087912883548 0.5122257133143373
Ni 7.92152688581773 8.408737790599831 10.699930004295599 0.7285930431976098 1.2654977473158655 1.7700150362423517
Ni 7.56508021435035 6.120289473000514 5.86976628459356 1.2503904593607822 -0.9957841406009689 -0.13544700008812158
Ni 1.045622062347614 2.897209086998897 3.152556595935253 -0.1338421174948469 -0.2584321202638065 -0.6432650712530663
Ni 7.308441951450463 9.088429712387839 8.56622369313655 -0.8929068469187524 -0.5312644751133431 0.3671944119718902
Ni 2.0861126585425853 4.284078288159229 7.1133989130978215 0.32755571453434557 0.018789621902677318 -1.25627340050412
Ni 5.766181191172312 3.936112918795854 1.4774205561403464 0.5442176928399014 -0.2803294345575301 -0.43247369279567455
P 9.245129656184721 4.9110079738822705 7.12597518086758 -1.2865964769676939 0.6200009585188032 -0.0757513839997018
P 0.9773076793173153 3.434676810375415 10.010261881312823 0.4220262722101054 0.3857924866890517 0.40102987246409644
P 8.310070738880032 7.009415736678476 12.717136258938918 0.42907238042360946 -0.8943168398924016 0.4015106687552569
P 5.839460012523884 3.15211211631733 9.584001288062401 -0.6240275631796931 1.0146220992430786 -0.5844258896276708
P 6.392015916667485 3.616236063074522 5.975944021130626 0.3043893037202112 0.07953913317690818 -0.4876433959892828
P 5.5920361183212375 8.51717597045477 0.7589893126632747 0.5364097667597084 0.2835008903069763 0.35933609226973595
P 4.090344562418048 8.398716120717637 4.330659566531112 0.2361388560832449 0.9500688979520412 -0.43476505993301257
P 4.292726618094606 5.389338565629871 7.711937579217562 -0.10354166673909265 -0.23913393415582687 0.656626837271953
