# total energy = -340872.98392153106 ev
CRYSTAL
PRIMVEC
9.23343291796140 0.00000000000000 0.00000000000000
0.00000000000000 9.23343291796140 0.00000000000000
0.00000000000000 0.00000000000000 13.51406240513791
PRIMCOORD
 96 1
Ni 6.779527895343758 6.112467786317362 11.675230546019373 -1.0826563171041808 -0.506146854110109 0.5759175950463437
Ni 8.368537021951914 5.411927250468948 1.9742288604904472 0.5806643657027096 0.7546252055953133 0.014087331331001544
Ni 7.167987640746138 4.614269469911776 4.185088439796088 0.10587417152701122 0.24701719355864551 0.5530334913593186
Ni 2.912003058306695 1.0730818433464475 1.5397783103561922 0.993716973659295 -1.3075843920732708 -1.5024634701757802
Ni 6.454391031117711 3.9814099954548077 6.4431668703772695 0.557249329212879 0.07087682951621987 -0.15880495808777167
Ni 7.207682167747751 7.26166081507304 5.807938097099967 -1.539193221496646 -1.2721941854994347 1.5102423427902505
Ni 4.934263312146685 5.6829746661777945 13.240523600842547 -1.2680621656089321 -0.0406653389298461 0.4117894249734456
Ni 5.120058444113758 1.8508415765231883 5.776234182721568 0.5726769766218588 -1.0667486447349885 -0.4496715447311997
Ni 1.777934392246675 4.462065565958629 7.533332410829645 0.6459269343559456 0.08239717145099358 0.06865282528170757
Ni 1.4979028465604927 4.049737397132391 4.867211047519329 0.9322714647593041 1.6665075651753043 0.4307402550443356
Ni 1.9767394308304653 7.789646961387578 1.611700287367976 1.9213036313484202 0.1406516842175126 -0.42682523626064556
Ni 0.8508857498072757 6.593538861290844 8.671473944035608 0.8452308809990282 0.3288160693040079 -0.6977930270976176
Ni 0.29868492634416266 6.7456134971867625 0.2492952950504608 0.5057791863580451 -0.2009787632423442 -0.6723509328754291
Ni 8.883836431792803 8.221199137010132 4.602200450083023 -1.0762221314430627 0.037552247222161134 -0.8521702884313387
Ni 8.003834898781484 1.2802339050540938 2.7871808989042073 1.0762614693214303 -1.060101057511484 -1.010598322795666
Ni 1.6950551006982981 4.915288608032168 2.4201113235999743 -0.13477311394954852 0.039433009184641765 0.056832178497695666
Ni 3.674342958942684 6.066162121531809 3.0781928427086305 1.1545903842403213 0.6005307656093336 0.2559484346100044
Ni 0.4508860602675115 8.861907029227362 9.829507061219141 -0.5344768114030536 -0.5443976700611914 -0.15084867935517246
Ni 4.099653334087663 3.534336419532252 7.127762191366625 -0.3197513879985784 -0.17750202027664272 1.2197832759978864
Ni 5.967530593866952 3.677334591124243 11.066692856529826 0.3970330925998775 -1.2217352575179345 0.3298062011314191
Ni 1.3270289417705792 4.617556571938427 9.948457680793688 -0.0005170488457345933 -0.10824909951709098 0.794264160143174
Ni 6.713361116908412 0.148195670835817 4.614119888302699 0.05717593499035959 0.7751341241819425 -0.013503948023705773
Ni 3.087041241225877 5.51743768546486 5.9196727890514005 -0.38396288967948067 0.570295877984192 -2.641622864573012
Ni 0.7216010724006288 1.8670370174073074 13.209265661261584 0.4697490322073652 -0.6701330992885038 0.06487818873062375
P 5.465342658402032 6.087057379639427 4.921348509886356 -0.6442081518926259 -0.1368647063712546 0.09229231907751848
P 2.8825022409607657 6.696223865893061 7.625350030680765 0.34331477714081515 0.7393394830808364 0.7651068218529274
P 4.620298901438191 5.4885370412417736 11.080868945691394 -0.0014305617989394718 0.9159120495646742 -0.9379209497355976
P 1.0463510557982578 6.925240696137534 10.918821279180346 -0.6845526171479436 0.14726996086497865 -0.2612009412581954
P 4.555166267460667 3.3681530985331785 2.461424471346733 -0.9607716290815261 -0.3443383333093231 -0.14675265490892792
P 9.099206248567079 9.249037160326827 13.874481853785952 -0.08411286859051965 -0.9159485592295645 0.5028216463916179
P 5.999099700128528 9.065698121447085 6.6565265688616515 0.17883822258956297 0.10800741581993012 0.9571371176527322
P 3.2074544365336295 8.437187593772569 3.5337787201996402 0.35697479112641106 -0.2232262617866349 -0.8761077730835428
Ni 2.8040549970887723 2.5374673293542873 3.4059224548253613 -0.9791516742506106 0.9241331519228859 0.10481359147298078
Ni 4.978454520853296 5.553198770153682 7.090504367243759 1.2624882710655805 2.9753206874493534 0.22058111085430399
Ni 7.867614066761297 3.2312120587655784 12.551793548708432 0.6594938744071029 -0.6193679529204946 -1.16620071478574
Ni 3.553911296769614 3.593642757501863 11.355434299243369 0.8307612266279435 0.41948962183118077 0.6552415268886522
Ni 7.019006204791029 6.903846832666322 3.527940420729271 -0.29912188467368483 0.42749989373016695 -0.9810067251814782
Ni 2.411458673855101 1.6924974398517183 7.4871283138033435 1.0947770116271145 0.35183052792131014 -1.014231034452247
Ni 7.48923722982269 2.0745676498539782 7.236483090898118 -0.18404496360148304 -0.6258872420962511 -0.42180824266202843
Ni 5.210075179107645 0.1544476280893159 9.987323968885775 -1.1277804631363288 1.1418266568167499 2.121403334419921
Ni 8.271087373667426 3.758551864793976 9.91178063958508 -1.0421411305989536 -0.188709716067004 -0.19176598639482456
Ni 2.4679949820269718 5.655255901335078 11.99241927141244 0.3340652335180892 0.6979760896427011 0.8314109443968004
Ni 7.477049098712635 3.3584395273757703 1.4266521401030277 1.61918821126405 -1.4740484093681967 0.5855515185916819
Ni 8.044249633530509 6.430264071579397 9.81041139913679 0.3209112126346344 0.24846832418287532 -0.6625437169770203
Ni 8.999291273762601 4.014437984076526 6.467654857132556 -1.6185554627760574 -0.136631507314526 0.05970255806695524
Ni 0.33415238787442386 1.0004793623476855 7.648472392745766 -1.4649888702690899 -0.4858477375414406 1.8243234198769294
Ni 8.998312529900732 7.901205294775221 2.280876699159846 -2.5344811391874864 -0.9055412478533115 -1.5548982909367286
Ni 5.33662860713372 8.416061499848471 12.563982603161751 1.1204854721368123 0.06174169998417109 -0.668143579662301
Ni 0.9187542498817002 0.27918206988154215 3.1150859462414617 3.076921171301675 1.9860635493336245 0.8450059094724156
Ni 3.5732645716231564 5.0735865775403415 9.15674992424206 1.0631200468434658 1.3879552771228547 0.06335121056313606
Ni 0.7306812300776201 4.131878014068038 0.38306557404291447 -0.4577772045574696 0.36427055345687587 1.3005223430201667
Ni 2.8792520726647512 2.8135931330256567 9.459492020896647 -0.5616325458822392 -1.906245451463717 -1.2086239169469573
Ni 3.1985534074502255 3.2990500885122276 0.0859891116679728 -1.8489077940845124 0.24748590566494794 1.298989451315408
Ni 3.427200900388333 1.18922919276568 11.58679457469673 -0.6564386325205469 -0.6374312381801086 0.5304602340444928
Ni 3.5931349187056103 7.804124983797099 10.641391714817505 -0.9788945639344818 -0.896712850928404 0.5107406441283785
Ni 6.745410361668262 7.08809998137932 1.011430213481417 0.5820910708469071 -0.40692129824786694 -0.1946294239855487
P 6.281541171738744 2.474753854733457 9.076246394916877 2.3404376696123954 2.136713996635062 1.6849097218315756
P 3.048297757788156 2.7152016746099368 5.542900722708951 -0.5879662986807617 -0.3201959317351647 0.311462922737541
P 6.6756887116591495 8.850411405566742 2.441748026350121 0.6353393886480865 0.178984261249124 0.3699156675577952
P 5.507151641482586 1.5709762326248704 12.004838238338971 1.1974061938542666 0.686698716956669 0.7793445627188643
P 7.863126618488958 2.2337612623300886 4.933335352164443 -0.4256741533753378 0.5881221075323355 0.7013516909831534
P 1.4132415025089031 3.584852529610368 11.990743403384805 0.1624978335583266 -0.16348102340720233 -0.9500593848703444
P -0.11577985879939917 5.482840013291089 4.08627409016458 0.678710813655186 0.4162996541389734 0.20510538381620805
P 2.9245882270210934 5.899055457266822 0.8607766028717388 -0.30113197312517814 -0.541009727425565 0.01968770823691448
Ni 5.3302390717336 2.8450237377973453 0.5776001500218558 0.7864793739914326 -0.09425561345147637 -1.045129009582684
Ni 1.4360480811769614 8.850725342277153 12.167209998336356 -0.3710405251908578 -0.6498144423358099 0.03537066618981005
Ni 5.469931674433621 7.262999662808616 8.863670614865256 0.03648318252769846 -0.08064316487436433 -0.15878567481406203
Ni 4.587372480575722 1.0563693302334167 3.338986531449509 0.22460720129456158 -1.4238987850969993 0.2929692348087277
Ni 9.098679942905507 5.257747391926747 11.879211846951874 -0.1312483886257417 0.5504500469028585 -0.40836908643798703
Ni 6.149106047108801 4.864754031088733 9.055286502780646 0.6124622269395968 -0.14284020722839916 -0.4920844624797719
Ni 2.6109377530230082 0.5828493564885728 5.1547900010610865 1.1342341891814725 -1.165107224611245 0.09839843197525634
Ni 1.5105341824381864 6.921593490237177 3.968498886567542 0.922196082801173 0.1679313458690721 -0.46354238917602103
Ni 4.687933795666338 4.028795971861478 4.570144741920312 -0.36139683145350665 0.4326917223437516 -0.22946607204875963
Ni 8.275879525217515 8.13655625982386 7.677054483542111 0.6745266003705093 -1.1360226485404628 -0.17221968883178082
Ni 5.891345540996446 5.003135486351159 1.9479976016491165 -1.009404302487565 0.5531286221762861 0.8566987724293117
Ni 0.7528340817134117 6.434557617765894 6.161290484845792 -0.6624437010640462 0.12660060544108517 0.6840216843451381
Ni 0.7145965903854106 1.8003901004736862 5.3527446404969705 -1.0496153274888116 0.23620904719954805 -0.23907479878311724
Ni 6.351733726813472 2.6018151215557848 3.414395052633382 -0.7963902053472414 0.05539647449243363 0.24301064350241372
Ni 4.774312558192526 1.5624445408478316 8.201089644021806 -0.5166097013146458 0.24145435475888735 -1.5371913605752685
Ni 4.152967174261497 8.060075737108262 5.935889466830636 0.44791239594824794 -0.9057608200632853 -0.28880841856281875
Ni 3.6283050637042478 8.93967099908258 8.212320268165108 -0.384513362866312 -2.94111113144718 -1.0467526612290359
Ni 7.790441036596264 8.064027646286371 12.704150727643718 0.23896604111939487 0.26152001516051093 -1.235374445567924
Ni 7.170896172033764 1.3425041749072861 0.29009968065770086 0.18490834004304282 -2.174950157298125 -0.11407984726625514
Ni 9.225981278976972 3.3481719502588145 3.2599160308730246 -1.0142333484450918 -0.5592509330239401 -0.2051336659509822
Ni 4.866434515832696 8.37743805103532 1.6137408759856444 -2.685529336147975 -0.01779717608242096 -0.40785409447478144
Ni 0.550273806067152 1.9819193865522389 10.586254271693493 1.9234211919120554 0.601135746183184 -0.2177097028437799
Ni 7.264717081283214 0.42289213913155244 9.03456944992335 0.892453818541734 0.9851621421107484 -0.29337366933599796
Ni 8.048755548668165 0.9401758136508885 11.490439088182349 -1.4497399145298193 -0.5650258878345044 -0.021779814879252814
P 2.4408394565764624 0.4707148569029994 9.713083632163402 -0.33364511526153506 1.077760165354144 0.8083862013668529
P 8.04785067226757 5.610326018015737 7.693325638574036 -0.6188462760890696 0.5385018734020468 -0.06702094610523941
P 7.000954843942424 4.82987012250253 0.011201077158794112 -0.1653353030071217 2.1259367035139003 -0.2602254647188034
P 0.7433097959255162 8.810550676777265 6.168291273487947 0.9986457784194802 -0.17485147002767307 0.7294075686791051
P 1.2401146401501615 2.2404370341426416 1.9006042384963193 -1.6357412305267247 1.0740048120767696 -0.7518126758471827
P 6.827772580987727 8.146943871565384 10.531913673807965 0.7759561058626057 -0.6716690763170562 1.2329403822051348
P 0.6588912911528618 2.9827311524756532 8.560712455886447 -0.592530006792044 -0.2824467380108491 -0.3313457777043971
P 3.402279865641334 8.784143059372145 13.187089726044146 -0.964936301982177 0.5971605635855199 1.1912671708360645
