# total energy = -340863.09751691984 ev
CRYSTAL
PRIMVEC
9.30113130703189 0.00000000000000 0.00000000000000

0.00000000000000 9.30113130703189 0.00000000000000

0.00000000000000 0.00000000000000 13.61314584060374

PRIMCOORD
 96 1
Ni 1.818250265732861 3.7603916011509786 10.401219878750686 -2.717739345221616 1.6076318738850184 1.064342349286341
Ni 1.7716795010245971 1.1042210136609572 9.730322763124086 -0.3210652217139955 -0.007445914755083951 0.4369718377763442
Ni 2.722338835969069 7.424051436181337 11.498847320392134 0.6239144346405964 1.4596983112941118 1.0014554799541333
Ni 8.70118978291426 1.3484129163273775 5.74606781200219 -0.058909115631382424 -1.2733336984205168 -1.8424209008085881
Ni 3.17601081907478 1.3670895880937437 7.616759716556329 -0.7963048447222867 -1.37699286457408 2.4535515534209553
Ni 8.971768995242623 3.790759795034039 5.931670028019859 -0.918885016150069 0.7113337418965298 -0.14364007742187518
Ni 7.743117446277661 4.454060676680763 3.97311870654726 -1.0782425043072013 0.5180258649358821 -0.5858603080813523
Ni 3.5758199504877486 1.3997272580280955 3.4022654899177756 -0.11205176109263283 0.2786425337734105 1.4401018772194232
Ni 2.6442744404834566 6.723573932497677 2.354706968488243 -0.8414567586685766 -0.6434895285590465 1.460464242925859
Ni 6.152065916220607 5.914868464335216 10.989838256273478 -0.24820941409453381 1.3403590154011302 -0.07714286503058972
Ni 7.854517096549456 1.4610775204638273 7.7840647469670285 -0.14612067775188384 -0.25815315557080704 1.2927943782482898
Ni -0.05152547738253864 8.195477969861928 3.4553702994048603 -0.2619046521934393 0.9063254343175037 -0.6600363771741342
Ni 6.6828349771507245 3.6975438565666483 11.644385843199421 4.602169500582455 -0.17625040725772873 1.8163283174865943
Ni 4.1182526301404865 8.517557546518164 2.3661008544014894 -1.3005457400589342 -0.9052849088681313 1.72740285799878
Ni 2.1614620128339093 2.6177290115884326 1.9660238504054173 -0.2093865276900652 0.7180296658594666 -1.306465447977479
Ni 4.609287257910286 5.759725593287913 6.360606582392765 -0.7968077525006342 -0.47176529130644557 -0.5112407236932485
Ni 0.8566686122349809 3.5473119828762383 3.5736546471076633 0.45558816732595087 1.1869266344791816 2.6156863472129084
Ni 6.4926082386219806 4.660331866801629 0.48430711945873817 1.3161438516075077 -0.14267462818481236 -0.8002530307367572
Ni 7.560768766008933 6.538313998113973 4.779071969940962 0.04035989187428533 -1.4278132896600573 0.890036467349493
Ni 2.7405318489048316 6.443219231112317 7.597278496927517 -0.8806588827893349 1.1354338659165284 0.796203800368048
Ni 5.360995393112444 1.784682482662734 8.411548831981321 0.3504156498516546 -0.6965393571961745 -0.9344175645680295
Ni 0.013481989903061493 8.041246609687684 6.113228112123178 0.08799831968785489 0.10152386497811547 -1.6597453067508061
Ni 0.649761224729245 1.1310361753653562 0.25557183688262997 -0.15161358254565502 1.4823116778182537 0.14955464313409728
Ni 2.8182521025302076 4.229029104611312 8.102095541143234 0.9916037839710341 -1.9507782437687695 -0.0991759335712292
P 6.556200073714931 1.107150870038649 11.092590644721971 -0.03734733030020665 0.9781612853128832 0.6178168063832908
P 3.8771766064789124 6.338795429358836 4.321914852915502 0.3208564481372991 -0.4408302922904859 -0.6311888568148226
P 1.8481441019166758 0.048783503858273354 2.1509312719106624 0.5759425347470081 -0.11912795121312386 -0.5748223050996358
P 1.145480832363945 5.079226919760705 2.234624712093986 -0.3235869596945847 1.0403994653174984 -1.1587828250551142
P 5.961615950539277 4.9915451544511775 2.5479993599125015 1.4145556533192025 0.09703754707198771 1.0166450432103782
P 2.373499904396581 8.257637430725785 9.01662649155479 0.8960361365763536 -0.19695395835366725 0.1553257412899196
P 1.5394953589410343 5.518314728897461 11.835337139860934 0.7248582587455259 -0.3144145491666972 1.5817228673287405
P 8.947065190356435 5.953616977571611 6.565511436317176 0.3621432227012279 -1.4001821582063498 -0.16929223077234068
Ni 5.657989818496821 2.7532278932081633 1.8075939595362847 2.641492766753051 -2.892538621855115 1.0542381709728037
Ni 8.164095952660873 9.093818440919046 12.175039570100703 -0.8169096654568317 1.1774451773513077 0.6365046126007813
Ni 7.218217399234286 7.0768495037278125 13.393647757425565 -0.21063068450981143 0.39630109952985937 -0.12244364584991815
Ni 4.170236653298962 0.28777142353003154 9.875371116308822 0.044585757030174825 0.1607535971737102 -0.7483285739533241
Ni 6.642588981765731 4.781655824232146 6.539237600457798 0.8323170011508375 -2.8849003885835667 -0.9844448043287497
Ni 2.261300356828019 1.931017182314246 12.050492770654726 -0.6957443720987051 1.1512525781163399 -0.14796081628441615
Ni 4.2339121985741315 4.172003868256935 1.4868007293468264 -3.2124057094959517 3.0429954650885076 0.47347713179122974
Ni 4.816739691713587 4.490874554594746 12.35162898983271 -2.7601808022152787 1.0143724451261174 2.4208525205260374
Ni 4.3622585101797515 7.99952173441681 7.196548553510131 -0.12214668343478961 1.5816467626751662 0.07125529590156116
Ni 8.1540507307945 6.416655199954578 9.655518414179365 -0.2719550944509058 -0.3712315581557413 0.37663318878728685
Ni 1.7706935811006752 4.916903575305217 6.1274402408378235 0.003502099615987517 -0.10653751614262297 -0.9386285173255835
Ni 0.4655151136635361 7.2888129862396225 8.188470497496997 0.012860400902435915 -0.8597051633558034 1.2180043297205927
Ni 0.5015067715654932 6.117261082679899 4.276623923882065 0.626772730024998 -1.658044007788983 -0.5789298995101062
Ni 1.9425970908546475 6.153070438407244 9.90574210053129 -0.4675036878166142 -0.42168457259997055 -2.585449659815554
Ni 3.765293297376514 0.31600314754021613 12.122329128583187 0.8102412522977207 -0.05098857523272509 0.6547195929469112
Ni 0.5352801096386264 4.84419663148167 8.334757761378585 -0.740224456788951 -0.49267067400054504 -0.3485801393048126
Ni 4.616570043763406 7.297518845190478 9.523797652117153 -0.07421566408146572 -0.9503558330648408 -0.007029396042955635
Ni 7.665806442432026 1.237124879631875 1.9089167640950917 0.03862979655705605 -0.5312557333625948 -0.09573836864458996
Ni 0.9599139606454353 0.10983147952487847 7.621700477533566 1.0717039318577348 1.4302077580341626 -0.6087901774046482
Ni 8.889835329112186 2.019722072073127 11.513086422387717 0.1609114629078132 -1.7182846977475956 -0.268366348658383
Ni 8.476967409272934 3.624195134679417 1.9066844925692312 0.09619808188982787 -0.31720111077289886 -2.4564036781577694
Ni 3.1306678037057387 3.745044734410688 4.325223265339455 0.3305484786140823 0.352559949888167 -0.003137517187717177
Ni 5.029047316085633 2.763933495400936 10.855789421032421 -1.9711904888765341 -3.096700153700815 -2.1350072983566006
Ni 0.6979280635784995 8.170039375598476 0.397611274073132 -1.8225946101112804 -0.41280089695709554 -0.351372357337969
P 8.049226980392636 2.5049248904816164 -0.1508159847396768 -0.4396501559394557 0.5795778175067503 1.2189417539331975
P 5.5178217689355 0.6832118135442643 2.686077445257737 0.529460589135385 0.7765433458246433 -0.7618034685113073
P 6.389672617885739 2.4312692312595785 6.34847697698912 0.37795602136376844 -0.13888353657349628 1.0270130167082636
P 3.4802229223927736 2.8584515922584117 6.301729490785059 -0.537942401354151 2.808016947861951 -1.2935471972539143
P 5.95829544664456 5.350113069423874 8.64449752706249 -0.40079333097325814 -0.11891017877536295 1.290329461647565
P 4.579281808150179 7.699216106269071 12.53655036303499 -0.030820842035598532 -3.6613246923318425 -2.3851308987547117
P 1.0986124314522328 9.372750069206669 11.881717231376365 0.0522162769922391 -0.24350018154432257 -0.13456536881411663
P 8.375110719774192 2.4635534582023357 3.802641990343567 -0.6338599758890825 -1.8553599774677594 0.3038342025476896
Ni 6.970128322528966 3.2873918670838593 9.102239685250355 -0.2431656810230393 1.7182731277833698 0.5436366235254508
Ni 0.18028568933357816 7.310884570951568 11.675791113228872 0.7252215556222156 -0.3810547148937502 -1.0709400571085168
Ni 5.537986621719106 7.719529777154402 5.1519357238105234 -1.1172142575847082 0.4842361700799467 0.6428266981640671
Ni 5.481138106860525 1.9609296207607763 13.041189755641776 0.8692056466470707 -0.18784402563259908 0.4159134744441482
Ni 5.234044251210487 8.754206231653447 0.3764363184240738 3.166553427048527 3.2229755145919974 0.9521887725085213
Ni 0.8449008208411531 3.768688210322093 13.057035163022842 0.22985353729516544 -1.1953143443222447 0.08395114620167476
Ni 6.361173951405587 7.688975560644186 3.0144678395402074 1.749560882153058 1.326178095915058 -0.3540697016644741
Ni 0.30675410251806756 5.906767178922615 0.12660700004171996 0.9756140934109973 -0.6024058711448593 -0.8633540729623002
Ni 8.363614521416011 6.145666737846474 1.8792945209469232 -1.4323579716079462 0.4173831170111392 2.627819383031016
Ni 4.3909897049438475 0.9666107752230166 5.712048924061212 0.9832836941411129 -0.4266678847471749 -0.6657799645261309
Ni 1.0451216250138011 1.2127280120804917 3.8333124709957542 -0.4587130861081777 0.08448850676238352 -0.7189727464990262
Ni 4.17764965499109 4.858036714942005 10.083148159596508 -0.24018757223132187 0.1858550202270283 -1.089475654018859
Ni 6.640319505714439 1.1368028768071623 4.420529168022932 0.056299703032993365 -0.2612492779976275 0.362099513947486
Ni 5.56987090001348 3.3640238883403777 4.5706140838378895 -0.5246443986936642 0.5444020409365656 -0.47320613751803026
Ni 2.787186323795316 8.176364144921747 0.3430964130722119 2.1858408360687 1.8096064253817288 0.35382801796731317
Ni 3.1728298321504282 6.0178226873341725 13.822243890390775 -0.14399668943034555 -1.9487385876309211 -1.9173803850346143
Ni 8.769962348173479 4.094069688610331 10.773117245072179 0.5982717943718278 2.4684426116001745 0.330719714084624
Ni 7.03391548138043 6.759894850449699 7.3905766644247874 0.21503755532825547 2.5680903426014994 0.38495842082353054
Ni 2.3091267742695796 7.340062220020837 5.2473234764499495 0.029945124298864558 0.957864225626744 0.6387556134184871
Ni 8.941010153842537 0.10037408916031626 9.510974182314222 -0.862504066257179 -0.3843899499145702 1.2136226557131293
Ni 1.1965812480434346 2.321162438246511 6.731659405986971 1.3118408533567794 0.5345189774948987 0.426406146445356
Ni 6.749821725189253 8.516069365500924 10.25120286119464 -0.6710342709465347 -1.0115953966016127 -0.969505409410098
Ni 3.789941295474557 1.1715798069537968 1.0719563190940513 -0.48838181681720405 0.6852897524242842 -1.4574395971669223
Ni 5.2930971342008535 6.751040173397119 1.3268287108985786 -0.951068285750833 -3.063179139125234 -0.8100165378814242
P 3.2484480300889516 3.116520782910598 13.588560405932345 -0.435001858534167 -0.37809897469953596 -0.6955559102369828
P 3.266157384194112 2.6786235185876346 9.727844941730382 3.0698982030166224 -2.1932900932578936 -1.9610199761014355
P -0.18685228807215107 2.908798616297923 9.196007180807259 0.9398621326223685 -2.487002633990549 -2.342241041369721
P 8.100578526618785 5.65994305608195 11.969848241330471 -1.4713055565157371 0.7387959518725405 0.6394783505171245
P 7.593155305396626 8.528393364549943 5.051375612023053 -0.7762528111674178 2.7602581924204332 -0.7650394589501017
P 6.16132054192157 8.741054431913586 8.062957310502949 0.10383065873442118 1.1177760436254491 1.1376097905219247
P 8.18330278891463 8.370143915629152 1.366582676434746 -1.7952162180983278 0.05584487488376189 0.677249398618311
P 2.1330470565359767 0.3668208088264299 5.420741210388963 0.41854679830193725 -0.6080540705695722 1.5708681840024237
