# total energy = -340855.0198759878 ev
CRYSTAL
PRIMVEC
9.41130400817574 0.00000000000000 0.00000000000000

0.00000000000000 9.41130400817574 0.00000000000000

0.00000000000000 0.00000000000000 13.77439472514967

PRIMCOORD
 96 1
Ni 9.390053211535266 2.425038919055153 4.358121688603458 -0.4742551476078349 -0.2568658042179512 2.043553673130294
Ni 2.091285847579085 9.079442536437385 10.159387780812214 -0.7163291382285921 -0.42069341233129487 0.6829312794944368
Ni 3.589932475015501 0.9655527272956944 4.154233317877015 0.6060650651640014 0.4746289860074859 0.8290434726058883
Ni 3.8177801433017597 8.412265789123003 1.8745294009811926 -0.0026973443265050317 1.535288744235917 -0.588501088138309
Ni 6.008750522169075 9.508146253321964 1.4769460428211965 0.6532782325146943 -0.3572784384097589 0.6288177854794847
Ni 4.549989000812674 4.044630213370822 3.1338672741983045 0.38370192270861014 -0.8796474108056851 1.4478722651934612
Ni 5.46480538859035 2.3160936646940735 11.397085301759295 1.2612047763674668 0.2405485551151664 0.979262745907178
Ni 1.5421174403159792 9.38729569948207 5.293403897919974 -1.0314137168791204 1.13923986992618 -0.44065957104057657
Ni 9.176510725231457 7.801669801070785 2.7163103056953126 -1.3306577289529662 2.901170329388184 0.4968479453066863
Ni 1.0206559118399343 3.7528139122327784 6.301358313968121 -1.3670810047770068 -0.6320509477048017 -2.1059011250192636
Ni 7.763384616659859 2.858852973976884 5.8722037956250155 -1.6506723979152602 0.2094438632905619 -0.4531042245618325
Ni 0.0397542889553072 4.643838523660695 4.2068236842703906 -0.42098986052579107 0.6684497980488101 -1.3587976817222922
Ni 3.7417650414121226 4.491629505106641 10.523761470773874 -0.2770782746100841 0.4300123757393756 -1.9638546173367535
Ni 9.071969961112343 1.1093480401311242 7.2693542157655555 0.3341256544423794 -1.4114729006288207 -0.8106703694153393
Ni 6.7872159385245565 4.739758533374596 -0.277382184291673 -0.6518877799250709 -0.6765184339895575 0.5933861841447522
Ni 1.4275442262012779 2.000203248088196 2.9044968569352294 1.1383500111220588 -1.6905949451418107 -1.7627285298832673
Ni 8.719497806107924 2.1402058054374895 1.433680396367434 -0.7944014570519867 -0.62916411307531 0.797605308701265
Ni 2.4978259436948034 5.28821168153858 12.478362245641042 -1.1051632399574451 -2.4439659666150493 0.6500301578910418
Ni 4.053768589492505 0.02706314559785076 8.36758656481808 0.8118019119166213 0.21472465207352698 1.2080186792627905
Ni 3.5194323972322556 1.6541590136719442 10.52511105175827 -1.2367055056745218 0.655351055883323 -2.7819742439412862
Ni 6.727698852434417 7.500997462929131 5.8749443673311275 -1.3060023922981314 -0.1235584761806517 -1.260357854986139
Ni 6.887286333274156 4.1738003598899835 10.223837331295117 -1.8552648466507917 -0.694402770469146 -1.292735499985896
Ni 1.3265985801856472 4.916022844788613 7.985705026144609 0.10209285010770805 1.2561294187270884 2.690274307032128
Ni 7.046290313269875 6.793766206063889 3.1641020292225277 0.0078002127707091475 1.0174120032833898 0.08500478427716972
P 0.8544136979871746 6.382106360607083 5.258471961101382 1.7558816821647631 -0.3604462946147792 0.19189685554573402
P 7.255362430204169 0.21345872569878035 6.3407803838944945 -0.41282120867206973 -0.4287805602148035 -0.04834291007976191
P 9.416480152987056 9.238023007755992 9.15760341562439 -0.28006538226286604 0.37270994247348066 0.8561580694344934
P 3.7078184681156117 7.306155237545802 8.139151631166225 0.6971193980693607 -0.40155360617805036 -1.5364305711498443
P 5.267685627654552 1.883578369715486 8.456513975707665 -1.998364221077849 2.4284167060265403 -1.2481589989271018
P 1.4971878753263632 4.6434244262875195 0.5566823923254665 -0.17202274232962633 -0.20410985267215814 -1.6950527238028483
P 5.2352354516838355 8.050147047584366 3.657928204821424 0.9187492619031532 2.1835782652867683 1.511606827237945
P -0.19381074647196406 0.5025344551307126 3.586824862455892 1.448213964803596 -1.0022856891649126 -1.0102972466154794
Ni 4.602955819363483 4.56085905685855 12.461102855353138 2.9946024184971005 1.1202705279125287 1.5001682463837
Ni 6.508340180298269 0.6512387040990673 13.009639764122149 0.23370376427919107 0.1046402991199101 -0.495465720247179
Ni 9.101474398951146 3.6808174371237374 13.496207000995346 -0.39614297668544035 0.7291442877153894 -0.24173229101062235
Ni 7.577379605672266 8.182027649637044 10.799649140000536 -0.2446908594183141 1.685174288346872 0.5008768639604213
Ni 7.182377768181866 2.6221492686870165 3.2299444526879344 -1.0777750777524795 0.4736740782933842 0.14410390443217116
Ni 2.739479994854914 3.350659483751153 4.815679522224876 -1.2185738290708175 -2.3429015577718553 -0.38635992915674755
Ni 5.638829809667642 7.5451458896920744 12.719028109887892 0.502733971773818 0.8723148817000137 0.7873633192582827
Ni 7.170124250457425 1.2123077051890208 8.723599252363154 1.2980278587330871 -1.0001835552202452 -0.1615984616725088
Ni 8.752503249010854 2.48062208010012 9.955953034935478 2.39122569879854 0.0007391921588696947 -2.5708064559810824
Ni 6.6028014379021185 8.119282486296918 8.060858052593726 -0.728707714398603 0.3222978085695159 1.4737352490031521
Ni 2.209952978905869 4.062059948259965 2.391758666077298 0.2264681657627003 -1.3030435667801237 -1.0428080747589912
Ni 1.5240853819749436 1.395056405014819 8.737222114810258 0.5286846302013088 1.8135001040091798 0.3595194119251357
Ni 7.218432473560002 0.0849285478472545 3.702185802710022 -1.59711400507283 -0.9165224294551635 0.5537983945498011
Ni 8.288723602357463 5.715136661979289 5.945097167999141 1.7742905236892539 -1.2931026535173278 -1.8265386823606928
Ni 0.41361174989309507 6.346973963014658 13.035039932314541 -0.46772557401943315 0.1113076838377567 0.9057356232523046
Ni 4.36619564625 8.958149651312507 6.046284684525923 0.3314193112548099 -1.1285296825975273 -0.5943164092685055
Ni 4.200650810018884 3.9907222644264313 0.878932027000779 0.29541306836353 0.015534605300489375 -0.2796684039347635
Ni 8.833139301132979 1.2994563796347356 12.813727473481316 -1.5281832435393874 1.8853351836736112 1.469405768389863
Ni 1.4181423335693915 2.215251543021737 0.27810873695551847 1.6481910262543036 -0.3932628269241679 0.4374636898110982
Ni 4.189121962697502 7.833310604903019 10.396334297743625 2.294387155111236 -1.4991436617739278 -3.099424494610514
Ni 6.129281091675152 3.885974451620729 7.691828590575015 1.028801476067254 0.1915710967751991 0.4251661033906677
Ni 3.830334822752147 4.247961434904264 8.10663087041599 -0.15982671448406668 -1.8626220583468114 1.7795823682158125
Ni 0.3022261444214568 5.821474985150146 2.026378907724899 0.35006032339476484 -2.0678174307736645 -1.0611819492804886
Ni 7.890399574577718 6.277678532135199 9.709956608139379 0.2584704297009097 -0.8017530123210515 -0.6703416157548843
P 7.257282336207076 5.871787815991053 7.566246974246582 -2.641720052272509 1.3684215779653013 3.8406876770766245
P 3.293363465389867 1.3059031228307738 2.126326014392939 0.21622283388560828 0.2152617555239196 -1.3264632312556446
P 1.7217509985390205 1.7809669229032146 6.520687811062068 0.7757555598160253 -0.643642509197143 -0.4514304364038354
P 8.758262967019576 3.184098226694969 7.687145525736549 -0.2522360187554237 1.2310146259373314 1.3802188277105456
P 2.208108363334448 3.2393519921021823 9.79742432578852 -0.16503525526819965 -0.42403070423464395 -0.9098907830712589
P 1.7917428659097312 7.482419548959819 2.26324354631207 0.8713923698857444 0.1345265451563812 -0.4273494841952318
P 8.11411568043615 8.648950671805 -0.13026279890611078 -0.8104325423729205 0.16184503046567608 -0.08243213845398707
P 2.2920383718341117 0.2250694513644044 12.971002596944025 0.04093093388640692 0.5074149221892551 0.06660108495900142
Ni 4.803934214912969 6.1576938182574 5.19316692309071 0.40603349632627495 1.3846557804359765 -0.9311923727625124
Ni 2.654044177725518 7.288960785255054 11.822687052866627 -1.727421369941541 2.514169424213328 -2.1003758243256603
Ni 6.518259694646626 4.93977697592263 4.409748337473805 0.9783731442133731 -1.9366196928802002 0.060727399787043806
Ni 4.389610970442326 1.335840480650625 0.2144478537424353 -1.1384705958603232 0.5143134490813014 0.10826992545269741
Ni 0.7914332520486513 4.62152432202886 10.444365828510488 0.08748101373180417 -0.3944583898941658 -0.04687172485087412
Ni 2.9056647997536653 8.033931370902945 4.112221257107505 0.1774598541847976 -1.374701240326426 0.20693549504641137
Ni 5.252015806601408 6.032730524597551 9.259533484031708 0.9724344101314351 -0.725266549927538 -0.6709571378516961
Ni 4.341218045604328 6.401474824107006 2.8935458636755067 0.24241594734120828 -2.3489444215318254 -2.159127074222939
Ni 8.833581632417962 7.925569617385886 5.10403340464493 0.8762772087818715 1.5793512817727704 -0.08173485527664633
Ni 2.2101976728082007 6.699097899773452 9.508740106600314 -0.2748303591161718 -0.7108138648373177 -0.4000140296050724
Ni 1.2035363699208341 1.9370628099827643 11.580147398006156 0.4538141061446636 -0.4301247329475238 -1.1898173257634155
Ni 8.29938660971675 4.9566796777913655 11.73749216511799 -0.02406809669279726 1.097173536883749 0.575290502985306
Ni 2.5294855701349097 5.352368540469081 4.025966656535693 -0.41532366337894927 3.801235384618273 1.8797476622835045
Ni 2.0120050232237174 8.877890051347814 7.520626619548077 -0.8595326423336811 -1.398114991264676 -0.17828800651304777
Ni 2.714295345522653 7.1405351108832 0.10561647615897919 -0.5692113866707617 0.6719565256504879 3.49100916250131
Ni 3.272131563710652 5.48837129364565 6.503305132692605 -2.6800677988127717 1.6801904619790353 -0.0957396541961706
Ni 4.684608292310678 3.736551179031677 5.704183786458779 1.9937074390321274 2.4238738238508644 0.111312311823447
Ni 0.514950788413243 -0.07104216888994862 0.9433646371365996 0.690779571894262 0.10451380084437485 0.2878915631755042
Ni 4.193780558145734 -0.03216971911342797 11.811419839794661 0.3084922701449913 1.3858310316910003 3.123832234030917
Ni 3.063068858080294 2.9728332759436293 12.372134034726235 0.19876452919984477 -0.6090809691721897 0.9381731749557198
Ni 7.685920173964105 6.740432346659584 0.6522108917956377 0.08819218086621586 -0.24656365096099475 0.8449490880925513
Ni 3.9517029983085123 1.9057608130922192 6.679410393070106 -0.7358790353360617 -1.0839284989483848 0.441244239899453
Ni 8.997790063490191 7.542143683736547 7.983157386169183 0.3013461460185133 -0.35054060546529303 -1.1262748251250798
Ni 0.35733497574805817 8.906491004008778 12.237379220451556 1.565438271236104 -3.081392833919784 -1.783111978635626
P 5.971858210740652 5.940697383409144 11.464786457752027 1.0542458842822875 -0.9357799921331948 -1.8141387660344435
P 7.722558380186262 2.6773559775745506 11.626566772408813 -1.8045022713859438 0.7200279272364181 2.557159297511293
P 6.28855799948501 2.3914687979160747 1.0508332579101487 -0.12229889274193775 -0.31175268606381795 -0.014965105950264547
P 5.604318558134982 2.0907117580390002 4.8723205138322285 0.5479257378191079 -0.8206557627628254 -1.0250656631739057
P 4.677794508261142 6.3718009827973585 0.5045936484318706 0.015450787337431455 -1.3000667435399869 1.0807904675400353
P 0.5682902945999099 6.680990551000931 10.909472469018828 -1.4136776215896234 0.9750052561824046 0.5775484457815472
P 5.541545160883046 0.38905765792453456 10.026271474552761 0.7061545116884355 -1.3181259150345428 1.8504394002376907
P 7.697778416923241 4.797958036913722 2.447516877375471 0.2933687842399915 0.14348658256314642 0.1509931753528367
