# total energy = -340853.78060262656 ev
CRYSTAL
PRIMVEC
9.47197584957901 0.00000000000000 0.00000000000000

0.00000000000000 9.47197584957901 0.00000000000000

0.00000000000000 0.00000000000000 13.86319409784997

PRIMCOORD
 96 1
Ni 6.639002481082363 6.158545986168006 5.379058271513571 2.9392902761883573 1.103223599732571 1.2929525010927088
Ni 1.2256357664209863 7.282282238112834 2.112002413171966 -0.3340251243087731 0.3077862452169022 1.7440391810038802
Ni 4.198396392867659 1.1327725167533662 13.312659132425226 2.579771892704486 2.5645167663176287 0.8013084685844651
Ni 4.1706624480464844 6.925169810637456 2.8124815370009704 -0.5513653596282763 -0.5046098486402922 -0.6998103146379625
Ni 8.222271633641693 7.131753600442718 8.427019754558177 0.15608987314945377 -0.8209545249501669 -0.9694994958728271
Ni 2.6741281768831557 5.6852597768512 7.707062459919656 -1.583621369903034 -2.075944430756173 -0.49338389801748583
Ni 4.215171261815166 8.647497038305959 4.449821462788331 -0.3599667838751994 1.0395198909260224 -0.3963738617493238
Ni 8.184686834102616 2.1100436085992134 6.592974362412959 -1.1611613525896196 -1.443734588876004 1.138252566312246
Ni 5.206243022241768 5.2260394514344775 7.492252259227375 -0.8300328331023512 -0.8254565265855783 -1.2014330556254729
Ni 1.5759283713993542 4.813705405684699 2.504677373376544 -0.8807897519402444 0.5410907171751456 -1.8852194840313532
Ni 6.891345385447424 7.54321622442899 2.273618945585137 -0.544556564236559 -0.7605400284178515 0.22992887061779113
Ni 3.4461131395933107 3.2951109031386805 5.362713430262404 0.5021644724235932 0.7172069128478551 -0.15892631415698436
Ni 3.32950364687013 0.18637722406516288 2.6043396071946554 -0.08039582475024865 -0.45273501414787193 0.19637108926700375
Ni 7.060022328540139 3.2514640391578165 1.4890457271825843 1.038218912726412 -0.36151947307429994 0.2953498192257623
Ni 6.307966402682358 8.265909025646867 6.693870794663516 1.1746689001577513 -0.592188050071593 0.47248751418445073
Ni 4.473585702597704 7.148187478265374 6.109745420214055 -0.5996722742637802 -4.932945264715995 -1.5999784711048188
Ni 0.7995484119689039 4.053427804927744 11.717628627651262 -0.7153060962807165 0.21728109994679354 -0.5542758484068518
Ni 2.8674417287463196 9.101858240193563 0.20125864507218022 -0.24835442431283034 -2.3247032895962736 1.3332897672591748
Ni 1.7112071282081003 8.79431266150548 7.219160992112729 -1.1370806574913321 -0.4045047183865743 -0.1997145518179399
Ni 7.258498107154511 8.346060883938115 13.79875808325829 0.46750265937534974 1.4264179519744273 0.2709654768441269
Ni 2.7263187629366628 4.059849804445762 9.896587310931245 -1.5911184496110276 0.6376554383757728 -2.269308871986369
Ni 7.476012556906371 0.2726157739349928 12.001367342639364 -0.6060907761956142 1.0806279738202422 -1.808548159320543
Ni 0.12874119918730687 6.228392334908217 13.35276537189306 0.5591763710322628 -0.35797777846962864 0.25755923074055
Ni 5.218149295684464 1.3324133483776446 5.418429485667837 -0.9682401695444293 -1.7808010711142621 -0.3354441161434868
P 1.7580271040452122 7.696681174563096 9.718306731686143 1.456983740576426 0.8617227080064642 -0.6726556086000416
P 2.317148357067442 7.277830409538397 4.283754996195861 0.07868629825830964 0.22281797060462272 -0.21893689038266165
P 4.151244897881386 5.01574264715862 0.870825029038349 0.008399022696972631 -0.1579922323784892 1.0498873502032757
P 0.21489355407835511 1.0426656120116211 12.215705838942267 -2.6393132426032286 0.5255221733129272 -1.619730199810449
P 6.072767774316724 6.6976813704837195 8.659727253317264 -0.4285093088312879 -0.8527055921095186 -0.01026770047459522
P 4.98679628944909 5.476004889901275 4.646401899067076 -3.065959530083849 -0.8060642381018958 -0.33174224181186734
P 7.020183198786771 1.1293531335291709 9.687613741659323 -1.4355983329221147 2.1810858378822178 3.9489696867141797
P 9.07617024212149 5.38980991111962 2.943419287350856 0.254636143556484 -0.6933938695886575 1.320017475630301
Ni 7.673133842997031 4.470384174814385 7.135538601928559 1.2649619294170535 0.5913483277791171 -1.749512802523942
Ni 7.875095308665431 7.027599755752271 11.508225030682999 0.7888707570417447 0.115771118925749 -0.4320965119619139
Ni 1.3892641464707753 0.2886063632953433 9.904711424480809 -0.6679867423694625 0.7975621141681554 -1.1510461185324887
Ni 9.251193408926701 6.530614663258355 4.951253647868839 -0.9161704454323835 1.2010599885567703 -1.4227734132433043
Ni 8.76149226573862 2.425611950696972 10.345880058626973 -1.7973314646691174 -1.5091642792347233 1.8332934845860234
Ni 8.355011900965442 0.026716654632036797 8.789819156238005 3.743830107225927 -0.5316138880329618 -1.9990445349743247
Ni 8.513553830069544 8.520676755788644 6.308127426269093 1.9338845533372244 -0.816672095524729 1.1858436858276482
Ni 3.999030248538399 5.923195806191328 9.684369589985398 1.536070102486632 0.5175545817264183 -1.1652946580317027
Ni 2.92623428185596 2.428889254285813 11.366584895000654 -0.3417716010234114 0.03191896019578374 0.2327614549705798
Ni 0.7180591107101861 5.99176343821335 9.225733685468766 -0.6233387646427846 -1.4406392377801318 -0.20643464415059284
Ni 6.265048880829646 0.5048941921953093 3.253871815378288 -0.41112736590941457 -0.24149472107851958 -1.0399904028045381
Ni 6.668185638184152 8.271639570939493 9.839373736169176 -0.9849029749120909 0.9710434433211792 1.3720185512879404
Ni 9.379462903724631 8.471138322928418 12.533630808591772 0.32639023347133467 -0.7930770818136084 0.6541904599163185
Ni 6.232143237281573 5.464164920288411 11.117920905993701 -0.0665216378713177 -1.0190847630001223 -0.41169892214216836
Ni 4.754742357012633 2.696538871366386 8.145041879850899 0.5779968461728756 1.5086145773788406 0.4504189644201856
Ni 5.916802222600381 2.80610121417599 11.271136743167153 0.5462640338459689 -1.7129907963385078 -1.7446161365532729
Ni 4.120773552085718 6.338125173280247 11.849204789162672 -0.5523202673423778 -0.710450310850312 2.096749797537299
Ni 3.4749079456917977 7.632072828379617 8.003305130016512 0.8451100391504477 1.8603726001910026 2.60322858106553
Ni 3.3247866029763644 0.9154588728861416 8.259178239721345 -0.44550018696232957 -0.8843119061608901 -0.030007602105683803
Ni 2.2497647220067067 4.717072309692343 13.460592448756204 0.6499134298075193 0.9043084038874749 0.5876366832554847
Ni 6.450699604359364 6.456818500655292 13.208809338154438 -1.4159404494818713 -2.1372392730109127 0.9824743108659401
Ni 8.826564738730925 8.721965711183033 2.948077604995342 -0.5013275783445947 0.01741768125581516 -0.16920558459580534
Ni 8.049483853099392 0.6104290509414015 4.881106090301676 -0.348129167810323 1.2178467210968058 -1.5567762246857317
Ni 1.010934493449144 9.176582656414272 4.515214088558967 1.1241505796932252 -1.0613115328798173 1.239599025172233
P 6.511860151391577 1.2811794318688567 0.7363741229049343 -0.9902213018012109 -0.6938458695244115 -0.3478676866188202
P 4.131846291667669 1.9675566782901552 3.530483815857015 0.15847765665533994 -0.02171450885895615 1.5761482014544406
P 6.127553681709371 2.7947443153233302 6.470091580190098 1.2714272254264232 2.061255461285431 1.1138204014118107
P 2.2907594327942893 7.098203862547705 0.37599291661883655 0.5083595454907116 -2.2138681745195616 -2.362964389960001
P 8.695207379857958 4.344738417282666 9.437577263374848 1.3759369125057401 0.2631848044574435 -0.26272123455746366
P 0.6330888583852864 1.0798904764744677 7.170764879520754 -0.8452522211552669 1.025948837109807 0.09513415940168776
P 9.103316924449867 8.254192191717976 0.896284752496284 0.4650254014794507 -0.47677508581621114 -0.1941540270110269
P 7.382903035870803 7.968346909336352 4.2957181014926995 -0.5165713918775426 0.26778476512330013 1.8001769045377127
Ni 6.66490833459531 4.249582949497995 9.073127843529768 -1.4047468947588968 -0.45191277535689267 1.802625108967889
Ni 5.3377140448230165 8.604750012015673 1.10071840381985 -1.833933175052551 1.6085019351947976 -0.3135992523542535
Ni 7.679366403001243 2.579910434691824 12.848089035138628 0.7431673414673589 0.4997232099719523 0.7359489693420487
Ni 0.9576167422884919 3.2324158960446394 4.097114451206508 1.2986027573999506 -0.13918101320925708 -0.3978224212703923
Ni 5.856730952772551 4.926545052083144 2.8344546262073096 0.7399267230428741 3.1374719363015386 -2.460490446632633
Ni 2.482121757665252 1.3051435303652947 5.821765154511839 -0.498818952990128 -1.0982971089652311 0.4378460128511814
Ni 0.8430835066366226 0.8660198957706641 2.521520440549021 1.3892899367738782 1.970948290958741 -0.6430215877836926
Ni 2.01804230871941 9.240679515910477 12.017558737884348 0.7760244972066958 -0.38659029999999867 -0.4913247014956119
Ni 4.808287435589852 3.003781346832378 1.7855375102400954 -1.3646394852150499 -0.6984111202975908 -0.9391206264706535
Ni 1.5874557658144393 2.101935597408324 13.17879548878461 0.7032355382694275 1.3452119726180574 1.9563292554939857
Ni 3.4994214187782724 4.486600197196165 3.442716489110772 1.0498302717130952 -0.13069688699764587 -0.6139436965811298
Ni 6.069130535651652 0.7017275302249852 7.981054511922449 -1.1277375257135351 0.1750417316616082 -1.7081236980541936
Ni 1.726750640315869 5.264315705198946 5.412634530940517 1.9132100557070082 -0.01093464463463278 -1.2506182591008719
Ni 1.0017940369080125 2.567587394318754 9.010188459462919 1.3894105215121426 0.19311067334817708 -1.9341946283784754
Ni 0.3900512229383675 3.396641010562917 6.2696844657324755 1.9006360756967398 1.039606537102558 1.2619995043546202
Ni 8.08710654054123 5.845307750090059 1.2251489068705053 -0.9244242008007434 -0.48423976962437243 -0.7759923584171797
Ni 1.6852254988896302 6.739632750816022 11.62981962421198 0.2750296196111715 -0.2037218732051201 0.5014206522790332
Ni 5.121866662792649 8.332478070798237 12.443810904713441 0.1898299457143763 1.2274410496534602 0.007306046743109998
Ni 6.13044263429491 3.11458451845741 3.8850075523762366 -0.7400588777453642 -3.405705358926483 1.3084907059376238
Ni 9.307419056624273 3.554046302584185 0.8805536952698475 0.925485295075406 0.8418887039996725 -0.44159699525318136
Ni 5.426570648773643 3.6867770979322425 13.363148551644757 -0.3571861358062687 1.0654862330827972 0.2956105290863167
Ni 8.726379651854709 1.0999142330837444 0.7736539248267844 -0.23747351573426842 -0.5004595739173446 -0.6407122229242256
Ni 7.942384223969263 4.219670450268054 4.484673597340759 1.8172382308953736 0.7590552163422088 0.30903400158107425
Ni 3.9516703700869407 8.296333011564084 10.27544076420855 -0.4186514422006016 0.29266892995948957 0.06361114909274206
P 2.6921438746460904 1.5454759695550664 1.1063826452826446 -0.5189105815336805 1.298307594757035 0.3814748331503043
P 0.32636071119927695 5.809257410612809 6.848362506962449 -1.1734237148967404 -0.33292932014143306 2.2234725303785448
P 4.304709848015493 9.078898171120295 6.595940985199158 -1.3534852683704433 3.6209056650848477 0.9631254740256832
P 8.733748848941756 2.222343352383312 3.4961592703505358 -1.2494072695119063 -0.7301609019053619 -0.9700728518777938
P 4.315470012399665 4.147655019094766 11.248637012112434 0.3607360579410561 1.364570065429695 0.7700543956661899
P 7.9751572598576725 4.7918819736942675 12.88249788122875 -0.07969622758006274 -0.2515243374003797 0.22045949767477518
P 2.94215667299134 3.5656494728047923 7.400422402107567 -0.846618248264858 -0.28290259460134504 1.089643289944975
P 3.910135756685011 0.663015565578763 11.335254441009875 1.510872520175082 -1.698716288697365 -1.2512368665214773
