# total energy = -381161.5513829591 ev
CRYSTAL
PRIMVEC
9.33238990642977 0.00000000000000 0.00000000000000

0.00000000000000 9.33238990642977 0.00000000000000

0.00000000000000 0.00000000000000 13.65889596049666

PRIMCOORD
 96 1
Ni 6.416624630962082 0.7077227179269925 11.596921317804805 -0.96774600351683 -0.7744201288340533 1.1371935289201125
Ni 4.782588494001876 8.01572963269334 12.077127836967826 0.001595112401261769 0.672316480093068 0.03181663028996456
Ni 6.5920362306851095 0.6483883164650306 9.265744459774702 -0.3158906194915915 1.906519273950394 -0.3658589809899183
Ni 4.047233502951884 8.305845636129696 3.4127299161137907 1.224107614404853 2.1480466480390623 0.3213213035888596
Ni 2.9146826672641084 1.6773850878387684 7.953547919086481 -0.6389265917787126 0.5268200661887443 0.1896124303869315
Ni 2.4254881234313053 0.1378748612464387 1.632675474519281 -0.24939032177651244 1.5064857039612958 0.6151408022130245
Ni 3.1564662236390917 4.800823983779425 0.5602205633056722 -0.30854086399473957 0.5011946523111562 0.3708476924537613
Ni 7.647417534658174 3.842536863862456 3.169574498430056 0.30333129476934206 -0.5712371588515388 0.9192459990339136
Ni 3.2700787377393334 7.266637363776126 10.260302846103858 -0.6890990988680454 -0.6897817267573669 1.799534128747391
Ni 1.0802427905479814 5.904649723492127 4.448347084850984 0.7760473800248312 0.5166392690010005 0.48096906929290073
Ni 3.480225492504343 7.4633174799797235 7.949600318177626 -1.1935865629978604 -0.787555894885063 -0.8634039523636291
Ni 6.21942190092658 4.804202308907097 7.935354425063283 0.14074090149720925 -0.22799488681987187 -0.2297452938520753
Ni 5.663855400441821 2.2242258038086824 2.7375977700399985 -1.796438520541203 0.8521036968594615 0.46755305299731087
Ni 2.5265392407861116 4.372663269601261 3.102276768704439 -0.7287149134874548 -0.8882567497412509 -0.06644836143122104
Ni 5.062718840292901 8.43047037025937 9.442490591247058 0.842459488901478 -0.5714477322004481 0.7393937333575396
Ni 4.822475128244068 0.7808867879157448 4.9109060547973495 0.8133844259123928 0.32259322832274767 0.04658478973807461
Ni 0.6799588581070304 1.5675988535792613 5.55105760397596 -0.6161324767023324 0.32343603593901715 0.3836062776710103
Ni 6.526588180628843 8.606507240102712 1.0307456612326489 2.0931168287704014 -0.22792443859325262 -1.3512581788121372
Ni 0.28897278567906365 4.987509110447834 2.432376360383612 -0.6550461230483945 0.6333552683385221 0.24862156193128795
Ni 4.560953567324808 0.20556548458496998 7.2900803270930155 0.23461907700460882 -1.1244915079724118 0.03442218623361168
Ni 2.9593754822818554 6.613164761317846 12.827629296753214 0.9111963892565599 -0.997909671584404 0.7325240028208997
Ni 4.24723594994402 3.2855518401196684 5.378204012312311 0.5674936326487064 -0.469780656776249 0.07585679922931451
Ni 1.612403657275274 0.1398813250653603 4.019881201524547 0.1392190655360441 -0.8569728520263048 0.019430597920785893
Ni 7.350722196373726 6.796368906570175 5.113426380572486 -0.2802741558395625 1.830869448525563 2.0482171400442337
P 3.6085458530167727 7.432044641574112 1.2516311970043248 0.3510849080045373 -0.3018451971421188 -0.7897410754618399
Ni 3.427282844854379 0.8211551169030237 12.262615618017783 2.269327126818814 0.4414154753699946 -0.33992452051234356
P 3.487411432693039 2.9940639753745613 1.6618093291700233 1.5018921710533424 -0.9852238485866196 0.4748999802806854
Ni 1.3221570003809415 7.853551361785341 8.902731292699459 0.6633387020744899 0.23769437349582292 0.05443102525537078
P 9.103690309651778 -0.03417894460659797 8.67346713731556 0.8642205347276537 1.509003071066511 -0.37085463443229677
P 0.49551817119885583 3.3634119686836828 12.381666115686794 0.3024609763492468 -0.24747484992135446 -0.02232180342565188
P 7.560131692340156 5.993914032459501 3.283407256930886 1.653423478297836 -0.2338618871236101 -3.2081155667610295
Ni -0.05181342847745519 4.139848139877364 10.144093127906848 -0.1784448438058862 -1.1180807193500615 0.8501607142004779
Ni 1.1172083867654168 1.13617180295169 12.871351543225993 -0.8917652771151415 0.6172370226204208 1.642208069197991
Ni 1.7605833434000997 3.6123254709082295 5.463940677914326 0.41810071190345416 1.0232093266914573 0.5343431140386669
Ni 3.9891673732712776 4.707444090885797 11.245232072580166 2.369345353785681 0.6683950335514748 -0.48202604980250535
Ni 5.749825375790221 7.2141333384493675 7.435930648709921 -0.18657955709787866 -1.1408465522916673 -0.8505327528279158
Ni 6.115916365039791 0.02642092891976286 3.097728161888893 1.6173570715925825 -0.36747389088552196 0.9204721581315308
Ni 7.229363798693462 2.7465223344587653 8.888143834116406 0.09422270333101192 2.3563193738396584 1.2882903197303492
Ni 8.139439792617178 2.4935399102572418 13.352212262917881 0.46706094385224073 0.9887454885866326 -1.6291116410253492
Ni 9.103186360599585 4.078030389474867 7.755152509627453 0.25393551794503366 0.09647113304555642 0.003412111005342511
Ni 7.737941716256033 1.864434177711541 4.54152819784069 -0.6314197418787061 -0.5626247345921794 0.4593309221978348
Ni 8.270522540526821 6.9043726543672905 0.6042181152791886 -0.3803150085142482 0.5158494261098535 1.153331829242872
Ni 3.881826225153898 6.052922733515507 3.5442242224160587 -0.467435296472524 -1.823655190165311 -2.171708510432376
Ni 6.050449650203813 1.9100042373757007 7.094867262574695 -1.8903303228953572 1.0225758068725164 -0.9865520804797395
Ni 5.29391013418195 6.031458236847974 13.552739190219894 0.4403132434447513 -0.5641478561049252 -0.3003801825608181
Ni 5.150601955561669 4.530697959413441 2.0187984385935733 0.08326183344413403 -0.6108434603892512 -0.16478071605523234
Ni 1.4150609413919406 2.881785993023649 1.2193149974128743 -1.047274338060461 -0.4452070812019429 -0.17849215210405386
Ni 7.598805115901137 8.054720357509408 9.15334515635567 -0.9800078516033187 -3.1269952051399303 2.0514374467537446
Ni 0.9807128527396135 6.0304223415740195 7.043332872553918 2.035067232925837 -0.947240941584943 0.3041149670129021
Ni 9.25901860640588 8.108008303584025 2.912158255808209 -1.1123322469020585 -0.08638058157877382 -0.024450933953512728
Ni 8.723264769584238 4.644422462191948 5.416953961470109 0.40384960130107866 0.07013738024703405 -0.3416121926274117
Ni 8.783038726608392 8.570418888531687 11.085682735894444 0.6300655418436568 -1.799037391616631 0.12573594344794473
Ni 1.447985612801966 0.7820085411763699 10.697592504038624 -0.9497567660282612 -1.7467828051872885 -1.4363272406683394
Ni 1.2571569050377362 7.636339987899755 0.8663126849355722 -0.5311881133494529 -0.11419914645293881 -1.1503812312549802
Ni 2.3376050081625377 5.346460821457986 9.24634895393812 -0.0001879476410899989 -0.658750311372859 -0.5387286447008722
Ni 4.540571627880507 0.08861010843850672 0.8197384601229664 -1.6613476182409195 -0.30194367039319614 -0.13482530734372267
P 6.809266269350406 7.704139800199595 12.699755024475873 0.8998012600457406 -0.1791418698729108 -0.3898193484602576
Ni 6.167813785025945 1.510279315087091 0.375975856584462 -0.9689276825297571 1.2061867682603744 -1.2288893520642126
P 7.983579549641317 8.919244956548676 4.619233408733105 0.08514953738515013 0.7282580284556942 0.27196152220880904
Ni 7.314325875937473 8.87498143146428 7.206187741726438 0.4150866076674787 1.6607446945495978 -3.5573598220124025
P 4.8224471310745 6.017767620930029 9.247810406189483 0.020395018716584227 -0.0927764578027886 0.023701457381997894
P 6.95646605454041 3.7466838876571353 5.985232110176976 -1.0390848602711331 -1.6948938296274811 1.1628675366474488
P 4.794011339184947 6.459506962347872 5.170779515668135 2.441929138690678 2.6889198498867626 3.311337388266858
Ni 8.313190226945936 0.14053085939929957 13.135610294089856 -0.5201164289163236 -0.6921995921702402 1.5211044823157351
Ni 2.5878717069161246 2.5830655261405684 10.282239561698079 0.6158979920940231 1.9154183762122365 -0.14542827967054953
Ni 6.99374895201293 3.322900064321177 11.052846722188045 1.4086014926182968 0.6743052283883226 0.05445673628698363
Ni 1.4403143883407865 -0.030491717374709897 7.027638592534009 1.3205291251593967 0.683597709433842 1.4354594933514053
Ni -0.014264557894054442 6.450743848273605 9.915525168806164 -0.057784257998319835 -0.9222117665304568 0.6943094394243914
Ni 0.6380657600459181 6.882441538206985 12.442202528962138 -0.9172377103546332 0.8206246524145738 -2.0065902085320673
Ni 2.194726119475607 7.3361730005890795 2.8869720020663223 -2.1170748822478958 -0.9689042854909894 0.5145469052483461
Ni 7.908687121051336 5.729788734770571 12.277217075185616 -0.8263942079084994 -0.7172398229683197 -0.28625994110935216
Ni 0.6268659589803931 2.7074196209644317 3.4782927545652793 -0.9687320215791831 -0.06015224400986415 -0.12041864500008939
Ni 8.203058694261777 1.898114772699858 7.194509189061329 2.3226767460845483 -1.1216080157770296 -2.40513845222489
Ni 7.510362057241044 4.579067736034236 1.0086101657345083 -0.5702015184981728 0.08366652508172043 -1.2640255336457134
Ni 5.79351029270358 6.852829865195644 2.2138061905350734 0.10230162368440444 -0.5615433286025425 0.7067211828251829
Ni 7.044927777980214 6.001407941513427 10.13348033416323 -1.3283383367911703 -0.9539818598532023 -0.8509842385430376
Ni 1.8890250249806504 4.769896443798466 11.65273180885735 -2.0061415510304226 0.9620314696305559 -0.11253744247979973
Ni 0.6033698010413281 5.219633643322428 0.15785270820999925 0.4903623375823425 -2.2112186527118567 0.25025215555617547
Ni 2.182080731221473 8.440810658219206 12.014228462581082 -1.0704816294148596 -0.04066919558458802 -0.24177882797784167
Ni 2.7555934173982615 2.877838392114794 12.852761422633938 0.5415684281425125 0.7146136981993821 -0.09933071398153862
Ni 2.979066824876854 1.9954329341124848 3.6938840255719585 0.6057423917172601 0.5265740116162093 -0.6741303933733551
Ni 3.6804985788022875 5.331081042976205 6.472622703050721 -0.972410498872035 -0.25874630907011564 1.517858721684928
Ni 4.864965499255928 2.497002226893614 11.103097908603699 -0.3313169813489907 -0.5067091543714821 0.728655521004429
Ni 8.416182481390676 1.378879265922363 10.781540150505348 1.059183173682905 2.15546505199032 -0.42771972305045686
Ni 2.802777980507414 7.644347178395731 5.597169875490722 0.5540598757413039 -0.06304087841156884 -0.42212885922624077
Ni 7.734106104025443 2.038408589396829 1.8721697956627232 2.4505775583942957 -1.5540125458976655 0.8132874953232123
Ni 0.5760837595819651 1.8982267613781234 8.79739474192303 0.21146706436817772 1.152264821430938 -0.1853207449901131
Ni 8.152934428348157 6.532756890323295 7.455517468538538 -0.35231543797752873 -0.6160067497577455 0.10355375092395068
P 0.3287418318090758 0.6815668288791243 1.5185683437567012 -0.6325358577610203 0.2391555314223817 -0.4114880916829429
Ni 6.017291669047402 4.892645367567192 4.360575025021497 -1.369244073866597 -0.5582407465918708 0.38737371513324254
P 3.3897759700253274 0.32875209743791683 9.781818152869171 -0.40572419261597226 0.5522138236715005 0.3722983088573588
Ni 0.44807416765172203 7.868800486809145 5.852577787815676 -2.7608330910872967 -0.44452111087851187 -2.131947428484354
P 2.390482329083514 3.838010654782563 7.661643829753821 -0.7253673371714604 -0.0665720314932789 -0.05086799049446078
P 2.9788521799101786 1.0774710707609132 5.827499789796112 -0.8556168522190426 -0.05685608975709563 -0.4535299992453415
P 5.985542878759162 3.8820595349002844 12.747150499595758 -0.43995765987754554 0.6337177938842635 1.3295984344505165
Ni 4.537995888280403 3.0858200324333396 8.819904466254375 0.573038987946968 1.0264450600199355 -0.26012904835025524
