# total energy = -340872.97895844677 ev
CRYSTAL
PRIMVEC
9.17995974333815 0.00000000000000 0.00000000000000
0.00000000000000 9.17995974333815 0.00000000000000
0.00000000000000 0.00000000000000 13.43579900892728
PRIMCOORD
 96 1
Ni 0.0875988486952084 0.4179048193809931 7.917999015346446 -0.09215270817586063 0.409188754125805 2.640540430142111
Ni 7.641582162858964 7.763051391348127 7.589009450900484 -1.045099441896329 0.3995232060115829 1.1704569189589327
Ni 5.540105758253508 1.527324996910001 10.415632914492294 1.1637381121778603 -1.0159485313639858 0.8849500539655211
Ni 0.6895462567641779 6.9616133581868915 8.262277802891614 -1.0789508432281354 -1.3610939339556365 1.5639791701920742
Ni 5.20223733665861 5.856456354003589 8.488267300033217 0.1742796566846031 -1.428258604727592 0.3982571948149657
Ni 1.3183615712677066 6.412394721393534 0.4134130650354862 -0.7761625654464569 1.80776937217299 -1.380787812840138
Ni 7.2410329755352265 8.729774601273828 0.5175174815075625 -0.4668370007668928 -0.36897104425633875 -0.11944291135038139
Ni 2.9246893024867875 6.788405876087924 11.838591866075024 0.2930764498105533 -1.818581632297145 -0.82082879800558
Ni 2.405902232534541 1.3866421124937043 7.49686652208873 -1.1166892383191735 0.593231660844759 1.338398806350966
Ni 8.795585733305177 3.5266927083107285 2.1172264616881997 -0.7724370369657535 0.5032625905837784 -0.717448596545016
Ni 1.8709951531183464 4.689270361239476 8.977962159283754 -2.1676711071382084 0.9234332976423837 0.1464883455039477
Ni 8.106556308279508 3.073762670188989 7.287967356165256 2.146285185263265 1.1572884998977746 -0.8214250368286821
Ni 3.1367922743914223 -0.13990901380250906 5.907882488979125 -1.3102112881731565 -0.2686473702339115 -1.1936145880223186
Ni 4.909442517835917 7.8009554454920025 13.30402098382177 -0.9512940286083941 1.1603280580550468 0.5496735737481502
Ni 6.094593691990091 1.016001234300688 4.171318667631888 -0.09636031849930501 -0.39496026923124883 1.08116739126348
Ni 6.921992651554543 5.559163354863506 10.543783317746756 -2.0447029562433885 0.7989016589151854 -0.20365888117766864
Ni 3.767170936054239 3.5131522675594047 13.074657851442124 1.1486264533474024 -0.6592133670522067 0.25784076653671073
Ni 2.010163344162461 3.776846613716541 11.359632051851333 -0.09298985936517533 1.0773058514255445 0.6634019512122574
Ni 4.29643234017412 2.1603199471247687 6.521213047239038 1.8549087488629539 -1.0423619883605082 1.2102925628986316
Ni 0.2845998686811975 5.185447190126968 6.467536904108824 0.3878241724070998 0.8917812179547415 4.456368410953519
Ni 2.7462951430830747 6.264156730035991 7.111528528205633 -1.6477457111867686 -0.7759985290647667 -0.37070113957356804
Ni 9.101149876253357 4.1134941006538615 4.664103501361676 -0.28265062649153905 -2.4878624108876832 -2.5259386489341145
Ni 8.825576662074381 8.080182283683879 3.466301424563841 -0.9641649710337911 -0.21148480497999061 0.586587416055364
Ni 3.534688453323883 5.918751561419509 0.6931016552068815 2.421332288375933 -0.905332474276615 -2.5596972334417982
P 1.6672184047807965 3.9181078356022163 3.087788730815394 -0.2717913151795319 1.2842539448774462 1.2785103575254497
P 3.6535230333414335 6.803819028644854 5.011459411442331 0.2382623301841509 0.1846463446309078 -0.3280087429113641
P 8.638580880308641 7.000233449197617 1.3877437076734729 -1.0627498079882407 0.8678627594659312 -0.7997408669870292
P 5.095933401810929 4.538526240847958 1.508625418733427 0.573033074409697 0.2012513001774405 0.1450886369429437
P 5.452317802385772 0.20624432154023178 6.219256628504601 0.35667551471843734 1.071830173022954 -0.34840170474541937
P 6.532624655305458 8.08633285677092 2.7887212454399006 -0.7906854416529802 1.279706691826396 0.865437180743574
P 1.226066255122751 3.168490675689267 7.502389185923303 -0.8425222238186134 0.2956115575275812 0.9114910376788432
P 3.009659010686281 7.7208327560834915 1.4442950142228832 -0.6161751570148098 2.5693599533425426 -0.27405465729241185
Ni 2.325559224090076 9.29535192648675 9.840970183034228 -1.24981478936297 -1.0073952424773358 -0.27563588573660275
Ni 8.051852927644159 7.669480060786606 10.192182594240057 0.40119185196325746 -0.14292016853671513 -0.8949557590279812
Ni 1.9043092273465185 4.365961355937189 0.9639380101128521 -1.046558800050675 -2.418354179584216 -0.10899009144817359
Ni 5.305493524842264 6.035438030836511 3.7583958124513983 0.06663913728578846 0.15452175733138548 -0.0717800580567796
Ni 7.522215145171191 0.9257163293588101 6.390724508215517 -1.368899288932668 -0.8566928588920407 -0.7796821485639411
Ni 5.090737544546353 5.672370619504405 12.413362003063117 0.6991991634165249 -1.552169836261972 -1.1895437603870544
Ni 4.350190184946833 8.514082265075112 3.743200224942472 1.4212451495242362 -1.48569165003408 -0.6375487375945794
Ni 7.264570392542952 0.270010158521144 11.529044538555997 -2.113297674593651 0.20137856978392416 0.5181698467129141
Ni 2.028927182057855 7.772001852183748 3.356544906823568 0.43071942910872923 1.696629067151033 0.8168117064263868
Ni 1.3029392387509446 2.2773736149350263 13.200672996039803 0.2397324869717742 0.44757712409601624 -0.13281984687791965
Ni 4.982882196487164 3.6389636170488235 10.056695567088337 0.7884969186420937 2.6241208511335063 0.43616014050832624
Ni 6.7441584697005466 5.863001665363381 6.499675025482593 1.037456837749407 0.5116351309181899 -0.7262955054126846
Ni 2.9331991252505003 1.1060841801262749 1.0895813663373564 0.7524500523208655 -1.1776243832416493 0.9531187405219586
Ni 4.486209649768775 7.672390108053162 6.996061157454243 2.3115459262787095 -1.8490926564018089 0.5309060633326599
Ni 1.0508116419813793 2.3326645129995844 9.792171352562441 -1.9518041139301223 0.36997197471702736 -1.4037421076434664
Ni 5.248311555052437 0.9843854526413257 13.11801571972184 -0.2643592843815189 1.1656679822107214 -1.3810811757108408
Ni 6.844743289573262 7.920597861974716 5.199036284665398 -0.028606093772466864 -0.15123691593252664 -0.9439339886988969
Ni 0.7125200242382546 5.939020912727253 2.6661192099075417 -1.1896417194174993 -1.1313949199604645 0.7774468314755191
Ni 0.24428699307756133 0.672799256043744 11.446535059591321 1.9881150325460148 0.04490200271901299 -0.5107344734807914
Ni 3.3728182216167015 1.3146987672949757 4.076932156637338 -1.5078758994406032 0.5424865690814077 -1.0014811909857462
Ni 4.4810137925042 0.4711412424352827 8.282458108588994 0.13243572406562354 -0.28275912704494527 1.6030383409770648
Ni 0.727788133429849 9.075914166676823 1.4729667827643136 -0.012981242751016354 -0.7185053199443046 -0.9683905790793645
Ni 3.0034992576394077 5.677594016648475 2.757079759893011 1.4126908321963219 -0.7401108140292221 1.996397327159465
Ni 7.443552069375874 4.791250535006564 12.696951158166875 -1.4184279917904152 1.8587700315905729 0.48823192150290107
P 3.1830409120220455 1.3657209840379299 12.445634151850424 0.5834750956786274 0.2168982626860781 -1.7920550467615264
P 3.4263741072731237 5.202696334650181 10.340849289721728 1.1511332789296562 -0.9241868879789568 1.0443923885269755
P 6.042763638781972 4.138904229467193 7.327454953380049 -0.845050646667422 -2.7218232854830027 1.8750795673838738
P 5.9940731318361955 3.1627807406741324 12.11553014028093 -1.2643515495265645 0.2558013675091788 -2.349582569336457
P 1.1607324810026345 0.5287427363894058 4.300637679772887 0.9628166845360129 -1.6710813005889158 -0.22721892788579579
P 8.002161805076758 5.655121474981193 8.543327781106006 0.5148482385388488 0.6801909977451382 -0.017508184087092427
P 4.1464501564486085 3.0924071686065746 4.802868692169191 1.4920826411620884 2.3991166715108423 -3.3091444943805977
P 7.9730705123710335 2.2128476772800734 4.142256750797623 1.106526953074191 -0.45951527029449896 0.20053036285101591
Ni 8.274861691828505 2.802191918496506 11.726980078452824 0.08651942114948324 -0.7149186310343106 0.25116618273001257
Ni 6.34113069322233 2.0525013189049055 8.17288886202928 -1.4668855730711705 -0.15683523595591056 0.6691756204712411
Ni 3.360865913916211 7.054294232644766 9.358087771974578 -0.6350329131512612 1.3192096350170248 -0.23088403544220884
Ni 6.739403250507878 2.9533766769599312 0.5712578843565963 0.1601442457244855 -1.1081210370341883 1.9651424829102415
Ni 2.145062853884972 3.6052639845077326 5.598482958813385 0.6826895957972758 -0.27866670214312655 0.13003302816140186
Ni 0.21870244502743286 8.176773821029931 6.089251873364196 0.8479850467053976 -0.3465973045468289 -1.730154709712304
Ni 6.34791468353774 6.478068154027413 1.3159178659605864 0.3188903255498637 -0.9921028350946398 -0.12540941334646144
Ni 1.7832530970497682 5.839087870002569 4.800087164340276 -0.4512142066279713 -0.040636799684755816 0.47363268353248755
Ni 7.731876247760673 3.664538985139121 9.549279713379255 -0.09820791323100506 -1.0666262602245113 -0.07934450066759885
Ni 0.44346274554761056 1.6504098983294921 5.973784502612805 0.5886877502278184 1.1836708465460453 -1.429454424807906
Ni 5.268663525998663 1.175438776652547 1.9637090754316142 -0.16736236073947952 -0.5426765736050266 0.339729373782402
Ni 4.404480467389768 4.9037325828207825 6.1338995260002225 0.2586421793920836 0.13923294949311502 -1.9344905623523394
Ni 4.355349322372083 8.64418983576563 11.041499625897975 0.7262541106517879 0.6235290262767197 -0.11009052360120396
Ni 8.87538712411959 7.7267630101345794 12.542640623380857 -0.6321777030906532 -0.9576827057435571 0.3999644073140595
Ni 6.4137349955289205 3.1730347558058134 3.0107073620990277 -1.5461002330291242 0.8286817183910955 -1.317650518060021
Ni 3.638706578173544 3.8357085161555164 8.075922782322106 0.9740678319697998 -0.9910129444645706 -0.11963754385969075
Ni 9.23972136990843 5.201622279349906 10.560417404961262 0.8335521591095193 0.6798477554731065 0.7121225563464122
Ni 7.771809073027288 1.0090520047083136 2.2557493015561665 0.29218761944769683 0.8914217777327939 0.6511249336171173
Ni 6.698965527450535 3.4522983138370145 5.343564654255071 -1.3147533990178841 0.4172450487713782 0.2621026271368583
Ni 1.1208088356958499 1.9394501135811408 2.6643998034311194 0.9285539066984009 -1.5091298264523623 0.05404664533275853
Ni 2.0266138321803404 8.623892944578392 12.685302707136804 0.5009002609991889 1.8040968084174092 1.2578577142721048
Ni 3.2699292318263034 2.086044892128863 10.176046060848412 0.8903665969954021 0.08107151066103457 0.28752440964407255
Ni 7.534029753474211 5.338706619512291 3.2228048260277635 -0.10974445311569485 0.4214364611449064 -0.619964448853913
Ni 3.6407078094167904 3.1151551090687986 2.3685838598279094 0.44128254933655614 0.1343725360770202 0.501703987847407
P 8.441891060960936 6.190597711906935 4.932953312960131 -0.19456180397240685 2.030375998097755 -0.017240789358318694
P 0.23348126236001335 4.441117687076909 12.838940350867182 2.822007605714088 -0.2792804244677255 0.04441606422152996
P 1.1051753641029656 7.735483971974415 10.860774674693069 -0.2687070198272533 -0.711148108248285 -0.6794284085475009
P 6.632364918873685 7.32691149975803 12.091776076221185 0.3841320682674933 -0.1592890968130418 -0.4644445892753163
P 8.020402385261763 1.3959689516824128 9.630565503698405 0.032208466411744525 -0.08395525996673282 0.15921941991737096
P 5.742340273339381 7.849655132397611 9.019425283854265 -0.07897837557743173 0.8717006451547825 0.6283907252443951
P 2.04012673305217 8.410220199542586 7.79984375235642 1.2834250212182479 0.8116185922612216 -0.7831377112127094
P 8.63903069834038 1.394931616221464 0.14011923488264827 -1.5878999426737297 -0.9157667822360616 0.6506397664505826
