# total energy = -340854.4154937368 ev
CRYSTAL
PRIMVEC
9.40626338705153 0.00000000000000 0.00000000000000

0.00000000000000 9.40626338705153 0.00000000000000

0.00000000000000 0.00000000000000 13.76701726662552

PRIMCOORD
 96 1
Ni 8.759667562084237 0.9505217415173829 2.4008161359078155 0.4919947309794431 0.707163155458608 -0.23644404602848954
Ni 1.7870489754005856 6.469882020174532 2.8300991905665094 -1.1731306091363538 0.09308858972656872 -0.8534036466178077
Ni 0.9902726111652123 6.912672469252129 11.534434407477214 -0.7155950882760451 -0.03416918968254116 1.0868580138903539
Ni 3.7613014074341815 1.2612858757873753 1.9795594459132233 -1.0988632658813462 1.9954925559570087 -0.694866340369126
Ni 7.825973626009346 8.010016578098659 6.543091909799715 -0.45161144206639 0.6875376679181966 -1.6371028867609418
Ni 2.979970127903431 7.244619508975721 7.025598425350106 -0.4919214545393463 0.5679566883280541 1.941757785437714
Ni 5.983681664938693 3.89172865744289 0.1799408805669693 -0.4745971043282859 -0.5166608662675554 -0.13375161466356966
Ni 3.2021460723146307 0.6238544375092016 7.034492047511021 0.8272760962928203 -0.7017471266493592 -6.381173884807611
Ni 4.4901081114529875 8.475146903043171 2.39693417095191 0.27245954489115015 -0.948598998274734 0.7943204673024062
Ni 6.455452811930385 7.065637126661738 4.78266171954262 -1.234656850675609 0.9598298339935469 -0.4235213686983932
Ni 3.382134924825567 9.24306485079025 0.21142458520451068 1.165109024383458 1.0507350429155515 -1.092582575078957
Ni 4.510585547142369 3.3022099036713772 3.506693607022331 -1.2275480075449696 1.5817308377485404 -0.8434853590628312
Ni 4.0763453916070995 5.342710649696848 2.449373149465796 0.7072729415635949 0.8560014892519711 0.8227869501732152
Ni 3.8798109215593595 1.1453348653404296 8.916291256004259 2.9450811718385217 0.5757193629926084 4.709862470485759
Ni 0.27998025563855594 2.8706129081860468 6.807046714274285 0.9809820425911299 0.9812427524516842 -0.6908747027112295
Ni 6.144312427119475 7.044266095937679 11.417332070375062 -0.4833141724863096 0.7970280960415563 -0.1332690186001963
Ni 5.851815256610979 1.3561574496794737 12.695337579574415 -2.760335325515272 -1.762298127214068 2.191359194783768
Ni 7.086434375310897 -0.015506225417521727 8.528901817823915 -1.3570609015368433 0.9964821951092581 0.47847561344708567
Ni 7.617944701936607 7.188398271899271 8.954040472774413 1.1315748971817545 1.2990074490375372 0.25462328804067763
Ni 9.234147712970527 2.353964477926539 4.446581567627061 -1.639378827279312 0.07881176809258039 0.6343703398665979
Ni 7.942441980950052 7.715562904777396 13.522666428358562 0.14635284836734794 -0.9994603039009755 -1.5310567084324405
Ni 7.278914745780262 8.62462183668578 2.6794334239619015 0.1446518065158412 0.1744956293501511 1.044885269002994
Ni 4.2956524256438104 2.619851328928715 5.753498168390438 -1.0037936411690067 -0.36160740480241593 0.15131533457894583
Ni 2.4277189902096983 7.394865756227207 4.899970994442275 0.01574003644307612 -0.08604659527812276 -1.2489812377180811
P 1.5893669412030507 2.7883833524687436 9.88453910113057 0.7604179010176904 -0.9742485805220383 0.032854327525859546
P 2.0744855761337546 2.284207627640618 5.476436676323042 -0.5549453636700508 -0.7211926369684806 0.38488694415564684
P 4.547806131902534 5.976796280039922 7.517411498030067 1.221498201806464 -1.2805001342619688 -0.8714265655577895
P 5.923763766297739 8.23813728105634 13.564022947189752 -1.9437352208790588 0.6263654672842502 -0.08579591271989741
P 3.9909271125555286 2.749262702476949 13.352327461595783 -0.473451677869933 -0.2724078657176083 -1.0230285781392188
P 8.25961178067915 7.032282516209488 11.270561437495292 0.24161967669215806 -0.37014655262167867 -0.2642119601703772
P 6.268023604972825 1.9695022689545252 7.833144020692862 -0.19437205655910395 0.25243630769168784 1.2071900127139081
P 9.330298538701742 3.0889134720258067 1.9447703802737304 0.5034942469786103 -0.5904394428116025 0.1984526543863808
Ni 7.285621411672098 0.4323090496340148 0.48732534435317937 -0.10353112521613138 1.0517984511830594 0.46343337440198246
Ni 2.47913362662594 4.156185756389583 11.856692055145853 -1.2119632657328352 -4.619322615322974 1.6005865370024628
Ni 4.802866373589837 4.859445048680158 11.603723766466045 0.3600835119587218 0.45210046588766656 0.8804161706509095
Ni 6.390888219109111 6.591542632579887 2.2511690676427394 -0.7129990454140945 -0.9400202554667875 -0.050989089453357346
Ni 4.009861921027151 7.164779144193238 12.565596986802879 0.08816621272428686 -0.8947289877291558 1.5066147733399924
Ni 4.436652315852274 4.166109364406257 9.405874103602939 -1.48998256409995 -0.6600551462272116 -0.0621906145961316
Ni 5.511393173453243 3.95137377444168 7.1987874899603295 -1.6529295693805535 0.13476797174322594 0.6510655411340917
Ni 1.0122644552817823 4.638200324357726 8.850237651667308 0.12296043758533663 -2.763612453604647 0.1676320694610984
Ni 4.187057113271783 6.738016968158685 9.517345851360272 -2.925886601187942 1.1092921745241542 1.2773824145685935
Ni 5.636345978091616 7.996885434220672 7.272110254747786 -1.8789778739970158 -1.360485096727044 0.6260492215954121
Ni 3.116868887215904 3.015798585662206 7.888913757120213 -0.7270156714081608 0.3250375760981822 0.18059454315903734
Ni 4.919212447104745 5.039791339204965 5.1418436546704545 -1.7118595109475423 0.6022194661656661 0.6543889490803698
Ni 0.8516101774421935 8.847202250428465 3.7259470253569615 -0.4404811364811833 -0.921738169328148 0.3520045916053292
Ni 6.631519252552267 2.831228882815611 4.877048870863289 0.7103567226952411 0.780043902778734 1.3119920342226632
Ni 3.34539405950507 0.8202224166925858 4.27270396452696 -1.3167858560668806 -0.8279726081392127 1.6280634022664928
Ni 5.386148774645659 1.3632121473216585 3.6356487767897034 2.2208245512327363 -3.4502504925267092 0.14341279190241754
Ni 8.377067793289761 5.217174656720053 9.964925029197383 2.036145296481364 2.336057281156512 -1.7734978525846297
Ni 8.692553871848254 3.186616331238302 13.56100823973066 -0.2863514723818939 0.4530895692738133 0.6306370980764106
Ni 1.5345942687091294 6.758579060219772 9.182930608088268 0.7986034109484762 2.5390739007644916 0.29354439058590737
Ni 9.27839477658231 3.459604911200277 11.066203778075547 1.930147712002611 -0.4500962909734442 0.5502988660369749
Ni 3.587567720165983 8.947501238373283 11.167020110514127 2.8448796252162554 0.9579575566714986 -2.9311007983990294
Ni 2.0046252569490814 7.486247606352305 0.33422335549613713 -1.9638273636432433 0.6682513088847588 0.28521401634334104
Ni 7.001100752631032 5.82569406280785 6.96248992212218 -0.0022594854581380443 -0.04407590727329183 -0.9964713964759806
Ni 8.003460412423188 1.3110732286141529 6.569317513127948 -0.6077941320399661 -0.12783550628945078 -0.4365272940397579
P 6.885431930089774 4.95713850162913 4.476580023254334 2.0398739102858605 0.8030089962153396 -0.5566824009658154
P 1.8228962456864062 -0.011065528408354602 1.9668798026843368 0.6531692177406558 -0.40525959427472785 -1.4653578235727345
P 2.7818930306379333 5.8691886253378 11.124864999909839 2.17023321143843 3.618453346889613 -2.677627307692079
P 2.6151011658496444 4.908846744702495 4.182172440624335 0.3692263548002544 0.8472684802543472 0.17397266696714556
P 0.586699696593696 5.979110220866558 7.347140256364653 -0.029736093611852015 -1.2472004916685746 -0.923993283910912
P 5.369998220176817 8.502519129894848 9.751550525564573 1.3292870738576847 1.1049704072203488 -0.3143330451964844
P 5.660821075778235 2.3370990474299567 1.796292510564552 0.6352334591978415 0.26019975368719056 -1.324964792333247
P 4.408019649688527 8.425594706804468 4.8339023400836885 0.831482421064684 -0.8122644533753366 0.4712238169806788
Ni 6.023695909965165 5.693611310419109 9.20256242068694 2.380354560411991 -1.5093959356295554 -0.03624149883053758
Ni 9.280313654340985 8.810075728303527 8.00144559077658 1.3872191702877785 0.10048539641127212 1.2043818538411517
Ni 2.088877159323811 3.7875166638725393 2.3707217363926083 -0.29455637679018953 1.0407319089562528 1.0435081861498092
Ni 7.805496190319965 9.070920822057422 10.9039043447458 -2.698956408187158 0.6034417686085414 0.9374157279644049
Ni 7.254129241397387 3.701242414840383 2.631248898439428 0.14847760801983462 0.22575571307670797 -0.2381659138156027
Ni 0.5513932864604429 0.3758978060344022 6.0207301150763906 1.9600774096825084 1.1504642778870895 -1.7456471489209484
Ni 7.675990754136501 3.5899663173643255 7.630080663133869 1.1158880825741169 0.9511258784616458 0.7294944719659565
Ni 9.216633250290865 4.742421724191599 5.29140794781653 -0.25985419742231375 -1.5094000493946134 1.731651863083121
Ni 0.3673794937880524 9.25908371756977 10.161435983586316 3.0391151561974947 0.3726099265605067 0.43247832078136483
Ni 5.356265075433366 2.540913965444431 10.917506742426285 -1.3746932699066259 0.5617811556449616 -1.0866135019797158
Ni 1.75473846019938 3.046209035631783 0.23388486124452185 0.08245990636812896 -0.3647693474701653 -0.8723863583678975
Ni 7.477697312809977 2.2038875434184657 11.638828882559908 0.413983604411287 0.8575775754898393 -1.2312321412647764
Ni 2.1822155122616747 4.38975268592703 6.327431684130837 0.01027155712933715 1.2764866422272014 -0.9810321791027751
Ni 1.5238899408200548 1.7564974314781647 3.17497702075505 0.7706552624749824 -0.016115674614939984 -0.6081366029810494
Ni 8.549738572779871 1.8117498234117546 8.930622639107769 0.3941783967599018 0.24954150264239605 1.355438278331756
Ni 2.584135746332215 5.4704100832839115 0.7249858797757984 0.2727778474625173 -1.8473936714328314 -1.5401640700503474
Ni 5.771429328544167 0.698065153573222 6.296028873359592 -1.7293520113053507 -1.0491934094600446 -1.9057661978344533
Ni 2.3616211764341903 1.5545543599047502 11.804570067712689 -0.18126894351824266 0.7676678977118844 -0.09996371957984719
Ni 7.8304510074462526 5.53537914543667 0.66736122818173 0.5153076946737706 -1.1726325864540128 -0.08154793607682084
Ni 1.3439387133632101 1.3855990545061907 8.070019133111318 -0.8010256472367236 0.4548044950823909 2.0830491601217545
Ni 0.22028058231133307 9.18067310484277 0.2538129711441649 1.6236524176829907 -0.8109349359306357 2.299904742495355
Ni 7.369468844715343 4.916785631115834 12.01782134929335 -0.1662120491851202 0.04395737941755655 1.2991948824579949
Ni 8.789974543155063 6.602745492435676 4.343480453778765 -0.042459197605475264 2.49262306550112 -1.2544049798368138
Ni 9.174474377181168 1.150790498183719 12.497547373346366 1.2372197263067788 0.2733895129045872 -1.4303411982882335
P 0.513413616233978 7.692291808821709 6.129599149716935 0.2866180957797193 -0.08989476537961938 -1.9988732995037835
P 0.3762401940266362 5.079231802156538 13.12641064618152 0.37133825893693473 -0.5688766290391623 0.11258757899144481
P 2.412123405288709 9.079226552748153 8.64603143309028 -1.5230189257296285 -3.6515832966743624 1.8985663376519046
P 1.9614693199059574 8.80326559351294 12.254339023697934 -3.1395187915282383 0.04798964050540122 1.6754382920060307
P 6.965131200919414 3.841094740899051 10.108694123386993 -2.0133879481801906 -2.247682551965845 0.1403457229413196
P 7.212346618828608 0.6580828898427289 4.534208437353811 1.817622867928302 -0.15250215579819543 -0.43103207525314147
P 9.166253302862144 7.044350752309385 1.5438058225771178 0.2626253324095477 0.38346255300429444 0.9686975687968221
P 5.044861315243814 5.8605442691602425 0.5766284102397133 -0.22104545208523224 -0.04379385725649877 -0.49441773859863886
