# total energy = -381168.01164957567 ev
CRYSTAL
PRIMVEC
9.21819791285647 0.00000000000000 0.00000000000000

0.00000000000000 9.21819791285647 0.00000000000000

0.00000000000000 0.00000000000000 13.49176443518976

PRIMCOORD
 96 1
Ni 7.325849161475159 3.7625087699214093 1.6317481947004107 -1.264322753171158 -0.058440146414763874 1.643818608218221
Ni 1.8820978500454328 5.945009244897197 2.5482573557662382 0.3181146237261038 0.25780605664403344 -2.6048776866331784
Ni 2.9814877560558966 6.9008810317367795 6.356159296362268 0.5901859320398997 -0.6358960324825049 0.742843896689669
Ni 7.46920135308839 5.0589653052359465 7.101470856181653 1.0032118005236077 2.1617187462095155 -1.331371210080223
Ni 2.8973532661289494 1.7150087994903933 6.5758049789836495 -0.9924111103636779 -1.3554233659334205 -2.2430648506881754
Ni 6.962873410914902 7.749434561566444 11.387426683127359 -0.17688212730445668 -0.7218996903378341 -0.2574610145997889
Ni 5.539307148241685 4.69383249642622 0.2848395418424116 -0.27966531861097 0.8452301096680799 0.06415133786692823
Ni 3.9564043392348096 3.89255910232958 10.365344269866249 1.2991442317257174 -0.18316796031316843 -0.21029258444410234
Ni 4.842300787733705 8.463798788244299 10.751357218166884 -0.22764830211373052 -0.6037870677631021 0.11541039315222058
Ni 1.3249960752305918 0.6407338729700103 12.755639512568044 -0.23550687892620084 1.3681405563897728 -1.185891508346448
Ni 8.22256777401199 4.320725946651574 9.175411382924432 1.3610180864123786 -0.9664506817441744 0.5957302588968966
Ni 4.98299813842451 6.844474880332925 12.46555389444455 0.44070970755222166 1.8129714851992196 1.60628358738724
Ni 6.681368091161519 8.614571628963608 9.22144521833554 -0.16585080919095954 1.9854631967454646 0.2805400079064394
Ni 1.0197446783377542 5.823218417581011 0.003381234897031252 -0.2344910360671768 0.9528991683119846 -1.1900538672542538
Ni 6.188378880983681 7.377342013533002 1.071157332076065 0.7645190676702576 -1.2078245609741136 -0.5386013750943884
Ni 5.147690457591251 4.224497181411364 2.7342409460389576 -0.8203935102403742 0.012453395272004359 0.03376064139021283
Ni 4.875292717113407 7.576998956375968 8.369305809621075 -1.4051860391788447 0.8896672569355324 0.9596467714484633
Ni 3.693602742507809 2.895399008227721 8.113286040903196 0.7611876893041795 1.7401907537920673 1.3344981857449791
Ni 5.539556039578161 1.5628716655192818 7.666721517716711 0.04581551567221787 -0.5666076304993274 0.2922231006713225
Ni 8.47312760426337 7.702891881645203 8.303451927448497 1.2968536359193277 -0.1408738275306477 0.3296223672553871
Ni 2.367970611639553 8.82433171642802 2.4016963095519808 -2.3307824059108184 0.7979539502899354 0.6033114136782641
Ni 1.729684170144902 3.669819792577764 3.638202296467274 -0.8060819787137086 2.2728690785338017 -0.3974629810484445
Ni 4.649704984288573 8.627569287646308 1.996066114838116 1.4869023825127297 0.8069294143156683 2.0881728545015648
Ni 4.342526984087449 8.813988898667745 6.408020876326003 0.2720983048969895 1.9930667201243353 0.10064249081442668
P 4.171418799358184 6.081493879263186 1.6593253547820865 1.107386472861009 0.3934520601168385 1.825702816722959
Ni 3.3389141516324776 5.080572760521228 4.307057203180151 2.6778715624924008 -0.3963946876849302 -1.0645722059089602
P 8.405318542369798 3.8428084896270778 13.390292140550127 0.8729818258600514 3.457087312942885 -0.4154751013551489
Ni 6.587895567017854 7.661409992232334 6.660276854944487 0.5837481468343559 0.7064273057338479 0.7276245086367533
P 0.2748331882962627 1.3887122573687598 10.083298763730737 0.050528090656538786 -0.03750571025494186 0.2077137679733326
P 0.4499476017230454 7.7170418150338165 3.213630549227728 0.18826671499231448 0.20546945202384614 1.0152350502367289
P 0.9896196084263634 8.148195355393536 0.2307453144085 0.18949930184783492 -2.851157487805167 0.31971179300989455
Ni 2.746008897155506 4.997138853615476 8.528116918688834 -0.111382245829434 0.35663334862659224 1.2729516324907497
Ni 2.2259274040922397 2.469361567562254 10.812488617684748 -1.148183709383029 -0.7823357841367042 -0.9455764093983264
Ni 7.618775828113551 2.7994099161263404 7.162696281315519 1.619921746995965 -1.5208638270598387 -1.3534672706483142
Ni 7.401327763811287 8.528473662937785 3.3978875710811076 -0.6821566061119413 0.05263382414563193 -0.25486857128226426
Ni 3.5028044876039024 7.348682637047533 3.709641484594354 1.9208279772635821 0.07071870667180079 0.47938346997333564
Ni 1.1540999090472157 0.46043145790732465 7.716709038098749 -1.1583611641366631 -0.32895413754376895 0.2588010735674511
Ni 2.4699238776187395 4.284323284142369 6.214468223965082 0.6115096332183404 -0.5173866886899864 0.8206807024634899
Ni 6.494874734558905 6.117721396017093 3.129630644986432 -0.1709652475993894 0.22673633182242242 -0.6567790465791011
Ni 0.12499507281838868 7.93661006479496 11.43769720217717 0.9783942272592957 1.2012870169659118 1.0519529744830527
Ni 8.598430564883179 6.5370111160047335 1.6981948069817103 -0.3615968632794547 0.5269025986002216 0.23882437333520806
Ni 1.6804589947082964 1.660151305291285 4.159268293039273 0.11332805670189515 -2.3993370150517643 1.8158899443975953
Ni 5.992694981326703 4.087699128325366 8.575486470939039 -1.7917755678478948 -1.1973871676908734 1.7639701155998526
Ni 2.629536969881815 7.542255569443277 12.033682256488104 -1.2451130130119268 -0.06471440945924985 -0.14227276476070336
Ni 3.5802742206318485 0.7981862197045577 11.902595798664379 -0.9990409569753697 0.5162325204808851 0.5998406815208444
Ni 1.0871665759301383 3.0915530359647114 8.079421148206293 -0.13317645888639 -0.9433488056193883 0.06619382221825373
Ni 3.363508302955486 8.752033392280211 0.30958579342660025 -1.5626612227115992 -0.25955774922781755 -0.9030722174875288
Ni 1.3352190564214523 4.763383797675131 10.602098005501261 1.0758256673355922 0.6568451239303462 -0.39332016252466456
Ni 1.6545558593193712 6.2818145323367585 4.665560284241938 -3.3634793603777364 1.7504227159327208 0.6356713180662085
Ni 2.058571025805428 8.817408849994894 5.25697126888028 -0.12344097676618096 -0.30143279219504865 -0.146866811889289
Ni 1.637704994020099 2.96919989859204 13.138805881435193 0.013045520330048502 0.8504301658117804 0.2639720762454293
Ni 3.923928628923356 0.8700153375921182 9.352504021566325 -0.2304711162745063 0.05611638337759368 -0.5515823607350887
Ni 2.840117476936837 3.9373226701048893 1.331342804310761 0.9372974572189858 -0.6805093003165055 1.6978665391025598
Ni 4.204069655424937 0.5907887562971503 4.165433423625791 -0.8418619645267954 -0.4509835786744039 -0.3710742066422706
Ni 8.699876829991764 1.9178091477310901 0.49311734312513655 -0.8984118358973818 -0.4865892436931556 -0.7965745534439055
Ni 5.983467565481752 1.6413185274978421 5.3898792425591155 1.483150371669465 -0.5193031889864088 0.8975659429573186
P 6.79945320302349 0.5896466216086492 1.4494472743877895 1.053506692123418 -0.26237053608626426 0.808602431142717
Ni 5.937321268059345 5.505771345200791 11.032903097989916 0.970211177227871 -1.3355040013016741 -0.874582594688268
P 5.758856961607533 3.830299395419686 6.518100905351053 -1.5408343566444946 -1.04001817071868 -1.770395302399906
Ni 5.42684513694457 1.723987323998868 11.218564051344979 0.11799358049836452 -0.07080406729675548 -1.7478845228918996
P 7.88626948744303 0.41122010976719015 7.264073409941749 -0.7437191002057708 -0.5571667968014018 0.584112215041994
P 3.682679178295753 3.348879023289214 12.432080775147659 0.22707931698413794 -0.6181078552611484 1.0317132503974102
P 5.457255970983027 8.024579324943186 4.827272360109303 1.0891110715905887 -0.11637687083054796 -2.2252190807560064
Ni 8.432991571707007 4.756838877345545 3.6079813573003516 3.2380362655798622 1.3383491840599533 -2.9564613886510047
Ni 5.341005280452872 5.909592929536254 5.19704100051586 -0.11448556734510605 -0.4969687871552667 0.22893282525310896
Ni 0.3935700267318964 4.355257315038377 1.7014598925883855 0.42080551242912684 -1.9543731602088794 -0.707685089400349
Ni 9.170161619364292 3.22181538691877 11.59351331882932 -1.1495466511688268 -1.0297581835535685 -1.8098532512852121
Ni 7.323553830260981 1.776770723727333 9.224197772153024 0.7118402492193031 -0.10105078199643885 0.9552298733276904
Ni 7.605381786932018 0.6724638310917967 11.468161501761982 1.128205209378573 1.2111963056598236 -0.21397054751632186
Ni 6.693434711881841 6.287824797202801 8.966761166456756 0.16633289103370064 0.29508113894540794 0.3494286033480369
Ni 5.189310619968831 2.3709573076772794 0.8912024430646827 -1.3707494547675296 0.07933293070337305 0.2471814870506517
Ni 1.3455434377864335 1.9454360860800615 1.9407495543961717 1.3266797181418248 0.8208018014223865 -0.6973965629901474
Ni 8.825548518517463 0.2765081348087779 5.188837726429524 0.06899992420848117 -0.4046975511236708 0.8594634796586424
Ni 4.572262905853569 5.617772446615539 7.436458315045164 1.2313265007507954 -1.6427891385124418 -0.4783984803522471
Ni 6.137263975029378 1.9019815023706685 3.092581786822151 -0.3572054190799784 -0.09337989571474241 -0.593575674447739
Ni -0.050021627713332566 0.1640617944476647 1.7041313262665743 0.3456010020718306 -1.697025274148187 2.809952217211451
Ni 8.600808859876183 6.0692613309852135 10.616102291367048 -0.731728760613114 -0.4285087946106556 -0.03578872756383514
Ni 7.983724272970333 8.535977275822692 13.449926504770069 -0.5782125617281074 -0.5235995023689176 -0.9567879618434295
Ni 6.975511559889356 3.8891483692000772 4.664534298843792 -3.2822810943308505 -1.8081162139894473 1.8062701619196442
Ni 0.630776375871392 7.132165610707647 6.553624151804706 -0.5459650145483113 -0.3914532845192549 0.4399376052728875
Ni 7.723254880248099 6.325269116046151 5.11874808243801 1.0137965180179895 1.1344941277110783 -0.41084274478946015
Ni 0.2982225211867681 4.671736476665631 5.582946095904022 -0.8149821094168157 -1.0365289266184987 1.6533699993520818
Ni 8.331591397586658 2.002754839051 3.616777361495409 1.069484555608913 0.5173368092886573 -0.27336637297613564
Ni 1.9709151843772108 9.152619389241472 10.368448037014096 -0.7342271015549355 1.130204499196789 -0.6570091603120363
Ni 1.6745409118187273 7.021915966845887 9.63736937436215 -0.6102197107623233 -0.45478289781583614 -1.049365673371851
Ni 6.601344917385271 2.877921305488432 12.718902229484241 1.7137747256923839 0.1394754045212243 -0.5072956230025715
Ni 3.7111634090259233 6.1719243981832435 10.62296984861429 -0.04458961368491676 -0.18463194645320458 -1.1476147242534365
Ni 7.452599379125595 5.965298497918915 12.903253276953624 0.7796687788275024 -0.4696292188000493 0.5722982531262015
P 2.967531404817878 8.493555130249797 8.016172328688844 -1.372885784384242 -0.010678819870084833 0.9803644636117891
Ni 5.505918836363148 0.33171684233824866 13.3162091733378 0.6959467179174982 -0.9698337392837943 -1.6353709916714996
P 6.546948333068527 3.4641710212640495 10.578176782606507 0.5839695188165426 -0.0374512028679226 0.18812453298749537
Ni 3.4083732709049164 5.535297232265107 13.304565667889491 -1.697597344601573 -0.15203652901568654 -1.8633319399296424
P 0.5490561319082738 2.1217802070729945 6.078835351061704 0.9108644598384377 0.3928861603110395 -0.2607152598710284
P 0.7724886501231671 5.226625884045119 7.955904674290533 -1.586826507103893 1.473035137612334 -0.2795964130462475
P 3.9125902458171717 2.1407696942264414 2.6018058658994296 -1.5847045756648837 0.4309441435250256 0.48381528049244427
Ni 4.211093922032183 2.99300128491738 4.7292949027754 -0.30451631621637876 0.17788280065482914 0.3580808797063962
