# total energy = -340891.7570439672 ev
CRYSTAL
PRIMVEC
9.08544275852721 0.00000000000000 0.00000000000000
0.00000000000000 9.08544275852721 0.00000000000000
0.00000000000000 0.00000000000000 13.29746384773366
PRIMCOORD
 96 1
Ni 6.425161663950115 2.0026224229164433 11.479408119888044 0.866916593502578 0.5753475814754866 0.11082251667122206
Ni 4.331675725980263 0.2718746122548951 5.97588014971638 1.069576343991771 -0.4485934811756726 0.540227854954218
Ni 2.7939554193804796 1.656112713825158 4.676744483817926 -1.1233052009737945 0.9823341857436502 1.3892590835359429
Ni 3.529294830875597 4.438166202926668 5.143844368786864 -0.199558742966366 0.18746633057820616 -0.9257256932209864
Ni 5.190350025671562 4.3721241180428345 2.5992289374849995 -0.5163998992966848 0.17773470511273906 -0.04064399877360742
Ni 7.28779721677243 6.055792980368841 2.6107174801092405 0.6108475741543092 1.323136737985573 -1.913079186556099
Ni 5.087866229070978 4.596779866140587 11.334000148018003 0.2535616795453826 0.9338802040073206 1.2485860591621916
Ni 5.371359305784457 7.882721107304601 12.40406090636245 0.9192058898245975 0.4668796810793701 0.2231596702147576
Ni 1.8881549270502407 6.450664502341767 0.19302023570739557 -0.3479049676146589 0.5265871242423318 0.7743746203080986
Ni 2.854582580259531 1.9761292712420369 0.2984604354475042 0.3710454102868642 -1.760986093270864 -0.9632637993757603
Ni 0.598350919617077 0.06521167539719475 4.832179150539777 -0.5021066226024642 -0.11081326069984142 -0.11748038830737187
Ni 8.53589177266003 2.1391312034061403 1.3871518031278698 0.2071455541746884 1.4599453943079115 0.34716243302167954
Ni 6.857919483070598 0.9111063910194889 4.995976967507268 -1.0584185276027385 -0.6540431357051768 -0.8628485940807914
Ni 0.8020292884620741 7.416419832771941 2.339010948549125 -0.6127586751340931 -0.8561920079962223 1.1388578039964128
Ni 7.508010183262232 4.122119984083766 3.752158929621432 1.1189710923748148 -2.238824330244267 -0.6425477334710676
Ni 7.582628926301293 4.200672723924959 12.539189608066366 -0.5793901269759764 -1.5088652599370658 -0.2206639003760974
Ni 8.008181989153668 9.000484983916014 6.946555247509958 0.7494112654945416 -0.7333480413840918 0.09207917462544787
Ni 6.700832174274135 0.7595448486319327 0.37257766203511505 -0.05342778080183702 -0.8326221910960822 0.12391483107880592
Ni 1.8624794652423282 6.404982895133635 9.249835874526182 -0.19569746023874682 0.565417209735652 0.10592430803865628
Ni 9.289592864379419 4.844794288091188 1.3337357583269993 -0.4354366320787404 -0.5107141617658172 1.2793251401172614
Ni 6.508248039828869 1.9576585657022327 7.172146796232699 -0.07146098415446403 0.15832287624503055 -0.6200009585188032
Ni 3.0856708219737037 4.310770121726899 0.06969261586558202 1.024286618916036 0.48156787921916416 0.2964764766310378
Ni 6.07986940421561 5.942115918040249 4.567651936007478 -1.461630238209502 -0.6888278474845299 1.6257360396848968
Ni 5.262969971259193 2.783470818203434 9.267415298111509 0.04353828960226695 0.09516269864677804 -0.24839324797056578
P 9.196467074028709 5.622435522012928 12.623030075710885 0.7520738999283693 0.49677004088089927 -1.4895801864552087
P 3.966722567678057 6.307296212416481 12.767121566895872 -0.09703831840293611 -1.5220668462290043 -0.8555070661140557
P 2.3539746731059656 8.533402361288704 1.5668273402140827 0.5883193111448062 0.677069421397021 -0.6230130058722496
P 6.460049764920527 7.917981711436416 5.899419787389115 -0.930139763128282 -0.8319336496694898 -0.003933273616135161
P 4.811786873813711 1.0161795388639714 12.568004998961614 -0.9783546322706118 0.5994727566584644 0.9821125566511472
P 4.273783283432486 6.109769597000408 8.3695836478024 -2.0563814210225813 -0.6931177331091354 -2.595879596899626
P 4.711392729094167 1.07434454470058 3.944068015654692 1.4493359942231814 -0.44050993283658973 -0.4188026230664852
P 9.326661471660481 5.698671473899055 3.6516166921816224 0.34791936579236205 -0.8426680053678585 -1.8497277188826466
Ni 1.435427304301381 1.1950900816528642 2.6857150861197767 -0.18473556191060445 -0.08348294831600461 -0.6353694705550735
Ni 1.7827365323732385 6.692991436998753 4.920141683655723 0.19983539366652037 -0.9010171347307128 -0.784828725761887
Ni 6.009757040885227 5.583168237535293 9.36738515264477 1.618572174946606 0.6051415249084675 -0.06786092550803151
Ni 8.890850943705086 2.1756455986665793 10.514703975208462 -1.3114377043810899 -0.4861652687818595 -0.8817634287074234
Ni 2.568000452939297 5.0747559348781905 7.249737387664318 -1.226168867809256 0.26292203771436007 -0.4220118740324022
Ni 0.8159727177743894 -0.24934907352157687 9.078111917119475 -0.27745262723036734 0.10900783205998646 0.755512493296273
Ni 1.7481664219064632 1.1476186421814056 11.6307597885432 -0.9902909786968815 0.8673518812677836 -0.28990088029604916
Ni 3.9477703336613175 6.936990093160571 1.6560527499016149 0.8245802946282121 0.2580618814085814 -0.4534014440872772
Ni 5.727590438844061 7.770661253823075 8.104325963656036 -0.14179762489649772 0.7018759389177396 -0.8375101153160027
Ni 5.359321093861072 3.0409431862764804 4.790291624312176 0.3444776871006648 -0.213570998085058 0.24486697998486218
Ni 0.8995597015602972 7.345653317548363 7.147746022072221 -0.5640930916075899 0.11802237685377093 -0.5529211341511704
Ni 5.451447485486066 4.234216179337136 7.244431488975067 -0.8285639618663085 0.6841366126564475 -0.20887410683002092
Ni 8.3604882108541 6.87549981520022 9.197363807248966 -0.6001407292597665 0.9649036489720284 0.9367742377256639
Ni 4.598324391443965 0.5008577568349941 10.444427165360487 -0.059316378372130094 -1.5420263200700668 -0.0009759907600241256
Ni 8.190944759758043 7.074843519208502 4.815756303843393 0.6461783882451194 1.3339356283732897 0.5980247113580281
Ni 7.288769359169263 5.927915370692136 7.148531004344056 0.4649089305062445 1.342381702258114 -0.5863310770701838
Ni 2.457058108941979 5.187715247212861 2.66822924259695 -0.8544855668280767 -0.11914029250829804 -0.4670136355540731
Ni 2.39366897340277 5.387204318308519 11.226211361272464 -0.6935381084760055 -1.104377510831356 1.3904883279573537
Ni 1.010401197140747 3.444663929693465 3.715192079301533 -0.3182740321221035 -0.13164716672605714 0.11562302338365893
Ni 3.669555899308205 2.2785927528581773 2.4829025599889674 0.4044270710711035 2.092899313442957 0.5970024407411009
Ni 0.9129325650546589 3.3731614935900427 8.436656021918019 2.6114694809180827 -1.0207881188444743 -0.479898204826225
Ni 3.593919586657508 2.694369879084468 7.100234606651735 0.1218792887060159 -0.19663694133388068 0.049331499245276335
Ni 4.011513801476007 6.683369952903006 6.0742682286301255 0.8040983726247765 0.8279556388583482 0.0970545163528522
Ni 0.7007929231800407 7.684385887464994 11.52600281411376 1.3324513305182795 -1.3598081252646774 -0.01314579335333865
P 0.3357252882965253 5.447377207039518 8.025884066218968 -0.36000149376787677 -0.4181575332833185 -0.052564147249961085
P 8.763000590357265 1.4157754911766411 8.217420649090824 -0.6328647018553488 1.5927647269651988 0.49162834877895983
P 1.7914222158439972 3.0700075183088624 10.484811050778035 0.8402910204952496 1.2507555560096846 0.3438081718374659
P 4.092755832433669 6.078097742838205 3.6570688665025455 0.4240643856860568 0.36874478717814557 1.4637105177772984
P 6.893052891000958 3.8319309359079967 10.2735145380102 0.5439896359894953 -0.5258577022754749 0.7035533266201626
P 6.245914959771663 7.794074440333687 10.204008173725319 1.0170962718151837 0.14394243915364244 1.0430903818861004
P 2.3563732300476814 8.479207694026071 5.91842199134214 0.2120782155896154 0.31238646299307493 0.15215942774679603
P 6.991003051563981 3.8517099452341914 1.4087333643375355 0.07998496246507515 0.5486194214520229 0.479674004630561
Ni 5.29572299313376 3.059995360165791 0.2998750389165389 -0.339549396561112 -0.31593895623102364 -0.13987778216596555
Ni 1.575543005646613 1.195017398109176 7.030010492372931 -0.3672206372241353 0.12829907618943068 -0.30601141270466653
Ni 6.773052360371479 0.8815396339913609 9.371707097861341 1.088545943115738 -1.3751077317362252 -0.6461105111216615
Ni 2.781644644168264 1.481481414670917 9.205448942939999 -0.14917951918286565 0.13834334779931012 -0.03976802392655732
Ni 6.246178437617534 1.8565012437739605 2.5273421871443253 0.6163510204710417 0.41540362468726527 0.5251347080665214
Ni 4.032065073453891 6.855212021068207 10.324895443587796 0.6299434144434958 1.4676689882044143 1.3401134750492276
Ni 8.263646474332324 7.31153747922964 0.46418254923414476 -0.5213608428463861 0.12121028766344931 0.23423803951610625
Ni 7.8382024367954815 3.7577664650169886 8.162116649242648 -1.8607932326681886 -0.11060140179935146 -0.01973707341761117
Ni 2.9475266617510187 8.496915222357147 12.686166635935777 1.2805168464325174 -0.0337837813186644 0.7884688936176356
Ni -0.14414691238704758 4.615550391298107 10.40768563402602 0.47394995766259024 1.0218368718239628 0.10232013562716571
Ni 8.509507646301156 2.353602169944563 5.732017775198978 1.0610623929834888 1.1011831722637746 0.5456392557777764
Ni 3.846367704773097 2.7058357081013065 11.315915573804043 -0.8365042997593078 -0.7175866647847771 0.5493452438744539
Ni 0.8874733367892194 3.4123470090810284 12.579400870067653 0.06414233900586373 -0.22573617269268217 -0.03202694652855775
Ni 3.113472277434501 8.261138892075076 8.124431140384532 0.8521913714772614 0.09083398936443711 -0.25150402568540553
Ni 6.027210176813394 8.107104292113522 3.6443565147114514 -1.979908328365506 0.543105176502013 0.9281602708044079
Ni 3.1083026603896666 8.48980132051865 3.6316041869713294 0.5854651295254627 -0.5382193091646215 0.4436106832491005
Ni 3.413555372994848 4.236587479949969 9.308716813268122 -0.19350688034533126 -0.03828192629933407 0.23873901271025336
Ni 7.426204854840986 6.48026487550885 11.652701133294123 -0.620238528450906 -0.5736126010622509 -1.2564999146926297
Ni 0.6089445461096551 0.20934041689832025 0.4550607645012558 0.40651403550711923 -0.6569482251671137 -0.19334567217711862
Ni 4.425719146070037 0.37014003768866677 1.515206578942315 0.660295801483108 -1.4089267371681993 -0.5374443786718098
Ni 6.044145442492781 5.657850578675081 0.32705232444591203 -0.9630475695998961 1.003320301077014 0.5300311169268743
Ni 7.887272914228084 8.809645254519268 11.462453774778437 -1.3283833310964928 1.3231814751805793 -0.3662132790055435
Ni 9.22908381425886 4.818501016161924 5.621223523921925 -0.03922063606351955 0.29804999176574476 1.7152597948783426
Ni 7.97663733119292 8.903988494226757 2.567049207061275 1.1933610772506158 0.5924065938403024 0.0555823652509946
P 8.512315048176118 1.6613459289707195 3.62813354776021 -0.053978511098984445 0.22782982199691731 0.29947746824089067
P 1.8807139492651448 3.2725402127964722 1.6200562248899557 -1.1188993585966152 0.3038977087957734 0.3326981779672335
P 4.8433042754455755 0.9292863623845394 8.088115716324939 -0.8313903755715101 0.15484648766065587 0.37972828277284276
P 8.458120380913487 1.5489680849855572 12.558630638914408 0.21480615604373973 0.4774278889088617 -0.4462311515910831
P 6.338486538101748 7.93114651828697 1.5950976045316698 -0.3947944330773459 -1.053945065212417 -2.429049968735165
P 1.7460313428106176 3.351683506430133 5.958753181190515 0.5125345028040077 -1.270771079899663 0.025786107825168495
P 7.034540494233307 4.309062058450222 5.778239966263293 -0.4463756475887474 -1.5375130055807456 1.1953917345273994
P 2.500277561107669 8.581300816579331 10.558253228953639 -0.19529559681463785 -0.8679746024534472 -2.1807631644354766
