# total energy = -340872.8247403777 ev
CRYSTAL
PRIMVEC
9.20685689058803 0.00000000000000 0.00000000000000
0.00000000000000 9.20685689058803 0.00000000000000
0.00000000000000 0.00000000000000 13.47516570273052
PRIMCOORD
 96 1
Ni 1.7172629397649906 5.174686272282295 7.078235229447248 0.3550798880965433 1.596192264589509 -0.816927920289277
Ni 8.220369759586056 4.925383002483044 3.4951880179468993 1.6442906627586327 -0.639757315210124 1.551484123048857
Ni 3.535948614595664 7.806567578437988 3.8031362038271133 1.0549413676874153 -0.6064214200621555 0.15756028704739317
Ni 2.530707156224976 6.692574726948578 1.8105633857171162 0.3653571016528353 -1.039520662256971 -0.4395529682399591
Ni 8.451581555673972 7.821648409959193 3.9532088911767986 -0.018436352328316637 0.8239876553495359 0.03980890446682176
Ni 7.861569341263188 7.103559609900377 11.794731222333594 -1.4434967618335848 0.40730567817047914 -0.6344883535017009
Ni 0.5383976542209047 6.437231759055364 5.356189327548396 1.5261052779644362 -1.1740670049076942 -0.4161348464263349
Ni 1.6276433951817157 4.552974849735059 9.638045260176819 -0.3995761707367054 2.007894272055471 0.3053953763872224
Ni 4.740776315772622 0.6279536714919107 3.1231932530715043 -0.062359793184144204 -1.9899942518465987 -0.5708854319390749
Ni 3.152262062205753 6.668738174562499 12.872192186525698 0.13010681882213077 -1.9340745578608434 0.998915230030783
Ni 6.533664377708048 4.672912573927202 12.834879557767467 1.7555070724341635 0.19975980323357856 1.8936629868130161
Ni 2.140456114900621 0.23968762850453496 7.884494414821063 0.3652617137255516 2.3003364307161354 -0.18569355494849954
Ni 8.741901372742435 8.595678072241965 9.837194177282688 -0.4984883091235866 -0.31409418971280095 -0.3223464024192642
Ni 5.064866883768909 2.4948004145078224 4.405543609615797 -0.3415165475898118 1.4274780178078255 0.5066695593827985
Ni 0.7945204428893603 3.0430134988171007 7.945672137221612 -0.2336898803221201 -1.4926210301640617 -0.4494972239368646
Ni 5.2697470692642465 7.3461142536281745 1.834805960490305 -1.3164513555455972 0.8800942685351165 -0.17679393846602456
Ni 4.212560524542743 6.240831088719386 8.979446565657845 0.20980998838072898 0.10808814845919448 -0.4258536163759956
Ni 1.643654119244826 4.672019508812698 3.3464088939847163 -0.11933415368665898 0.31677199365528025 -0.9046907269275581
Ni 3.172922248978392 1.936864889364361 6.511631448578992 -0.32165271878634927 0.029059122149485434 0.06860680253512055
Ni 7.589534341899923 6.7052525688317886 5.888970799090464 -0.7833158886617864 0.03939187153406119 1.5480473294531663
Ni 4.123548632511604 4.89765194964918 3.2303472565266556 0.05245256137276128 0.6446475534228898 -0.1266808238597173
Ni 8.71481479988811 4.981204175567941 8.020230184683069 -1.7019291392077074 0.7226648506386328 0.23610003242550948
Ni 6.944980707506466 1.36576355892461 2.4372805763339973 1.7928765142215575 -0.245364488446571 0.43448429546780015
Ni 0.9979128003176485 5.627995076176082 12.885923292832612 0.3692471807358609 -0.8949367328645876 -1.05347532466485
P 6.586290771465804 1.4622698324320977 0.2668469355279788 -0.3304556617899599 1.691682521779035 -0.43562586527141106
P 2.3332016630669306 7.502529544662204 7.009309937006959 0.7590253915455379 -0.9022895736852332 0.5302499178058997
P -0.2368822992221717 1.6716061366431023 9.761598517054173 0.018292113440968497 0.39320523421335507 -0.842437377414291
P 6.489434637397996 4.634740945424812 7.675710522021091 -0.09568694658136424 0.5110363209919263 -0.5238818094960268
P 5.7986717884716175 8.273926045885718 12.25378970833055 2.4231467158768525 -0.2050022825794405 -0.006754802225330302
P 3.3169543175484297 8.690692834939663 1.8067499056096175 -0.37893149790316033 1.1028142801092942 -0.7516990330874538
P 3.0878969259635425 2.9896505565113003 2.9020252171218552 -0.5313626912541042 -0.6976022512430501 0.3148781190666771
P 2.991381445599204 3.7860252603703617 7.963620904651762 0.21943645572689952 -1.3721411929087337 0.4875513504961087
Ni 0.2338974362312227 7.710033684359949 7.6344223724747895 -1.4859161073400604 -1.8887375244869409 0.12445964783868241
Ni 7.96716278248217 0.15549184329192042 5.637564683186546 0.2335574685093139 0.7368010329296987 0.4502073626300117
Ni 3.0846284917815967 1.6698844544120492 12.106115407190435 -1.2465482027965564 1.065241206951527 -0.44453268084273767
Ni 1.5795836024218335 0.4850540463144905 10.969094365346422 -1.7271999979593544 -1.0536607012027788 -0.9088548856075765
Ni 3.461971519801477 3.8711518588105673 10.964405313152435 0.36120579848862305 0.5454708485207121 0.5470633898188126
Ni 3.210127157511473 4.338593187969952 0.9411203038350175 -1.4649387337574449 -0.8013778883698198 -0.29386809247391327
Ni 5.112208541694448 5.702460134383347 11.542920925413938 -1.7385089952142703 1.6775879913591818 -1.1689091148558386
Ni 2.7068435346328896 1.8116516361968515 0.9633060667877931 1.563918749267784 1.0593667504486208 1.0405254493724014
Ni 4.5511610989355 1.5653129743034777 8.43137066351564 0.40051179517709734 0.2509075297519872 -0.4975370009539109
Ni 0.26659282627890357 2.881110921100141 2.6885108412720697 -0.13582623780441122 -0.943358318701085 0.20280476070748943
Ni 4.471337650041213 0.5165433381147491 13.549683351302006 2.2317442834690335 -0.46601707596875874 0.8691483110465742
Ni 8.442218182256962 4.096406818516177 10.530357253790005 -0.7805383259166494 0.15432892459428907 0.1605597359953493
Ni 1.3964500128075004 8.552783326175241 3.1196891233541844 -0.19675058409360954 0.26175064311407825 0.024531152372144847
Ni 7.575116404071958 0.8889119013782764 11.368754814372041 -0.12794554950475387 -1.5266899468233126 0.7290509566706348
Ni 8.967506193008363 0.7668078037691983 7.693848030016678 -0.2149028295226041 0.5922932081908896 0.9646311120369322
Ni 2.670605346069116 1.0874034489050157 4.181855656946151 -0.6722285483649519 1.4653596233449473 -0.24902265402444856
Ni 0.9637737751158011 7.3183647870806094 11.376745445432636 1.5049317292106146 -0.9525160739409531 -0.9457823547615453
Ni 4.761537777970617 3.000302889887389 12.827279297437334 0.7003124510853616 0.7599856985762782 2.020657228148094
Ni 0.3320581819147547 7.5654952386631305 0.9988187550317428 1.1781640577952033 -1.3347663518047013 -0.09776954014200581
Ni 7.614328407398459 2.554083365768528 7.010859451014907 -0.8776859162039401 0.7101692892747834 -0.17756141275966839
Ni 0.7967457401901388 0.8562809593285493 1.3081811141242015 -2.78504028446112 -0.09595305575855732 0.1237464238217417
Ni 5.195410907052888 1.5645764257554335 11.096704163352129 0.49418813908633596 -1.101742130091038 -1.447243887580843
Ni 5.213124899633351 6.355198664516945 6.44131776212564 -0.23623810066527057 -0.30098310625213975 0.6006433799277978
Ni 2.63432112322109 3.6791152386217503 5.0495356257413695 0.14927027912445906 0.1044027291878073 0.29418948036907394
P 3.5349911014832065 0.3978733981109269 10.017640285382345 0.2691973292001105 0.702346707906571 -2.3433977806819835
P 2.9908014136176195 6.19954754260151 10.708363544824264 -0.4873945132032702 -0.7387478722434244 0.717342409984455
P 6.575758127228772 8.58707886794355 3.1782797189797285 -0.28855310801890305 -0.7891983155844925 -0.23728916763760427
P 6.246530133109878 4.291656631745837 3.356003359508677 -0.7428125292311014 -1.4328693640267258 -1.6904625333290046
P 7.180841966303912 8.338512146692342 7.959632494264104 -0.029711411021503667 0.555303775450734 -0.24241106224520187
P 0.6516972346237997 6.443520042284291 2.9405098787571635 -0.9494022109023198 0.5860248586836746 -0.044962937863935466
P 5.520191989312967 1.3447995458759026 6.1335454272112715 0.20016012399579078 -0.46180792298341755 1.0774513758644737
P -0.09538579902877563 0.9995976551212996 3.6519992038255036 0.3440873936407816 -1.0597009938595878 0.39403184387970847
Ni 7.73188155566631 8.838002544548498 0.6752097056487398 -1.4331670977728028 0.21143903934371974 -0.7188236225156717
Ni 3.6364322502625903 8.892000759976987 5.813078678071362 -0.02973249406742622 -0.22080659660154875 0.444131331639261
Ni 8.343364160252582 2.529823297967323 12.705787455808819 0.2054141733058785 1.203776616156985 1.3342271914717796
Ni 7.729846840302337 2.5279635128835114 4.5378700803860434 -0.4615703530513147 -0.35931398078254895 -0.8728229316846838
Ni 1.1449647179346678 8.833168944701958 5.766939435650505 -0.0051177808425395726 0.8981678382073758 -1.6218637012136843
Ni 5.040855401102668 2.604159460178681 1.9602862125064806 -0.38956352369570973 1.6757398824068497 -1.2257101830052826
Ni 0.9336857669281966 2.758309864427476 11.180183655101771 1.2557874620066374 0.3364347621915303 1.0664090020073829
Ni 6.791493196950911 1.269754455687052 9.11391455133153 0.7947385286764312 -0.5919489374775935 -0.5744055292771915
Ni 6.01379920564162 8.080977946868696 9.89625616397898 0.20555044177342666 0.22075620297958753 0.43838800139758044
Ni 2.47641432137727 2.258101331736977 9.471949879850118 0.3901263381777152 -0.35322560849662393 -0.023856237792307302
Ni 7.336180055086428 3.501432108262944 1.2839827322638953 -0.4459573291044061 0.09782841840439925 0.96290718736729
Ni 4.482772566249599 3.994275155473001 6.451734399966354 0.7884943475389323 0.3772854776593051 0.5543390975446195
Ni 1.9893992145536115 7.76523799803586 9.28491442430252 1.1987421390568709 -1.7438982845506417 1.1276362242489806
Ni 4.957542553462022 3.944014923925837 8.947415910674774 0.15259342996042108 -0.7629920895027699 1.1879260222779735
Ni 0.19125219598515011 4.647299098168966 1.1809957522193038 -0.3241073509744289 0.10372267240164718 1.221136190481355
Ni 4.555120047381237 8.46835644885568 7.947234540829149 0.19517038409068324 -0.6164050136374288 0.21759066076741237
Ni 7.513402842602706 6.636818001861635 2.154073056182588 -0.2150594097051264 0.5519939943512107 -0.3020814815226411
Ni 5.868376901687148 6.360004643792933 4.057695668202345 0.21054918053959867 -0.04013286346514378 -0.11412124202715185
Ni 0.6449062570108325 2.199094586181788 5.511329468908625 0.8532072143362855 -0.467725316909117 0.2559309511085076
Ni 6.608000539919406 4.286942721038354 5.460028862537348 0.7651250766853727 1.3311909757486171 1.100012034773809
Ni 2.242136641958119 8.829145548258266 13.23412201549207 -0.023822813451210584 -0.16427883671814933 1.0701676977188666
Ni 5.911464991747732 8.350536301739162 5.274503331513241 -0.8665342704624948 1.3752609694846378 0.29369145768673294
Ni 6.722671941993033 5.522327980102294 9.78712084492959 0.07468900417345847 0.421237714870539 -0.7301786425171747
Ni 3.908200250777189 8.28862939627605 11.551761349361838 -0.6579080179772218 -0.07721768413258315 -1.2794336406706677
P 0.21958537725703933 8.8455245465954 12.604077466809397 -1.7473970417325198 1.37415770911813 0.23110360765218263
P 3.399235997221815 6.117192208073321 5.0646542053756605 0.6521724010450252 -1.9012084032604417 0.12604396160666678
P 9.092194655335392 4.209734019489623 5.950013180695309 0.04870852094929676 -0.0038944499583997445 -0.45569049723177
P 1.2900371613288182 3.0838551158061507 13.40539164936878 -0.5317807526281294 0.3957208015463572 -0.29592497500294196
P 8.95842823215372 6.344656813423063 9.716537397570518 -0.16222606795417868 -0.1810149185259076 0.5651372166013879
P 7.918255958892037 6.149047932776232 0.19491192158324458 0.9771539270942914 -1.1153478937999308 -0.4414144469287301
P 6.06399498919083 3.559960097261904 11.108144603674626 0.16225332164768833 0.3120594186709593 -1.8821447017607713
P 4.8055925880005095 5.625877499100454 0.6583814126973005 0.4561075301645306 -0.26109938268332455 -1.1997399841937662
