# total energy = -381174.7077120853 ev
CRYSTAL
PRIMVEC
9.19743269445305 0.00000000000000 0.00000000000000
0.00000000000000 9.19743269445305 0.00000000000000
0.00000000000000 0.00000000000000 13.46137243907264
PRIMCOORD
 96 1
Ni 0.8061467014148397 8.670263481654066 8.694188763424105 0.11451873457588664 -0.8534825794848591 0.4081276598511423
Ni 0.5863234603642713 1.7957435566484878 12.731011890711253 -0.06976996960528628 -0.978283155602728 0.07045105483271093
Ni 6.3369299817238165 7.205581516253258 5.179303388392596 0.8728314163251161 0.6410207553035799 -0.17687544243623732
Ni 3.4041538033780205 0.01581774481532887 2.335238288249387 1.24469572296885 -0.28248710433048124 0.9402274863815872
Ni 7.479122363184702 2.4992275941470683 10.8366874907937 0.3127389612364872 0.5938266141162806 1.1988485827277482
Ni 5.892813547314127 8.0099981805709 2.5535411936690835 -0.5925822001862181 -1.1399687776724046 0.199120884097999
Ni 6.42735914036105 2.121130331899508 8.323731808548386 0.6306011026321527 0.24984746391858906 0.699345459186402
Ni 0.1909065125359772 6.191490977906631 8.687229066074554 0.29191842494671016 0.2539404030410401 -0.037273282529161615
Ni 8.32129448887397 4.866784741279224 10.399058005691051 -0.25350074440046017 -0.15257877467240172 0.11439403607256429
Ni 6.371668685158808 6.176903849591065 8.152072763494116 -1.4536397638048577 1.2254217052305865 0.7876194011331468
Ni 3.5859134690603844 4.049464078836274 5.279281321693903 -0.6258705299257028 0.3937019713441155 -0.09267669900013072
Ni 1.0148263329653195 4.690249217389572 5.506400886132075 -0.6088698816026482 1.135485030869438 1.05357096970245
Ni 3.1839488688690056 0.11847672975849448 9.33419671891141 0.5172727888199415 0.42595954582624057 0.4862349456775303
Ni 2.0700845802277583 0.41128251929383797 6.932808654955076 -2.075068713019439 0.520877218341748 0.9199612799333834
Ni 5.762780243325803 3.9952360154386817 10.084062489942509 1.2607705170435255 0.37666892712122874 -1.44515872291704
Ni 7.196586427039751 4.914436640272257 0.9920286564484248 0.7631936639906146 0.8946076316599431 0.9606165915609004
Ni 3.1395988482273522 2.7320698012321163 0.28739585960141134 -2.624908122921492 -0.14429236629389344 -0.7940702989648131
Ni 8.264040470107007 7.170226584825114 2.0041960116104462 -0.004281143873857143 -0.21503241312193289 -0.26121405388431784
Ni 1.5600777377142094 2.5277304381886454 6.0489758379554734 -1.3188260264253608 -0.8213414759759403 -0.6852601847379295
Ni 2.1755975285481752 4.3253778634129985 9.44502394386533 -0.15730729049632264 -3.260828837994345 1.316033037061256
Ni 2.058799330263571 6.078877611515837 3.802420115867199 -1.096397577949673 -0.8249628747786115 1.8277553283766135
Ni 8.259929217675067 4.196880530691193 4.292185248420534 -1.0657358871997582 -0.05987070821370335 -0.667421871004928
Ni 7.708349979205426 2.6347057783137124 2.2503515025774505 0.362657186223169 0.6068363961123872 -0.5722010654267049
Ni 8.80863885713181 6.678724976971666 4.371581166750483 -0.48995044685590455 -0.14378380208859107 0.32825016949820884
P 8.579742348689496 7.822232591313464 7.211916707920197 -0.13334126659902842 0.21315859313798774 0.3373354196289287
Ni 1.5803212871609702 1.9578115188481098 9.212048374005642 -0.6715297225257144 -0.7770323696459198 -0.39080485230197853
P 0.02487905554451947 8.546484431924622 12.634345952937332 -0.3914733391239129 0.2759809277808473 0.9629274990822642
Ni 6.6142969606724575 8.057052246436246 0.40955984014282554 -1.5013380983220854 -0.4606894931082582 -0.5696016801306448
P 6.9548503025012645 4.231867564809993 7.632356191243654 0.28528934966596675 -1.7817150982880992 0.7677540296677875
P 2.102257199930061 0.8403160837636177 3.959918793484744 -0.8596331724672872 0.5114153015978999 -0.02793580717831963
P 5.530342723281036 0.807002062659069 9.820327026048407 -0.08906712727200145 0.594281442265512 0.6816824946890001
Ni 2.128626239577432 5.4128915072723425 7.573421801516255 1.3736416887136602 -0.48420428840074675 -1.941878113065662
Ni 1.2980060894016263 7.001821591472008 6.251138168670889 -0.6479159397615164 1.3619398268956995 -0.8422010930337689
Ni 8.87781274872158 0.020399905803232598 5.45480420823958 1.5740393826415537 -1.2375537126074299 2.150839894513483
Ni 6.175036770746134 4.800029774498402 5.491123030618211 -0.49783884846504584 -0.37474317085342557 -0.09748183369825793
Ni 2.6186838504916965 2.5855730926505616 11.508127672648248 -0.47620018714934764 0.11419246158471946 -0.8287231131519922
Ni 1.4258596018320755 9.153193082199753 11.06764422416835 -0.4397542856174878 0.5307975627792537 -0.37502007866389603
Ni 4.029717190757131 4.767204137072009 11.56442239918109 0.34620598264568114 -0.6663273523891685 -0.18287871120752378
Ni 7.974385721026212 5.763635604570032 6.601376407168228 2.8037622863506546 0.5754992765620024 -1.4172087746713333
Ni 6.4635510381679575 4.398267517827164 12.273581252676333 -0.3174759617008403 -0.987208997337448 0.3951356184668485
Ni 1.8240164648717234 8.300581870357794 0.7955632155682303 -2.5759682026876796 0.2474349978223545 -1.8673076367479389
Ni 0.7543863092196854 6.007284795117117 0.36997684888702204 -0.08445508242128681 0.09740444349310322 -0.28838290098962593
Ni 4.774580478124396 4.259248322058065 7.622152559368946 -0.44952216363752906 -1.2515207163104833 -1.2359691417291294
Ni 5.1190611237304715 7.888573673621271 9.765323619071369 0.40913913183479217 -0.6756954238676299 -0.353023776898463
Ni 1.7372478844624826 5.08207824670847 11.686059366826868 -1.3046412502845466 -2.1443465734796554 0.642538477499687
Ni 7.718126850201295 9.071473892361285 3.6084959256513116 -0.16873995781329648 -0.8644887007873757 -1.3649040517303461
Ni 1.009372255354266 8.263175911430045 3.28947469359525 0.2898222045393138 0.5182122699150753 -0.24505415629500377
Ni 7.755716757783716 6.637336529670248 12.447529538738008 -1.1046842434384974 -0.43105547229190927 0.23050274084339012
Ni 3.2609037885514436 7.5789145083447895 7.696728103203188 -0.7219624252549696 -0.1948507959677354 1.2042512418005582
Ni 5.137382409735899 6.169352757316739 13.149445413955503 0.0898626265901033 0.9752996474943719 -0.005459480452674468
Ni 2.8515260575767445 6.729458015930471 1.8302081765880158 1.1960483942747917 -0.8113170018604027 -0.5436865029267799
Ni 0.024592095643229634 1.7319869529388356 4.023927406851299 -0.21688515005995554 0.3972755476279868 -0.49686954257324106
Ni 6.941228904622731 0.2858093024548569 6.814066119390579 -0.8720680557965302 -1.189184577275423 -0.1830527748915428
Ni 3.73009242459306 1.8493002074565235 4.876368466187685 -0.6184187016333478 -0.9020021243518013 -0.06147250548318445
Ni 5.253049323794263 3.539935502824875 1.1155455793449587 0.8596365149013968 -0.014920625865574301 -0.6531509629082106
Ni 8.198444379850626 0.5913590547859439 9.90907765321175 0.9393224580688145 -0.05787733193275839 -1.4311354120547546
P 6.92932742666539 2.0455458296943836 13.41843077245397 -0.22217905146904318 0.6125007934870162 0.03190893289345473
Ni 3.1995109250543394 8.521614573812837 5.358177819426414 0.20252862422796733 -0.7054482296500302 -1.4469476964966628
P 6.7701382609114 5.966236652826844 3.4061312514157556 0.9727753384106214 -0.5117639431865703 -0.2558844141412884
Ni 5.0403219020977055 5.694572082173065 2.0923009789958864 0.48375408823720567 -1.1066609075488942 -0.42463542769817836
P 4.172111844339478 8.270368303827757 0.5075695228391318 0.24163227509764837 -1.2298136636506949 0.7994937839732296
P 2.867106508627545 2.9714237906925876 7.547522750681573 0.7486108810804333 0.7114239876174908 0.7774951682149512
P 6.034352839652245 6.053888186778515 10.881258249820961 -0.04889544014912224 0.7555227777089182 -0.42656066974534923
Ni 0.4315343464300588 6.911861501904191 11.251512861176538 0.8120369107455628 0.611011096315367 -1.3321453692420864
Ni 0.9325644945955663 3.468876137524706 0.9765273033191334 0.4935777591958468 0.052336604620187285 0.7493086784784063
Ni 4.898663043134049 2.150911619091062 11.56680545400238 1.2521107844859984 -0.5310626435151822 0.4236144426328317
Ni 4.224794739037817 6.059967689815457 6.031973463804051 -0.38332499898516564 1.1786895912813702 0.600627696198514
Ni 5.437853339711465 0.2890541567232882 4.471639117716572 -0.646561482616151 -1.1777909907265007 1.4940742176708204
Ni 1.577654031668212 3.338999189892854 3.7121353569238846 0.7139902056827704 0.27690858180143924 -0.8640744960680926
Ni 8.900705158795631 1.3473963031813192 7.680641793352036 0.38823554891290557 -0.5724162667613045 -0.0528888775792315
Ni 5.788588239576421 2.3798817069952443 6.043819757164989 -0.940955108576231 0.35722161702989447 -0.6243522935089635
Ni 1.3466881008608282 1.1475268924464015 1.6602856068338576 -0.3582929957172023 1.2756458914934612 0.6518111610508646
Ni 2.9365287309011245 6.9917228103304625 12.186741852035043 -0.05858412819179588 0.9573919139760156 0.1345370866793425
Ni 3.041443846093854 4.8725515316032215 0.2508820516488264 -0.008274067083334138 1.5704629781442052 0.9120114289586874
Ni 8.021025902418545 2.9672941433951796 6.186792929266283 0.4310639569323415 -0.8108053523313068 -0.5506670480096709
Ni 8.714420356208313 3.991722596134428 12.718049029016449 0.028314016453344786 0.20060801016648677 -0.2385358955605118
Ni 5.4989334904956255 3.4084398070319013 3.6710642210517763 0.29922652857234916 0.16807944141116213 -0.31687098112698975
Ni 4.7194694611843735 1.3913416367826923 0.4280632353163798 2.753521130806916 -2.477777515847855 -0.20938832746227812
Ni 4.252433024402431 0.8073865153473355 7.075688013242487 1.6571744606998364 0.02699915429666318 0.8060151300315151
Ni 5.836718405071604 1.095092328431871 2.39123777719148 0.3025831037494079 1.0591250667514598 -0.6165009157853447
Ni 7.641521432962736 7.543945869091458 9.622673276859025 0.028961163119040446 -0.25258928832978433 0.7345963119688961
Ni 0.10110093983808553 4.963504943906272 2.512740462319345 0.24655336654834953 0.8711920809494803 -0.766087954819274
Ni 3.567445024131218 2.535851771292457 2.5242096609382045 0.18641217828207896 -2.2728066007269825 0.21920634199396444
Ni 2.9731345131810465 0.4762255918261307 12.713754747673109 -1.2378763860541713 0.5856085970818624 -0.2758009505595573
Ni 4.067224321444949 2.6109488095626983 9.368146282617854 -0.523634212261595 -0.9911237590108222 -0.3460018370546751
Ni 4.248450536028762 5.700881521028347 9.252351524244492 -1.1056368371597538 1.2009144641178415 0.9307606845417326
Ni 9.189798864479673 3.6597136693151806 8.025872029725903 0.4922189311751071 1.0460875168412112 0.9672482379448053
Ni 6.919973637575269 0.20970698478682834 11.760649626553484 1.2968927166873796 0.6740501749547231 0.7318699141766687
P 6.953029210820001 1.7948606031060574 4.286827743853183 0.8528680858293118 1.166820607757926 -0.08875705223075037
Ni 4.891645401958276 8.594200712946792 12.044535745823735 -0.2833862191059829 -0.3876781337475388 -0.9378648996866815
P 3.1668140516862184 4.500331428872462 2.733964472375248 0.2051030698233629 2.2724525598216734 -0.3228140860843021
Ni 4.234176120426139 6.903123940807225 3.818789706646547 -0.1340498626302788 0.8772678548299149 0.8611789196878524
P 0.6076927755776305 3.044653750117898 10.876129761328677 -1.1195819864859364 0.925956835395186 -0.3596433390975096
P 2.1391848923556602 6.3252768344502845 9.889477924056344 0.20503827802369848 2.255831663435541 -0.011915006270031092
P 5.1190611237304715 7.92093943941098 6.813177647388508 0.7053173604991207 0.9152821292901592 0.22463779742218087
Ni 8.11766332815099 0.39047148824741124 0.9511387100011698 1.112385468737497 0.87490655368659 -0.13022920333260798
