# total energy = -340894.19270378 ev
CRYSTAL
PRIMVEC
9.04125465513280 0.00000000000000 0.00000000000000
0.00000000000000 9.04125465513280 0.00000000000000
0.00000000000000 0.00000000000000 13.23279009181603
PRIMCOORD
 96 1
Ni 6.38081114932736 1.9204257546577463 11.403039088209344 0.6463941038003513 0.48016945620974083 0.14297416170310215
Ni 4.835561293370117 0.4834955529315438 5.942237069614763 -0.49969595627844265 -1.0851130061747891 0.04316136587882244
Ni 2.869965430993368 1.8245974977094466 4.822955072154624 0.20727770887717853 -1.1640363601445696 0.7888442746791833
Ni 3.667458329604719 4.343029910643862 5.091474907460815 0.054453908073506224 -0.32049443681219 -0.34297256331004805
Ni 4.777661099248322 4.630315773888718 2.540682036250207 1.477861869577016 -1.047142954688919 -0.8104855070980429
Ni 7.2014496595801525 6.253248088917551 2.621547921047951 0.021823523632994675 -1.0056857159853971 0.02329907973725665
Ni 5.094312957263256 4.628281491615544 11.638026718649995 0.01603674174788851 0.21801412145807614 -0.19657240664453243
Ni 5.604809312775269 7.641740673531307 12.405131960727406 0.2140916464752184 1.1699103024268431 -0.6604827206829335
Ni 1.7595637537497224 6.5695292554960405 0.5622087150215425 0.05435234949863543 0.22241867828367504 -0.40381180608460776
Ni 2.606412860935539 1.6462135454884872 0.2703380315956816 -0.006902383546788112 -0.5536829520178593 0.4447070016370728
Ni 0.42014981119582623 -0.06311157324293894 4.767192230607842 1.1223454081636866 -0.31426851050713617 0.02930723360454953
Ni 8.501374114647202 2.3177436857449263 1.1958415327169387 0.47837508331347933 0.23295120238388267 1.290045868968875
Ni 7.051744566783667 0.37288303654727306 4.495827112495571 -2.0753890724733353 -0.06276551326299513 1.8367552178823785
Ni 0.5059901942455706 7.3642284064522325 2.597331824868092 0.9240048538751378 0.3056506869311381 -0.2921205136551872
Ni 7.67797802175744 3.7870198797400443 3.8191018673761747 0.06536618411063581 -0.12313887214472984 -1.020117575140011
Ni 7.450192654689277 4.065246405928366 12.701401214490595 1.068718623977166 -0.6770172280028469 -1.002022665311513
Ni 8.150410695624737 -0.19474862295182294 6.8467377364223205 0.0303690992101606 -0.6441875830673357 0.22419839589191715
Ni 6.7400744400243715 0.722157549220275 0.330151355179715 -0.04754535387913102 -0.593323706337933 -0.4640949192453814
Ni 1.7572220688219358 6.6707913064273505 9.259962494940924 -0.14264737449130274 -1.507569681054094 -0.7834976656552893
Ni 0.0030695059188553336 4.748656754660139 1.4008628290855611 0.1938110418493114 0.12695953144240069 0.49381867156205916
Ni 6.585631729845028 1.7270875674153237 6.996110111051459 -0.4062193870848359 0.7718613669679416 0.7818544736249116
Ni 3.2495715444221167 4.11845418894004 0.21675684477119747 0.20582169315694232 0.7899081971673235 0.8366490528672882
Ni 5.849221546956171 5.383940505435897 4.638410409085039 0.6807936643261436 0.23335280869767555 1.0097375174572676
Ni 5.089466844825829 2.8804623275229444 9.408526581413524 0.25904712813998615 0.07571230323165025 0.15975883736060872
P 0.24864987018728638 5.545091826489439 12.483059437797232 -0.22996769427552655 0.38739556951011345 -0.7069317561740922
P 3.983079484601246 6.1596620630970165 12.880850226497243 -0.6654212956351314 -0.49191271278859794 -0.8100743877025532
P 2.2311375084350136 8.664632048010295 1.4417654646581723 0.43415802247663293 -0.9424530332779962 0.004535940197140575
P 6.457128378962286 7.665193687827362 5.924373358879935 -0.2922506114751483 0.9007044885863005 -2.2195847652883645
P 4.638507150508697 1.0495178691211957 12.575993589164897 0.6641051479268693 0.26992829382886413 -0.15934540397227395
P 3.9558381846498136 6.237642883568673 8.041817995506365 0.9705947858195348 -0.09095714520586272 0.465105877008399
P 4.764469908863608 0.9997548040920948 3.8029053639798933 1.522581581081894 -0.43670341460630596 -0.5485818833458682
P 0.20153408448967544 5.444978014885654 3.5295294708562728 0.48456604261553976 -0.2903163705669129 -0.6528894817167079
Ni 1.3980130256522085 1.2271061909419807 2.6940244257511266 -0.3214246619359432 -0.1341799604502399 -0.3776274343797561
Ni 1.797419486539847 6.465907437127849 4.662467379184863 0.34552926829363073 0.11993270650260637 -0.3290747222820332
Ni 5.849357165774383 5.56951225502207 9.315804899527722 0.5429982186105036 0.6640650387175531 -0.5542113137175035
Ni 8.632002160348591 2.1851536878067424 10.138434294031862 0.5420515384265181 1.0894427438983947 0.6404782525365487
Ni 2.353330063643644 5.323138068604374 7.074368498037723 -0.7060161863383583 -1.017318415128319 -0.5864676026480481
Ni 0.8919432683666204 8.979059757406562 8.881821968874316 -0.9892728218450123 0.13747328648953097 0.47220186462323194
Ni 1.4621336029026415 1.0071957565846366 11.37409893652845 0.4302643438491815 0.5125309032595818 -0.973594491877807
Ni 3.915921045822873 6.834582673808744 1.7560973367562345 0.7763926791793919 1.412041114427465 -0.6918900313496212
Ni 5.613859608577256 7.765524489540286 7.8202747105777535 -0.4582783125636043 0.9385567835473837 1.6885884562347433
Ni 5.7236294800377046 2.7217973514699474 4.86692721364609 -0.8637947600441445 0.32085182015160874 -0.016933799640861155
Ni 1.1646944108010133 7.336408466209765 6.855974282067983 -0.790908870517696 0.9236487560872996 -0.13404446331364012
Ni 5.204742840305668 4.312542800309901 7.3619436814280945 0.12488696518408815 0.380256644472487 -1.0080115359050963
Ni 8.207008949091703 7.1475728237319665 9.190622401440256 0.2964898463674765 0.41293305165958566 -0.024628340071641455
Ni 4.7945501627429365 0.3969436231489161 10.314470232446853 -0.7731101517733783 -0.9977026977799204 0.1002110597039629
Ni 8.184017038777567 6.945500784596719 4.693644337240795 -0.4007259680704325 0.7215808735458347 1.1007946785761042
Ni 7.176278806920084 6.036556341179096 7.038997301997234 0.716630728629411 -0.6555639432250774 0.09150376173795209
Ni 2.4050912459277285 5.033004210177077 2.5506066213669305 -1.4787913233698209 0.23704002774127564 0.12065775759408898
Ni 2.3322277755299226 5.4343183757742235 11.488126334755288 -0.513758862129412 -0.8128126125693228 0.2974450111918942
Ni 1.1374350283404866 3.2897327971218377 4.029980088440627 -0.4258325333300731 0.2771538650430259 -1.1632722282850354
Ni 3.596882296607415 2.464094473104311 2.782550965526915 0.7455075595647612 1.2427655958256727 -1.4557406121979446
Ni 1.0830066759649075 3.5144712614075138 8.32091067388033 -0.03076941997237281 -0.692169253152937 -1.276403338484776
Ni 3.6458587724908886 2.520285870116641 7.086899676840472 0.4351334990160248 1.3051863241547392 -0.5569744782849375
Ni 3.7948948124508632 7.0862640766457865 5.892217232956515 0.7268020127354581 0.1697138916907916 0.2365306922050249
Ni 0.8832853630119936 7.494503843226273 11.344695872614723 -0.13068840235721363 -0.41781943321760945 0.7214170942744608
P 0.14782993660334615 5.629365360126113 7.96824388250113 0.6997966877912077 -0.176906809894805 0.17662398854706354
P 8.671250246339023 1.6325612511218552 8.006644802940466 -0.4231182197227036 0.002701715201879218 0.1869243420318071
P 1.851007002242514 3.175053524442129 10.375816952802131 -0.5416334770524929 0.24846986684477207 0.43228034583794583
P 3.8760581545232173 6.128424528635617 3.7837180135793194 -0.335950366355944 0.18318621514561353 1.219588643488577
P 6.806563825966233 3.897395515255172 10.401806943124196 0.31048564642593623 -0.0033740586785554797 1.3167460039678807
P 6.356779494740268 7.746926628936205 10.189049949364787 -0.49270101301784824 -0.036733865085923835 0.030860951244914593
P 2.4311391002788985 8.856903367216121 5.633357074008806 0.19717944410091204 -1.3221165242511745 0.4894629656965248
P 6.862266995233001 4.022372776864413 1.5931621761804828 0.29380587177741013 0.3637465626326058 1.358455725001841
Ni 5.447753680031717 2.979635848653796 0.3951507423721591 -1.6473114518628273 -0.14098027120152495 -1.205832213134433
Ni 1.4589510813019433 1.2464092694007616 6.845732348916646 0.17335148844337886 0.548399849242049 0.596480763909676
Ni 7.114355254524678 0.6527433174323167 9.218888075531911 -1.1705121976769004 -1.030019407634755 -0.31950584764667556
Ni 2.7420949679289466 1.58380176534752 9.096643081046906 0.04734172250875717 -0.1871950791946905 1.1334870266028025
Ni 6.227390100911878 1.989139289218278 2.3014468244231683 0.4284653429672298 -0.045015131258109575 2.4305185828608917
Ni 4.060490706036413 6.606724976704203 10.301608143727664 0.08371897558621066 2.0486925370187556 0.8546755713516958
Ni 8.129453067583777 7.155917901679253 0.37312353391823494 0.7493277046417998 0.12805147895499883 -0.5433586872737158
Ni 7.552838017566345 4.059740281908976 8.452272869450974 0.4168514128773853 -1.0812802626922604 -1.7595683869877308
Ni 3.2604029673699477 8.350367081195886 12.568966726130627 -0.706325490048661 -0.17590613654443255 -0.29389097529204866
Ni 0.0778813666716343 4.706171899541726 10.156060219772094 0.3053382978970419 0.77602089766227 1.3926670807762274
Ni 8.547954658075604 2.4521148108289554 5.919344613100649 0.7757398760867414 -0.19208763140030144 -0.5330480493763271
Ni 3.630660423596644 2.7392017664737667 11.530166360149966 0.08600288652438091 -0.47307758235996594 -0.8469884871200832
Ni 0.9361405370963183 3.39035291898028 12.559492395490366 0.36087798283555916 0.05674913186558613 -0.5336548297223905
Ni 3.1619256228392483 8.366388184253946 8.120751764207322 0.7682001160662705 0.404706035764103 -0.8327954834491527
Ni 5.422772693717145 7.708727328473278 3.8953096978310775 0.1724829697954965 0.46316392279067975 -0.4219979900753313
Ni 3.100309473098456 8.543886093529256 3.5332870162461876 -0.4995650871275332 -0.3650259435656617 0.13722208971067335
Ni 3.315672156418439 4.544667969560834 9.31535464505126 0.06633960376749864 -0.8927626080314044 0.1069622623848674
Ni 7.281193524688558 6.0899630317908136 11.312844436969552 0.5901561072432288 -0.21476141884873334 0.563259539962701
Ni 0.570557409470647 0.06029612657686662 0.15058119036213163 -0.46318577716755066 -0.5103254109678308 0.8515581087686366
Ni 4.434057261427473 0.40541256628350164 1.4741331559380018 0.34267302979175823 -0.9461081135320801 0.40297568333655764
Ni 6.0547563865830885 5.76508363213771 0.49597790895973726 -0.7446315847177112 -0.5012131642539174 0.27551221567454487
Ni 7.937624769850776 8.722767314750326 11.462864165424289 -0.4123211291071996 0.6026023034263814 -0.16908551407817332
Ni 0.12216543144498752 4.817135216602437 5.61361459057902 0.32910608974060096 0.6679443191673012 1.825444935075882
Ni 7.998382000409562 9.105357042179728 2.4172734323049467 0.06823244991483732 -0.7513308511147577 -1.6626650515007622
P 8.536806791218613 1.601866191933302 3.775394634642948 0.6919203703669244 2.1555229018114486 -0.645019849160644
P 1.8607263508810103 3.1527849144917885 1.6662860347092552 -1.293704805877701 0.16220987000426257 -0.7391520496603786
P 4.798437902198334 1.1461507977242171 8.168574576010542 0.7917156826897075 -1.5547427391954707 0.31047767600613624
P 8.530541201817238 1.7069798173018205 12.402326459441335 -0.9967866137235541 -0.7330755044489955 -0.9550496389960842
P 6.35122816444814 7.825305264607949 1.407876130238009 -0.9137579793361489 0.7137204969611515 0.5372636301195715
P 1.963091434867108 3.3830475853059494 6.054226569066608 -1.3267802482754312 0.09830510093050167 0.3664367078702592
P 7.09719495339364 4.065282570946556 6.084953272646079 -1.660002674177251 -0.4596775069039761 -0.10533269720124441
P 2.6037547320985923 8.383376701548583 10.272839775883172 -0.3510476270086987 1.1977476363540858 0.748940239395394
