# total energy = -340871.5286542729 ev
CRYSTAL
PRIMVEC
9.26040616834342 0.00000000000000 0.00000000000000

0.00000000000000 9.26040616834342 0.00000000000000

0.00000000000000 0.00000000000000 13.55354048357123

PRIMCOORD
 96 1
Ni 5.230054991168281 1.8161785823634446 1.9582017231795408 1.3193926975621084 -0.2417145503988095 -4.199543230165516
Ni 0.6667807087253818 4.7377995958159085 5.436216629148441 -0.6650382012640997 -0.6416051670521402 -0.5402039436948181
Ni 7.490010744103363 3.2196579162878525 4.736786507412658 0.26473183722958926 -2.314560030514685 0.1417613723419236
Ni 8.003213177555837 2.6355115133902522 10.14031112568365 -1.5357697976373936 -0.9925682047668325 0.06011290613149648
Ni 2.7408393698670643 7.865705410646731 7.567009166912699 -0.8099849133125405 -0.09749134677995468 -1.272688351527034
Ni 0.8530843323369036 4.137206712075788 2.9678054356967754 -0.4918183533025788 -1.9220500225961414 0.6007824766088234
Ni 6.751780447771819 4.614284302191174 9.041160214349366 0.39051817429949515 0.8048697035731622 0.052386998242148486
Ni 3.2202135406406405 3.9622869054123 2.4149017901564336 -0.35347089173821067 1.7142565504248088 1.1121761809401685
Ni 7.085747725420821 2.2523436993018877 7.851986119335812 0.07091513895332302 0.5414177614972612 0.5893611221457592
Ni 0.2011230511409611 3.5938616574845734 11.512580113671378 1.0737785549985768 -1.6266330975778696 0.9313114148388799
Ni 8.949960033082773 8.560837778013699 3.2571051455845756 -0.6049569197014872 -0.7411073736145366 -0.8862250640232028
Ni 8.248576891746941 0.4882799031081771 4.973688062710803 -1.1485040688369252 0.3813305942629561 1.991734374466157
Ni 7.83651661131361 4.7682292895369205 12.736383496472435 -0.2941478284978612 -0.08614378297761939 0.35986188286621895
Ni 4.416370907728151 2.3888050403465777 7.504066188147719 -0.043003757255035614 0.1600959089850533 0.507352701492752
Ni 3.6786869753435147 1.929174054908729 3.480169802417128 -1.7678352549822134 -1.6087217645150875 1.3151915149965672
Ni 1.6753648505552503 3.3608235435194795 7.5271486758437005 1.1230074672277175 0.2866780024833772 0.7016203712635078
Ni 2.855038695176722 5.3542092527987215 6.316600638018985 0.2419490350071188 -0.18845054886834642 -0.11474242055091852
Ni 5.00243421464287 8.369480750913572 11.780791101249116 -0.9004085546124364 1.4747780884453698 -0.2021948950376324
Ni 1.1584026923155777 1.2371254026997327 13.007996757170412 0.9003846433530364 0.7272905223361023 0.46356398644257585
Ni 4.016080603168041 6.127314237673581 1.0248898645030151 0.3266537715453665 -0.9207518941554788 0.10482593276815497
Ni 5.861568370141044 1.2012505903213988 4.020658021794425 0.4158579386158644 -1.0193593568177477 1.6561385632361543
Ni 5.771816516354051 8.464446213210891 0.6334330611116445 -0.02015050680594594 0.9219772819221477 0.04915306468588309
Ni 0.4016839956450185 1.511807561906274 8.644448130621212 0.5295541772904557 0.03164436637815841 -0.18991659189091162
Ni 0.6396680923905119 5.906249828511066 7.7828358905096025 0.4314395951042053 -0.9038111525360821 -0.6263703523802567
P 6.222733459859011 8.684640144220706 8.6126238197747 -0.6469546042895116 -0.7637037708578138 0.779516055299722
P 5.650847834346261 5.458648110311073 2.258615772204274 -0.43961338916424936 -0.009911088466124866 0.6873121821709518
P 8.952552946729115 4.975301225415064 0.9851645753598616 -0.5894534247492493 0.5645641177067373 1.1489663531853245
P 0.8585109301824648 8.233695419498106 1.5146486544301958 0.09477960427574646 -0.7893597808630212 0.9126937997376926
P 6.856348950966487 9.097746850518455 2.370419430512829 -1.013751780822983 -0.5158730802589373 0.4489729760022783
P 0.21558965720638013 1.8860205635088747 3.958975384269685 2.5837218784911693 1.1504416521792704 1.978097757519329
P 3.1533997122179045 6.635469749921567 9.240153372137973 -1.7749037317932204 -1.2128469538893691 -1.653436848034275
P 6.380790067415387 5.336401492291872 11.318018986136842 0.7067227254870796 0.4810030078546297 -1.5103246180914116
Ni 4.675866001291825 5.557475161860268 4.453680156977265 0.6777168251730328 0.49069272433856786 -0.10651129089037785
Ni 6.8815465153654145 7.449700197308606 10.659114252612227 0.5488652189142418 -0.5888325033357987 1.3903883120443796
Ni 0.17731176950223881 6.241772854347873 3.0338108306862046 0.24133814089599726 1.1193277043832852 0.5721722690712984
Ni 1.0785316916023278 5.751036165559786 12.038444300083299 0.3250460607386144 -0.09762452992370929 0.3372510874452385
Ni 4.8280329907086506 6.851579841938391 6.745854714049337 1.3072856298859292 -0.7998113152136483 1.1960381098621466
Ni 1.3626687252121419 3.6290419394219224 0.7466674521286274 0.7132085903217394 -1.1443951888748742 -1.7879181417750176
Ni 4.132780238065244 8.999605069004366 9.103953174539095 -0.45175053874741555 -0.09947263887604159 0.311774797551005
Ni 5.741794280491749 4.1236309570560055 6.261572528159467 -0.7330479936451698 0.50460136399986 -0.0016979565277132048
Ni 2.182362812068261 2.2307113911666816 5.376147154327961 -0.5868031316105959 0.058420863141054234 0.6821524923468834
Ni 0.6728814641189921 1.176830900016374 1.8378868258268652 2.4630034428624743 0.7675162026253685 0.6871442891345197
Ni 4.500131278910915 4.673273087645481 8.439274577948428 -1.9391599428035506 0.230872465477983 -0.42433203752514664
Ni 6.29258470141032 1.2940120760193263 12.726936956434454 0.9389805013483636 0.11087522428602842 0.27291514437132997
Ni 3.7297951553941147 5.4551847185120295 11.937320667875916 -0.5070662806005849 -0.3292714116738716 0.41686632527572076
Ni 7.91598015416815 6.993402957987485 8.645830709219066 -0.5403803213716822 0.2940580969975323 -1.6825491920191993
Ni 3.93719120547805 1.1326309827521024 13.22584224924911 -0.6263772943587922 -0.16248652070441694 -0.36113329337947486
Ni 7.460442268129171 5.33283623602815 4.16230611617239 -0.4295961141375633 1.94719721128573 0.56320580390663
Ni 1.3029854093168496 7.9355103501686415 13.083029195811466 -0.6167829658021378 0.7489878048038777 -0.8495084253284596
Ni 1.8571651387874268 4.700369035249768 9.727673921964008 -0.00533349639777146 0.6340913751735984 0.15744895828050948
Ni 6.155382527895247 7.970505423988395 4.142246224955573 -0.29269232699825726 -1.2795681093660027 -0.7000260301931944
Ni 7.991758055482529 9.294576777493543 7.706705167731203 1.0112886639944711 0.25761785189262726 -1.7511325975155518
Ni 7.509494638074456 3.932672127408709 2.3491130886645912 0.10241963731950748 0.5360945495121348 -1.903620355136044
Ni 7.9939064696466415 0.028096997479892354 10.008476283416506 1.0585648233726155 1.230873215263461 0.7830081276133806
Ni 8.108559554844408 7.165878017498705 13.653700782113374 1.5420335191589185 -0.5256800390470302 -1.2523151871873206
Ni 3.3326163472096173 2.75518373857487 10.03781973152782 0.053055227953766694 -0.5778837176337789 0.2541499479486849
P 6.872776910997247 6.305039947318647 5.976880796237453 -0.7995261798730616 0.28407090387783335 0.6628756463951423
P 6.03379339869351 1.842737426426703 6.086759216163598 -0.1128050943188896 -0.1451148621951888 -1.0020090384647582
P 3.426183488219087 7.437337555459076 12.967349131601631 0.9888071950625036 -0.9129462820681309 -0.472169982944032
P 9.076725729171315 7.446097899421365 11.248367769352535 -0.37665452894352547 0.10862833723338065 0.6487086108661408
P 8.525111132129442 1.1448176768899154 11.97424098007808 -0.7145874729471371 0.8887115778904824 -0.5176813371122697
P 0.818431893534703 8.934698884192867 7.238322172696357 -0.4444511768725249 -0.7245219584520296 0.32348694378161064
P 9.111887490296905 3.8176764071933893 8.65537170539702 0.5214703718410567 0.3715166934963279 0.27482804512332665
P 3.867654817726654 8.76109405516431 3.3147076482786777 1.4900748667034402 1.700216784502291 0.979056800543959
Ni 8.40329049278071 2.6008405537762918 0.2569031059579189 0.30212107651132486 0.06473060740916593 -0.0868238397637795
Ni 4.967170589052602 6.380549296862513 10.120292906293294 0.3442244334392781 0.6292160493591679 -0.6046373315785393
Ni 8.808007271351363 7.48553796806342 5.934010673257521 0.1713632543687565 -0.18931058287579655 -0.0039011348266190884
Ni 8.570968662046198 5.391130491041472 10.301503306670927 0.34395009673196897 0.3052935607020355 0.04198997127854059
Ni 1.5590263714873593 5.962543835854351 1.0608026445454561 0.9607585164554036 1.0773037945430157 -0.30043854660257935
Ni 5.417337439681297 3.664425950288627 3.3779219569359364 0.3367831466698845 -1.0443057423504403 1.0031688631008142
Ni 3.53422464361868 7.420048377681496 4.982335429721357 -0.651252460333917 1.8381469560235826 2.441038765665925
Ni 5.966053529682795 6.534716533949375 12.973502671308754 -0.6693465988314666 -0.6736331420219624 0.29756251060636496
Ni 7.2512311784927945 6.844514152252106 2.1916482210439336 -0.26957810957829703 0.18005409727453506 0.17497256898656963
Ni 2.5802361506937435 7.7582384004116856 10.994617831596686 2.1298388667817836 -0.8476744574435143 0.8599373339712675
Ni 1.0017258852352908 7.593810633610008 9.451479538477296 -1.0580182068405262 -0.6694147330652407 -2.5676681674624167
Ni 9.177747496914021 2.4551280672576845 6.227269206658935 -0.15829896498563062 -0.9756670581361198 0.2082588418435252
Ni 6.104635503673959 8.851225585592378 6.174477484819389 1.3193317624171859 -0.06295834600009156 1.641079869130819
Ni 5.7440167779029 1.1220463388314943 10.250895188537836 0.1424753676898127 -1.001138977154979 0.6627979990796715
Ni 8.190838261086407 0.23524023848330952 0.7020934144668121 -0.3041471058024181 -0.7428531526610497 -1.2280578573018528
Ni 1.0321000165210252 0.15414408607216248 10.87301573782672 -0.6885578816525948 1.2465348330601178 0.27725619494884507
Ni 2.779464522791698 7.027666459742733 3.0068121173436566 -2.4682780609978523 -1.9356709558136858 -1.6695741199157699
Ni 7.858334127566412 1.66259475084701 2.76732135256152 -1.6332619157482968 0.6155154119436238 -0.9297826368991794
Ni 1.901661389039852 0.19435554652400538 4.144347411049699 -0.4175952330219453 -0.3605694504562048 0.02003634982558485
Ni 5.382527573979141 3.5131386994303817 11.492033125105285 -0.25993775827505555 -0.9193344449826618 1.1284461217447856
Ni 4.0857651574135145 0.5281728055977549 5.8715427533141735 -1.4623583746247784 0.5141774377240693 -0.4266293181997555
Ni 3.29643594143725 8.494977771396583 1.2065688414181663 -0.7612013161509342 1.3228078938912444 0.18784556829449583
Ni 7.986220332766409 4.40042448880314 6.895851064327938 0.4125733543273217 1.3838276281077264 -0.06613597239712482
Ni 3.8281777074610788 3.6328294454267596 0.2680183711354393 0.9717317276374555 -0.35348323303338475 -2.2040550450838814
P 6.409358419554561 3.325282105752818 0.2774602809704804 -1.6909343307591007 -0.6936286113072828 -0.1424434860106127
P 2.616222087942635 1.1896102601304939 7.51104668209991 -0.6036050336592831 0.09001637855914821 -0.31034989217902037
P 1.4121470738278976 6.645063530413037 4.979678619274444 0.6505343512209699 0.5836674141950916 -0.5638336672986161
P 5.507107814280051 2.958208877083541 9.40354119535935 -0.5459940680140339 0.31831774087584536 -1.0899232830792391
P 2.736153604491887 1.997497329489872 1.473052763299323 0.5913239022990848 -0.21317479108790385 -0.8689495647722068
P 2.240018099075878 3.6698340273224286 11.94007286050339 1.6536312234332682 0.678872793154347 0.04953513061565017
P 3.2001277202873606 0.6321579032219964 11.030751935339655 0.825461925902217 0.9071348175926764 0.7312271383863471
P 3.4682535121310054 3.7506495894354175 4.6741556043258266 0.30647703948717536 1.3867543148362182 0.23993611834214804
