# total energy = -340891.6016549923 ev
CRYSTAL
PRIMVEC
9.07524964562297 0.00000000000000 0.00000000000000

0.00000000000000 9.07524964562297 0.00000000000000

0.00000000000000 0.00000000000000 13.28254519666159

PRIMCOORD
 96 1
Ni 6.400773416264705 2.061279551372515 11.531865894632645 0.07154120257309615 0.1302741976379305 -0.07754909933007288
Ni 4.7189481936613085 0.4058587669580065 6.227773751611974 -0.7519659135955953 -0.7821943734628336 -0.8636644051138674
Ni 2.8308425517303974 1.5236436252044256 4.666211011753957 1.0282805705667777 -0.32662034720426975 0.8564221217291574
Ni 3.1935893463164127 4.165503183002743 4.60641328579747 0.6399905142668527 -0.2737291556321931 0.4490377678019428
Ni 4.86336263768941 4.456737012155374 2.7449707266639294 0.43425032508012307 0.3011031767697718 -0.652261875435038
Ni 7.000257167233367 6.091098680289658 2.6782658283735157 1.4272862135119935 -1.6150291947903541 0.6683114726987329
Ni 5.0643340361059455 4.437969396353821 11.980430062788605 -0.09992438170147953 -0.10912018926813465 -1.705734886107043
Ni 5.712869510192303 7.82141296054668 12.44344656564668 0.34327441082118304 0.13806643998883966 -0.5144080656776366
Ni 1.819369702820194 6.650270173332547 0.20987058799825756 0.8343929098432596 0.3642795523179404 1.2625101254424516
Ni 2.6727517068256317 1.6907734185319894 0.46587883652529455 -0.2755533533251254 -0.9337858445213015 -1.5080059972605642
Ni 0.8793599054715624 -0.009752263027248053 4.855633247757988 0.08167829100709804 0.3073283317438772 -0.4865339649751879
Ni 8.551498625925474 2.0657445740873914 1.4741499374399525 0.19791992181136236 1.517161181397271 -0.0953727577750551
Ni 6.671832965955608 0.7750217628843012 4.664523922886689 0.8848556944795019 -0.7516206144410346 0.8380040242332858
Ni 1.2231439663934842 7.346759265356723 2.536221839494043 0.9743791925626315 -0.7307638255966834 0.9344283632013068
Ni 7.8032261607080375 3.7366522716379498 3.8785428888022158 -0.46221981370985554 0.3208219953549378 0.02438331394037091
Ni 7.304414151560763 4.033839464410415 12.758774274485745 2.1223996368949187 -0.9107279342605734 -0.17407319710075184
Ni 7.813880503527681 8.786484059169966 6.961739993642965 -0.07600180944761104 0.9069095889557478 -0.5355739011219744
Ni 6.916683195320165 0.6507353145458825 0.4106858921247599 -0.4430692089233337 -0.15280734574344004 -0.16418062057738822
Ni 1.9051035840954709 6.492850896884898 9.25012403166323 -0.14559308738318796 0.3032269079809939 -0.756320076799233
Ni -0.1250260811661879 5.321190820453797 1.4308355870058844 0.15429292915003107 -0.7527786393048778 -0.5935293945908359
Ni 6.359317676911951 1.9699099402071203 6.987428394652576 0.5885000596970446 0.6269843318151718 0.21259629287661452
Ni 3.1912025557188266 4.278217780805107 0.5223441308945804 0.7845561888267908 0.46133252600889585 -0.2706281481093662
Ni 5.978057373508157 5.414203051764298 4.808095276243628 -0.22577602479168216 0.7037155632296397 0.1854747540694741
Ni 5.270514627689836 2.9023736676626224 9.387093141066769 -0.2867317385394481 -1.2634732606866692 -1.0063526601454345
P 9.300406358602343 5.757365458100918 12.422686025072391 -1.2693916830536334 -0.8091706449413614 -0.0882906541172931
P 4.033603507925483 6.117689161091665 12.820219158212046 -0.72076763361592 0.6318300899432473 -0.7564859129531359
P 2.4196793014861204 8.538266912270414 1.2724189406469235 -0.3180369764106329 1.2311287829176927 0.6159072480654039
P 6.469237097892808 7.588324254431066 5.655999459698864 -1.1492208923982918 0.24204468004471863 0.9917516224028081
P 4.741200705240327 1.2655526069353882 12.828839737636562 0.9530284948009975 0.4666259131973512 -1.40758847797275
P 3.9523346493650826 6.190962724912622 8.274241588405323 -0.2878275427067882 -0.2635511866579267 -0.793264515234066
P 4.783427840793821 0.996689267604241 3.685879881230131 -0.8043459698592083 0.10295339833579044 0.7209524959332164
P 0.05153471135913902 5.5438974412323825 3.7540858257746916 0.31520053540310233 0.7810204077593904 -0.6534962620627712
Ni 1.3781946027423888 1.0329176632907981 2.557780094492394 0.6038760279324826 -1.5868784433877507 -0.6162219510923452
Ni 1.8477752335062974 6.450324278100526 4.88160116644975 0.1699620031458557 0.05567158253069122 -0.19473792453895494
Ni 5.805745612761498 5.494782191368744 9.310944538229405 0.6681541211852622 0.46026114732158796 -0.021227284809892475
Ni 8.611649379084415 2.360653879255317 10.030964844475942 0.532823849180663 0.24659913218462043 0.5173962017716831
Ni 2.6864734839493982 4.839458430715866 6.946345648051005 -0.6699839753051494 1.0144171823211239 0.08124737411726653
Ni 0.7415622257959327 -0.014800824279861204 9.12215938473469 0.276104340732589 0.4701583518306419 0.42742995972418
Ni 1.4820245313621032 1.2310394333893018 11.498407265069218 -0.543790889715128 0.07062846095083965 0.02228580798139388
Ni 4.086539437795144 6.883231825956274 1.687972796560829 -0.0983099860265081 0.5055300464617165 -0.3751095530539088
Ni 5.705001268944747 7.811883948655176 7.994259253484204 -0.7537116926421084 0.3895002745579421 0.019432140582682663
Ni 5.396352036154215 2.9545109755832812 4.767981766280164 -0.6783315759388963 -0.08986236947978718 0.8991376583198127
Ni 0.7708181073527348 7.594704154773663 6.824770884239426 0.6049306944492421 0.6506431088846923 0.22302648707100303
Ni 5.1639167479968755 4.517178173295772 7.153407446353623 -0.2396831217910775 -0.040468392427691596 -0.08480578089248621
Ni 8.183851196652398 7.383105639285747 8.95939569390332 -0.11275907157230257 -0.24365341929273523 1.5828901481639641
Ni 4.741763370704397 0.48242301621883 10.467455300802897 0.02533847876478862 -1.0389763597177268 0.7191465530727292
Ni 8.277879855897995 7.544917336452909 4.579409881146831 -0.013989115190240424 -1.0648897371493788 -0.22112052829754178
Ni 7.276335329853796 6.18770471037067 7.1997765257426245 0.3394460382140283 -1.3813028048033438 -1.611088464975051
Ni 2.021076196439788 5.121980020424835 2.6615428662663967 0.11907627203958204 -0.6082993538111588 -0.2498736891708342
Ni 2.2919542411422813 5.617071177309715 11.38707301270371 0.24166467099748054 -1.2722633481744734 1.0301045111493936
Ni 1.071768806059874 3.0137179028024947 3.801238099188681 -0.8271164307865044 0.6339623057949018 -1.0056818593306551
Ni 3.3633600372253363 2.495566537140176 2.505300649668583 1.3682313163313664 0.8536517580728717 0.9432248784470143
Ni 1.0743280263964494 3.7579337315289756 8.405605823766775 0.4434695296855459 -0.6434437629227757 -0.3113953027243992
Ni 3.578579577232025 2.654809938721342 7.175443059471491 0.581314854802515 -0.5106925644992625 -0.3331908013329358
Ni 4.2473891585237356 6.844743693164018 5.83816966389099 0.1103095815905455 0.16488613128484506 0.40996419883924873
Ni 0.693437085644068 7.625569078052716 11.398933456171333 0.4074460604030854 0.2737255560877673 -0.8693645408224382
P 0.38099349107083275 5.837890146208839 7.810163281365052 -0.6055397887881506 -1.5202351923369042 1.1890074282676102
P 8.705396705597977 1.7217472448040883 7.8251456106333235 -0.2622216692132258 -0.7308841532246315 0.9207146131596401
P 1.7550806359255122 3.157424477375799 10.514980566968067 0.028099329339377414 1.4345768336361358 -0.6368789652210645
P 3.767780377150197 6.086179895103758 3.7152610012289355 0.49554645288644333 0.45268693451875586 0.7141822670889184
P 6.880373122388823 3.8862668335839867 10.30148986197598 1.0356506377786034 0.8881397645474123 1.1727320881463545
P 6.216654756022002 7.611702096938223 10.152605857608291 1.3846177281091896 0.5921852218581155 0.6655339099535957
P 2.682235342470034 8.418863855645155 5.919924048295386 -0.05418059980746153 -0.3050642183000488 -0.07538474468890244
P 7.02808188195656 4.032305747258355 1.6489083854303719 0.028833122181608408 0.5053675527419232 0.8550992891526757
Ni 5.354179352097242 3.0324219918581043 0.7206056598341597 -1.1096127910883664 -0.1361550818987397 -0.9989468545996666
Ni 1.7862178166871798 0.9653252056070614 7.010792624285602 -1.2220890413129275 1.3778351579697175 0.12535362040786152
Ni 7.078612870729794 0.7669565887243204 9.151886271736416 -0.8407615323737649 -0.6754395991030819 -0.3029196611532203
Ni 2.775810239244606 1.565471449783419 9.229588557274568 -0.011751484108973309 0.0515480472806209 0.6247217610332402
Ni 6.284455944442409 2.2196335785104746 2.6574916749250943 1.0509924103419965 -0.6478719738974583 0.17967151712413573
Ni 4.149621496516902 6.858057084063863 10.475929768711742 -0.25935668896060493 1.1491571290398919 0.6080579272243142
Ni 8.120633009189334 7.437076147589343 0.14253223729829426 -1.0488792206537354 -2.162052989620483 -1.0404532013735694
Ni 7.6755737023595625 3.8842793539609013 8.184624407903023 0.1712177299298277 -0.1016400788410056 -0.06560581092526765
Ni 3.467353320334619 8.589079233775681 12.69180347138731 -0.5373361352287197 -0.619646660503178 -0.22848519619272906
Ni 0.09545347340461104 4.887375747656002 10.40810952226755 0.09981768092028616 -0.5526164584265579 -0.562667929125289
Ni 8.670756478560003 2.038918136800452 5.647339856701842 0.006822165128155992 0.29649036058810874 0.410102524189326
Ni 3.6838706210084364 2.588469865457632 11.396383311084179 -0.05468247914454453 0.12030500224036056 0.37022831370220755
Ni 1.0703167661525972 3.6240284263297897 12.719975768163307 -1.0073494768410651 -0.21733097934812245 -0.8244805358255544
Ni 3.179885719691488 8.387245686664201 8.18656378870418 0.44178237179111013 -0.4362773828124809 0.03829915269051469
Ni 5.65969762383771 7.743265987786924 3.6164651134627617 -1.3060029065187637 0.703364350537808 0.2811555300032513
Ni 3.1226390463470985 8.37434068198828 3.725076791002127 0.8294764463782488 -0.23171861552836223 -0.5728800937716005
Ni 3.523347609258982 4.403338244565268 9.622300917922066 -1.0050228855904175 0.12371042837748371 -0.5903301709272478
Ni 7.257023199087014 5.997659912256394 11.308917872219476 -0.21660978491138178 0.6138956169520138 0.28910203854383765
Ni 0.33385120043120614 0.11852366495641382 0.1314794910290914 1.9617694526729508 1.09906689725172 0.6060807488932852
Ni 4.746001512183761 0.5475243179366449 1.5368036443890638 -0.5648716216448272 -1.6348102340720232 0.6829857868814561
Ni 6.017752514473337 5.758817498008194 0.43251821965560927 0.0772225692285896 0.24462683894959808 0.9055409907429952
Ni 7.860826768779826 9.040554741945732 11.376685482217026 -0.5044591819950409 -0.6699284394768656 -0.6509380144172918
Ni 0.21610982197483772 4.770822319348774 5.805733814937252 -0.4561874914728466 -0.5955983613047227 0.8422453160081431
Ni 8.425479712472685 -0.7707981418040097 2.2814097088406258 -2.3015795590946166 1.9654381597737893 0.21009743771416073
P 8.514380855795709 1.1323823969392615 3.538217405434439 -0.6969538190257739 0.4337319906828079 -0.1981844883266587
P 1.5593093554269128 3.243938830101237 1.525938755782865 -0.8017578974170578 -0.009364729044351613 0.7025981617957447
P 4.857971939533646 0.8885794513578282 8.350722345371478 0.1867129973519494 1.1686355494794778 -0.7953388812645916
P 8.495250230017337 1.8193424770719329 12.289170048073343 -0.10269525957839733 0.31872834605070266 1.1398877879228237
P 6.360914920809956 7.719534210552369 1.5061347464974928 -0.2994350450387295 1.4193643875617556 -1.0638088453803745
P 1.7078802636895944 3.005867812053779 5.804392493072904 0.8820737608589905 0.3353127327719451 2.1624468826247916
P 6.9848020174702885 3.9961953298142636 6.080429817070941 0.28741565198035013 -0.528942768958702 -0.6673272544085926
P 2.610123410574898 8.654139696871104 10.672936190656467 -0.7725864180594242 -0.6889278633975039 -2.0591471566931765
