# total energy = -340854.662168333 ev
CRYSTAL
PRIMVEC
9.37646046905684 0.00000000000000 0.00000000000000

0.00000000000000 9.37646046905684 0.00000000000000

0.00000000000000 0.00000000000000 13.72339768361400

PRIMCOORD
 96 1
Ni 7.970666328296469 2.666055828748831 5.506526945425242 -0.7642439596319999 0.7098800401691387 -0.99029972044763
Ni 5.2929836888220905 7.566212714871878 4.973207950382457 -0.27519519865475833 -0.005654370072299939 -3.9592494713736333
Ni 2.7134257059951747 6.6923641242443574 0.2489572093687335 -0.04859719218241308 0.31429833530380713 0.2177153592707347
Ni 0.882771230213352 4.014043885472127 3.294658412979531 -0.7367460113220473 -0.00189207481639029 0.38449330826165395
Ni 8.366512351200049 0.759768949197322 4.10667206111369 1.4814498440385906 1.5096574168210581 -0.7449498872890784
Ni 8.726727825105984 3.769862107315104 11.895111572437859 -0.1600066917053567 0.33745291904339947 0.2814306380415088
Ni 6.3454350945304405 4.905613985995845 12.318066817252488 1.5806391473462584 -3.634792964589901 0.6139766067015943
Ni 6.283653597860575 6.020165688022987 8.639455483566381 -1.974471473620651 0.6527838093767789 1.4873698090674514
Ni 0.23881375465671956 4.5395288479655616 7.673231881724386 1.2632236065697084 -0.19521357862379282 3.2736635278651685
Ni 3.039501488085207 8.666184021190773 6.421479124905653 0.40058841405130363 -2.9887179346918655 1.2475902709078255
Ni 0.2433660261141819 8.90875304818264 5.238550524059976 2.937560437981444 -0.8299101914815579 2.8944623212403893
Ni 3.3114563415398686 7.036133286849799 9.34706130903115 -0.4261297528555178 -1.4201033226103092 -0.9303217972321011
Ni 8.4247682988112 1.3860658618494637 11.649956517705583 0.22790309843701395 -0.058629379607434515 -0.2519789084392951
Ni 1.8344294386835207 6.2874885701079535 2.4304957058032124 0.06209394111726726 0.6343561987992108 0.9227144171984882
Ni 9.264608468066493 6.574773936091865 8.337690987645058 0.8690446955891742 1.1821574952253127 2.0253008975676927
Ni 7.205856594062006 1.780617933236813 0.7064665855428705 -0.4652339179458311 0.19401030234431105 -0.44554415282638754
Ni 3.0723378519246163 3.503054930544576 2.5834567150040786 1.4718809694032329 0.45476412876275873 -0.19856269760168382
Ni 6.569101177633029 8.952925552479456 10.209988198744865 -0.13795022612594954 -0.021573355295401556 -1.8094228486160129
Ni 7.3995742630860475 4.782998015142631 4.361172633789637 0.29964921793206456 0.7417432074263225 1.2260901920525207
Ni 7.848875485946358 7.4225559671895285 5.295460949623452 0.11005992747358466 -0.4631577521430927 -1.0431986253291905
Ni 8.359245594496581 6.439752908311313 2.5456076955083162 -0.2481343378822243 0.18358910701098707 0.6088827371184546
Ni 4.475797047561088 5.844132023054091 2.619851445513121 -0.186218317103718 0.6632538556701674 0.4988994285190763
Ni 6.2145115798846176 0.9128902958686775 4.554452422119417 -0.32033142887176447 1.3443524528312396 0.006217698774937679
Ni 2.799370340761601 2.1130322024643213 0.42273583564448736 -0.05240139641985169 2.313573241121383 -0.42062450676657237
P 0.5089458242363433 8.873385040072344 7.487046323229241 2.9124567009352806 -0.7459564741767217 0.17838545132286052
P 0.16220151078959777 3.50709618491773 9.790930748461372 -0.48206821589435045 -0.7348660206905151 -0.13891824646617365
P 8.511125497829177 1.1789773604910423 6.839960860529025 -0.5472235695457608 -0.7838000273870566 0.5077306536574611
P 2.5340352682522918 5.49748428714805 7.798430129733902 -1.7510192118661392 0.08537425180144652 0.5909348943907823
P 1.4745983996483503 0.8537632750991372 3.836238069513613 0.864821401536446 0.2870292151752089 0.16992755036349447
P 3.45390352584835 7.698673969000757 3.7482024841086403 -0.46261550648637745 -0.523448321503034 -0.5849534799963668
P 5.062388401585485 0.7902733873694379 6.336284606960229 -1.3533644265218627 0.18478261309845598 0.7586811208322418
P 4.706889287191608 8.449259613016949 8.635269831705184 0.24486955108802347 0.9068926196748833 0.22237985462593957
Ni 0.41288586413869083 4.2925622611105645 5.638834425605816 -2.7571052486137484 1.6614671745379193 -2.223509040043435
Ni 2.7555166361137093 1.2872379706823096 5.956269799563919 -0.8094701784596511 3.1961370542429153 -0.5514350365239471
Ni 6.814239354736831 2.125315365408247 10.04744819773979 -0.04037454716230466 0.2646217940142862 0.2898921385453007
Ni 1.6713071594961415 3.4504904943127865 12.25554270492983 -1.7672511003439695 -0.05677330023530222 -0.12780105350708956
Ni 5.952570785990348 7.8945857297262325 6.886359336492171 0.4171103229657268 1.480934852075385 3.093515071104614
Ni 4.031052784388371 0.3726608496124015 4.399034780329766 -0.49739224784593056 -1.5166359050214202 -1.2765357502975823
Ni 0.3706561624082708 1.2451189111829875 9.384319611530373 -0.8713365769471445 0.6347912294541004 0.4923094340063844
Ni 7.629953891736614 8.695729247478031 1.238116570658924 -0.06996151679080209 -0.36982439339556955 0.6399794585232591
Ni 1.0062067036935114 7.605546965673226 10.320817959048068 0.4386178580201995 0.6312963289269644 0.1069972293878609
Ni 6.618008794362429 4.692477667768086 2.167926689071352 -0.9698388814901169 -0.038081380252753774 -0.4876637077042569
Ni 0.11324138588272771 2.223599421880173 0.1441152565891876 -0.5057293069567161 2.5922844233492 0.18179550544567402
Ni 5.39028321696645 3.6378978055801396 0.19521133914386388 -1.018400335338588 -1.1457015663911236 1.1996523095759661
Ni 2.3091971276168852 9.307215103499468 8.908227966407937 0.49484171350993483 -0.5114754654118739 -2.30307696957575
Ni 2.6799423663976505 5.759284434138383 4.6663942306097566 1.0800438191819979 -0.8188541907777123 -0.1426761708467091
Ni 1.3793710692220111 4.3928997623799875 0.94376604186719 -3.921574839640994 -0.10846635773421966 1.7140740021003578
Ni 4.3575692601107425 3.1169322969332485 6.681551190269599 1.225583170509115 -0.7404314305934345 -3.064154101443994
Ni 8.004421585241607 5.126204590132321 0.24852682984268298 -1.3004112713635994 0.907491943821779 -0.3793603579104628
Ni 4.688277013570469 1.4068816036322986 11.74448342655031 -0.8206501063358707 0.6454782768543013 -1.3916011014055583
Ni 5.623438277854728 3.4978509950988674 8.53965806640808 0.09244401416403433 0.8352621998220906 0.8060704087494828
Ni 1.1125826453720085 2.1674250484473063 7.287521812364609 -1.3118195132005408 0.1091754679861023 0.02689116796388917
Ni 3.8339502132095533 3.8351410236628953 11.870464608991751 2.411823577554549 0.11247676444519339 -1.5716701110784288
Ni 5.269945725957033 3.319407579842501 4.365220451684974 0.3457244150235723 -0.02706780275106951 -0.5507403244497676
Ni 0.5297053072576031 8.45074109373843 2.926321986840212 0.09766926711871567 -0.00348333056291013 -1.2892354572524376
Ni 2.519351731481157 2.22643111287946 10.395198605372705 0.18425733672260527 0.31374991899950483 -0.3945445218500689
P 5.088436208194817 5.686804396308961 10.904131302564682 -1.2571090090315382 -1.545573671101693 -4.046025231508296
P 0.41349064582562456 6.0810564209679105 4.186843609296472 -0.4583443899148494 0.41559825719657456 0.1795262497955231
P 2.029197271256966 8.995260270564817 1.1612399106123987 0.0009358815507080655 -1.1331448127720356 -0.9339488524617271
P 7.170863644362213 8.59898293048916 3.617021116805598 -1.1013567217271614 -2.0554573665464146 -1.7134823912629458
P 6.449523179904878 4.013668827061625 6.543260590795501 0.12761464852789633 -0.045554805811663476 -0.17225028495940012
P 5.2455856821949585 2.514738513031988 2.3140663234312218 -0.02262030850267717 0.042969304472674386 -0.9630686526458188
P 0.21866561684457722 5.830320497087373 12.834931062180546 1.7594583437724278 -2.806884634029721 -4.581907407899309
P 6.537905694339564 2.499811188294027 12.166752314473724 -0.248195787247779 0.2372212905141463 0.9259334383564183
Ni 7.872607306870843 3.0353664691094275 7.88704236744502 0.6275679722327838 -0.5392112407642455 1.4867884826426847
Ni 1.3541765204965708 5.252317980663461 10.46484507691079 -0.09492564293530747 -0.598612208430382 -0.15888903316114572
Ni 0.038820420778961126 1.8553295686087183 2.360410415924844 2.967908197035366 -1.3809019698204992 0.11375126028224282
Ni 7.54582829026112 2.5903784179698843 3.077046710268463 -3.1716051305398216 1.4870103688455036 0.5939253444776739
Ni 4.326439412039115 8.418054753263222 11.087050102304358 -0.5439559545380825 1.1270083608569945 -0.4136750720319327
Ni 7.577933290200051 5.916218249552487 6.9165515385375445 0.6171521762160984 -1.5871589507426471 -1.1087036490105358
Ni 4.8826697877334135 1.1043032309601872 0.2497110767738416 0.7355992993121138 1.330013410500748 1.8414122570384155
Ni 1.0454565663524968 8.212007038993942 12.719503085764593 1.762227678987449 0.26570628532771656 -1.623745234507113
Ni 6.451023413546884 9.248630979779128 12.362269326222146 1.1273546884528198 1.1575538377440193 1.8648933708794915
Ni 1.5480067070437626 1.0773646606259146 12.689559359916178 0.5460007528822532 -0.552094781595133 -0.8792900274662662
Ni 4.251371471177234 1.4403274373887727 8.679966480130679 -0.1527908906832078 -0.2594631326314822 0.14585199747152947
Ni 5.874624271827867 6.929138498793975 12.214550695954065 -0.20581475117840684 3.672506677090591 1.436696708192616
Ni 7.930694478197268 8.321477212559078 7.87860261556271 -0.5213505584337409 0.2664915002331733 0.7959364056392744
Ni 6.418440214134564 0.7781458736658708 8.117225090430074 0.4540120810880826 0.20930142417542663 -1.1675541434898409
Ni 8.08282754595695 7.386006525086155 12.467253801197684 0.17714155161343043 0.4871093778626837 -0.6269773898366363
Ni 7.346119063129317 4.764995211438558 10.288307896025795 0.3775001647732725 -0.23273317283580564 -1.5714004023568098
Ni 2.9151321191628985 3.397091553117631 8.131511065286077 -2.046443850193895 0.793158328673505 2.553520929427757
Ni 4.7513337088360394 8.348096983244423 13.603647029760383 -2.131395669745942 -0.9796445547266289 -0.40374341474051756
Ni 4.130593286535477 6.456461760499157 6.867654235914433 -0.05507328682505999 -0.7582849138350876 -0.44189858565400025
Ni 3.2520095834753753 6.398674635901132 11.593964985247835 -0.9598426895093535 -0.44691969301767553 1.0936727228193424
Ni 1.1166238997451625 6.662171922198984 6.1849982335622515 -0.5085094408050146 0.5830020126969508 0.9979227842105265
Ni 0.1709722517191761 7.049410354581554 0.5783053760903918 0.2377730492525582 1.506728158989405 5.515547985091998
Ni 3.356547738942415 1.0153768818302737 2.2601479263375213 -0.10035144193656911 -0.0915901508041713 0.7309579438853605
Ni 5.012402491925893 8.5412051823514 2.2278563348393656 -0.08487237246436351 0.5487459197275582 2.0758166469290575
P 5.167010945194888 5.414183814175661 5.03307008563658 -0.6005485062211463 0.1922228714265851 -0.7509428716477197
P 8.876197978151106 0.26473685434455924 13.3809026527016 -1.1094991483286376 -1.2408123287540436 0.5326693258806697
P 1.9813398180769708 0.2107903278700713 10.882146316187107 0.0474975313603311 -0.9706688335905799 0.7938203877375362
P 8.263249394328714 7.731876014790406 10.281033638154119 0.12139283598790061 -0.7955329995532686 -0.906826285213322
P 2.0339230072292858 3.2783293074323203 5.455640895580447 3.2288314591521425 -1.5599541081930812 -0.603384947228677
P 8.655916797203293 3.8380477263442825 1.6598585015155822 0.30407151536947635 -1.322728961024193 1.2893383013788893
P 6.04426319089771 7.171398102597178 1.0645901711642325 0.6965686677722133 -2.7220649691801637 -0.37875769132945736
P 2.930050067440597 4.498038011303829 13.598761893963598 4.996907112279937 0.9620376402781432 -0.9175063906349876
