# total energy = -340887.48080152384 ev
CRYSTAL
PRIMVEC
9.09346377066070 0.00000000000000 0.00000000000000
0.00000000000000 9.09346377066070 0.00000000000000
0.00000000000000 0.00000000000000 13.30920340976474
PRIMCOORD
 96 1
Ni 6.750460029979282 2.003635604728784 11.219511875664352 -1.5045486348395831 1.1963733817143785 3.443365592481418
Ni 4.885663429021972 0.38164721541043406 6.228839855873985 -0.40138134226624417 -0.738810864270876 -0.3259315486673613
Ni 2.7407244918590163 1.9416727430770402 4.533061646015682 2.381820860544872 -1.452888230350814 1.198994107166677
Ni 3.4149229840401047 4.439829090738776 4.5983163415268224 0.5172987569618703 0.3934541169993675 -0.014140553166440166
Ni 4.086229754764597 2.8658232719798025 2.2677552578950446 -1.672611878300829 -0.9923383481442136 0.10386896817152434
Ni 5.218447826586871 4.820426920438231 2.349287253429171 0.5430825507941938 0.22551557204144387 -0.19636106196467473
Ni 5.297333624184299 4.631864857155202 11.471401729500492 -0.39792783650000496 -0.2865898136449451 -1.1286842058975206
Ni 5.741176493917197 7.951597463183794 12.271258249819919 0.0429739324583647 0.3528368576986375 0.6070228010915805
Ni 2.2648362560473476 6.979951773375975 0.38168540795797407 -0.49856647065968973 -1.6769953520805054 -0.7650042348367923
Ni 2.920165811050954 1.8805464800856957 -0.019813748055912045 0.31767393664425936 -0.48458172634482355 1.6237555189197583
Ni 7.7231241877215 8.648147689139462 7.323322781380403 -0.7468854137488943 1.8449953464039837 -0.07462421237379406
Ni 8.828243737717798 2.4370028042792913 1.3668285259356912 0.14575069600697477 -1.2284373521284586 -0.6039431337249922
Ni 6.810804255092427 0.8412808848583675 4.466275611217462 1.1089617877679288 -0.4721668976202385 1.9584010504213498
Ni 1.0939527765727086 7.864482080937872 2.5019837865330627 1.932154715130311 -2.9520025815487028 0.7289542831917705
Ni 8.006876629016043 3.9676509881167044 3.357738737562707 -0.5999062446514573 -0.6081520296000172 0.5443835289938044
Ni 8.116680203193445 4.0108085668368645 12.554904297589172 -2.1755543665410273 -0.8292555886166945 -0.8119086126978146
Ni 8.28778281617249 6.942932282653308 9.247847070611998 1.131654344269438 0.025934974698206943 -1.7001543066954719
Ni 6.820879812872018 0.8189946240224277 0.19194119439394605 0.466859369364396 -0.3923169180711308 0.4396385859752299
Ni 1.8386892666746335 6.6201234147673 9.051256388228246 0.3968883394918971 0.2545379274157229 0.12283496775106588
Ni 0.18414809600305312 4.724518158794418 1.2273284273532277 0.01800903498291092 0.9118098544708425 0.8252192137637917
Ni 6.224148537951159 2.2791311809837347 6.757668418654266 0.9312941884476994 0.2271495081004411 -0.037984706773889425
Ni 3.315413210771095 4.521206497390002 0.2120623015229178 -0.6302624883458113 -0.07654919731064881 0.6734824753767111
Ni 6.119237247244355 6.052045643965115 4.410882777088963 -1.2705754189490892 -1.0480325563827242 0.702502516758145
Ni 5.567491337247354 3.1551318195950406 9.341477010252593 -0.706309549209061 0.7319095091653524 -0.018685492224645238
P 0.6108297810413263 5.520469036454696 12.56632386930362 1.152052448309816 1.2944699661784997 -1.2156733675945708
P 4.296934402157106 6.182473193814096 12.695396493061304 -0.33278790946756237 1.3232362396779147 -1.2036007527007528
P 2.8056336357495573 8.785449897545638 1.3909844029083493 0.8935964167866094 -0.47343625125096533 -0.26764284022879714
P 6.395933160707703 7.819305753276313 5.860801008890589 -1.2220934121883016 0.8344638722905112 -0.7979837750866063
P 4.969514257799596 1.1417116479250653 12.331695228262802 -0.028599666014563648 0.3146390064726775 0.1524281080271504
P 3.9806364542802926 6.103141816495369 8.093765584015834 0.6235423960131584 0.9764718134256022 0.5023596191535348
P 4.857073579149199 1.2597539002146583 3.5806149861176553 -0.9685898395743642 -0.7495447057486123 0.3690813445819579
P 0.2677006591713174 5.896974807489156 3.426827237369764 0.3741039946075299 -0.1005563588585236 -0.4380303609478456
Ni 0.8797926129742026 0.06843104238154799 4.718059071528314 -0.6012763855261064 0.7607284902795737 -0.12774783167165096
Ni 1.9005611936893774 6.948524762828803 4.753701811846802 -0.6454654213384948 -1.581969693232224 -0.5314516514234847
Ni 5.906104645043947 5.872158745051878 9.243321253728514 0.2277460040338594 -1.8864196749870417 -0.2075121934854878
Ni 8.632088632245276 2.560637536744379 10.131271612987979 1.1097032939196438 -0.3701426959669367 -0.8494701158913563
Ni 2.4030659977509226 5.324741323776074 6.815829303133043 -1.2191070758664684 -0.24924222623442235 -0.27993785554606626
Ni 0.656504430513645 0.0784438552616089 8.817906288183648 -0.42935468755071865 -0.006030008244163809 0.6362696137718397
Ni 1.5371409169192067 1.2650190156969534 11.317122024366434 -1.1215923320477459 -0.7990816361364753 0.01375077392718922
Ni 4.263243119148636 6.992073360488064 1.5628335892571636 1.439423620205476 0.6981406402450234 -0.8495734742384401
Ni 5.706084817498929 7.976022506681971 8.350420412830772 0.29098382894758273 0.10493391910092896 -0.9073176230274439
Ni 5.6259168415198015 3.1045176006408863 4.385435628270906 -0.6456865362103654 0.6709311697097671 0.5510339444307865
Ni 0.46394942731994954 7.535080451869371 7.033288575361906 2.2730061183322983 -0.7507644370883264 -1.313176284338751
Ni 5.160840734047422 4.5237162933712005 6.952621368225649 0.33713333092045167 0.7524819340000654 -0.21040494165225054
Ni 0.9830488932876091 7.639109676597276 11.759107099465423 0.7573837421770568 -0.9604661820259651 -1.3092298980964936
Ni 4.48043140615924 0.43869415058596245 10.278338382715205 0.8565123674501184 0.6685904373917324 0.663464943239709
Ni 8.12130877621674 7.428723300434267 4.539116983493506 0.8975016653782866 0.6133178900716727 -0.1656348365254115
Ni 7.287210818334995 6.061393724648706 6.746688061236526 0.1187451139524084 -0.013254808127377175 0.6551376543209362
Ni 2.1840408310729207 5.410401751829997 2.4371546651230815 0.8403745813479914 0.4933916113269696 0.2217121391349537
Ni 2.652217809666996 5.132741931214449 11.163773489915254 -0.14330146313553385 1.1185442892500415 0.8850027615803275
Ni 1.3325652640604924 3.3571976764725577 3.6050636726214527 -1.6707668546722905 0.7295240396523113 -0.4455163849122456
Ni 1.840426118241332 1.0849411540460168 2.5899175805119827 -0.774895268698259 1.6653945346167836 -0.7000543123279686
Ni 0.9894870655872031 3.3677915616830476 7.972598817598924 -0.6731040089913698 0.5642041632641573 0.2406853378033468
Ni 3.815344564605542 2.6011034502093424 6.706800492062881 -0.5778981158114821 -0.032612643828698676 0.5251992427558697
Ni 3.9734526179572986 6.987563002492867 5.940336989142566 1.5568453873607702 0.10021234525554354 0.2598868504324621
Ni 1.016176381546679 0.028826279928973877 0.3130206635593363 -0.9088901097208862 1.1737934395313332 -0.48992807825840134
P 0.15111063303461306 5.514776528178501 7.6356232426147 0.6967591865164646 -0.22330699442589927 1.3620380430364607
P 8.126246527005835 1.7218291646660393 7.706734128748636 1.428744800335391 -0.04965288714043707 0.671626910225211
P 1.678262380079379 3.2046093555866957 10.169548729740354 -0.37409242464330406 -0.5055904673860067 0.17543768154844624
P 3.9744710858916976 6.307972086337683 3.5048718895749436 -0.2336145469994944 0.26541420800859455 2.110403126654675
P 7.20545148620837 4.363734986497246 10.354547064599355 0.3182439502151164 -0.3995124073783055 0.4173370942645522
P 6.65321452917157 7.709465805244113 10.2937636251895 -1.9662215749070329 1.225268981702806 -0.10169741444150228
P 2.4292460797431983 8.544227585975957 6.1897379619640205 0.0037242429291226183 0.39978571564435017 -0.1152988072750208
P 6.959436919268793 3.8997500946688657 1.2954948499411059 0.2124371415909309 0.49040887454956184 -0.5344708978657828
Ni 5.0847648167332915 3.109037052099782 -0.05692235472283841 1.8097781750729025 -0.7755437009155353 0.6872162800230357
Ni 1.5384503756920056 1.3259179420957983 6.877557553421327 -0.057481382045920355 -0.7233140541868576 -0.7586366407475515
Ni 6.842094863684099 0.8483665117734012 9.433044552326031 -0.13846393253757444 -0.5991783653464972 -3.1226873217931965
Ni 2.6219183886186235 1.5380229828981062 9.09111758635716 0.2577358655277303 0.6140426840528392 -0.6025228563386977
Ni 6.558842562893055 1.955058321643428 2.3907188927390735 0.6881549897872212 0.9411458844307985 -1.0138929343865377
Ni 4.154985433800234 7.1709236045395 10.448909028067801 -0.08966953674269074 -1.430440185759943 0.007527675835612843
Ni 8.659823696530252 7.078433985246885 13.699030260126584 0.4241338054714115 0.6384069718298166 0.9207706632085562
Ni 7.6225504791995915 3.9024053860692636 8.13161712666705 -0.03593348067181553 0.5077818186103707 -0.1920431513156112
Ni 3.325807039780186 8.764762267628155 12.236974072978208 -0.4375490504360529 -0.5689776733934008 0.8105711248333136
Ni 0.38524095226467087 4.895657145628263 10.111108675925987 -0.947317303348833 0.5578157432393103 0.12863820469640427
Ni 8.742892487429677 2.630384403323316 5.64971716406179 -0.6710041890395476 -1.1102285702954946 0.04970328076239827
Ni 3.529609748224401 2.7852824639889757 11.07622525879721 1.7339506864196266 0.04249262194657198 0.4866010707676975
Ni 1.3018293567545203 3.459062656839865 12.473013110238895 0.06469332641332728 -0.46864294362737996 0.03281087588243382
Ni 3.5129232423349164 8.479109292420317 8.226351922147193 -1.8433835218321735 -0.44150597820127185 -0.9864057847098625
Ni 5.607893596466417 8.111315059610448 3.63012525857863 0.8439443009771207 0.160055285555105 -1.371841659390444
Ni 3.433564584625088 8.660596640944751 3.9316981606860466 -1.2447890540136046 0.28181218975064365 -0.022419505345780744
Ni 3.124959707038468 4.251285214383147 8.955230320902704 1.3569410881295276 -0.22596011577803018 -0.48717956897898684
Ni 7.839284093025196 6.430824780924572 11.546519195740645 0.32427627245212537 -0.922050044141612 -0.7485846558281881
Ni 8.579892150607325 0.058917460658616604 2.308414862136818 -3.6406630502174333 0.6543658091519182 -0.7761599943432956
Ni 4.793883099897955 0.4890201067408268 1.4053857213700263 -0.25680281219049966 -0.4217334235600349 0.02677829653510872
Ni 6.409073215754192 5.779523630340062 -0.09220772191791643 -0.18063953746435985 -0.20335086301894656 2.5251948287895543
Ni 8.326575532316653 -0.1497702564852343 10.921798239551212 0.47431094054643475 0.11237700564253551 0.5561884920485324
Ni 0.22096116509972974 4.859692496694795 5.371660868428921 0.16308661618226106 1.6420867131287784 0.7451236938627813
Ni 7.446446461185552 6.0855095903810845 2.3434583431974763 -0.42078262961099144 0.6430025616202991 -0.3454189679680115
P 8.640609207732169 1.6943669042920644 3.5712714521659135 0.44958207034118697 1.0967529044065627 0.6799292594433193
P 1.9063901039210722 3.330281023920582 1.5025821174737584 0.6654696323745636 -0.8742532363733072 -0.4404993913136285
P 4.82165453803773 1.391345413417239 8.388099179671688 -0.1770579907606886 -0.5024496077641799 -1.8202510495797684
P 8.626568899779382 1.3352751162430898 12.482702195811237 0.930633672045565 1.6145509696023548 -0.41209435780837417
P 6.8143052386169245 7.847904696612788 1.2432674505265733 -1.2507943796674201 0.791721082006346 -0.19788495480836887
P 1.8742174293505016 3.371810872638444 5.920598716835364 0.12647153606238865 -0.3286471478263114 -0.3558519903758775
P 7.000175636644756 4.436791873862979 5.376213056357137 0.5028951799420307 -1.9137368747447556 1.4079216929424527
P 2.3702931545761516 8.534870411828665 10.191002938647744 -0.6248436313230851 0.19943892955905007 -0.05710291566057908
