# total energy = -340868.22523240844 ev
CRYSTAL
PRIMVEC
9.23636610468168 0.00000000000000 0.00000000000000

0.00000000000000 9.23636610468168 0.00000000000000

0.00000000000000 0.00000000000000 13.51835542039555

PRIMCOORD
 96 1
Ni 3.5051823819155667 8.52562753328651 12.208737420403015 -0.26205017663236807 -2.318792323428477 1.411793260082717
Ni 7.104464859502141 3.274217816510266 3.6770462129107697 -0.20544605498507845 0.48593309816639535 0.0039528140001609344
Ni 6.890005679939409 6.845763487333979 12.374945824564751 1.0490116324665417 0.8281006490766447 -0.6585862749911691
Ni 4.7244473337454265 4.744979775115337 4.611462564379 2.000186361888252 -0.9672294688917278 -1.123574395474781
Ni 8.05122930852657 3.645187216051916 1.3564453052775367 -0.6167042900454024 1.8523674704983388 0.6810777712254658
Ni 1.0233431586051447 2.4059994230007797 6.183052387568187 -1.2754155206502098 -1.4858924531909765 -3.021072182652855
Ni 7.418824572513794 1.6474813471478051 5.72664567992226 -1.8062714474712247 1.361866293345287 -1.0492006085488963
Ni 9.087909779474563 6.465548485538043 11.070978779355327 -1.4815177211620485 -1.3342361903328441 0.11820698206075125
Ni 9.035631948546227 1.4147341631260437 4.065632133111362 -0.19469755821932275 -0.11187126965071056 0.6121704067307908
Ni 8.666722258597689 0.31119533405828764 6.944784718750324 0.26965575689376786 -1.5752004928291905 -0.09202209613526732
Ni 9.100000182422477 7.731466321470204 4.042596636585695 0.31738751575209206 2.5333393122735597 2.6162152231331843
Ni 1.5833163133210986 0.8506323528579757 7.6870643397349046 0.07553309734130864 0.5950820837899364 0.6436900746056269
Ni 6.8289625377829815 8.954693674266188 0.9313443361737485 0.2135044065131807 -0.28746784537452424 -1.296920227491205
Ni 1.0575177123922204 7.001433198017051 9.241133700470389 0.5375675345132356 -0.07175177592200546 -1.2241163561556017
Ni 5.94404479474727 5.949660505207415 0.8166785482156328 -0.34157439741094076 -0.34053875705757486 0.060108021035490025
Ni 7.040576916652086 7.565461117358013 2.9502190320574804 0.4350077720714379 -0.2981073273662414 -0.9944091146303132
Ni 0.4938130658573533 2.5645970616704754 -0.21767620580166097 -0.43214536292197836 0.33004994171110896 0.6675347424337084
Ni 8.982975426616465 -0.0007324438149500246 9.269468100106229 0.6947035895390165 0.6372808286451734 0.07830680343170385
Ni 4.8602219123048895 6.024678268952991 11.85635435993859 -1.737465898661737 0.20487706985548587 -0.22212917206771424
Ni 4.796269314893616 2.141026558394395 4.206884800279234 2.4106719804486096 -0.48451050678725593 1.4164168748976576
Ni 8.775997703423336 5.553494299522215 3.585811237938344 -1.3644831621428435 -3.018820153393885 -0.3214238906049948
Ni 5.47397842558899 2.5361490547342074 1.7545880932628553 -0.37403328927059454 1.3261181892114 -0.2553809921423086
Ni 1.5369497565613366 6.665386497899439 12.739806291707811 0.20939886898523935 -0.40191613172379176 0.055890126299400524
Ni 5.51198607121975 2.544369420374882 9.677398665023484 0.9188729319652111 0.41891009517862693 0.40968420570498476
P 3.723890289786962 1.1360360588094984 2.2956331633637137 0.4376069002571818 -0.676475496566764 0.3096695782825441
P 8.292289221847891 5.198559231162825 13.059245082321494 0.17765628646631984 0.014384550856446193 0.4551683061797129
P 3.7901427423044463 6.63065776215906 5.9538759825988805 -0.3859488097612579 -0.7342150173700774 -0.3212878792477628
P 9.317368817240054 7.162109019011638 6.552468230367407 -1.0433269233769387 0.4428619780085341 -0.11053918110284833
P 6.984013411951532 8.824571751630426 4.7221373186367375 0.16405695051533037 0.4486716427117757 -0.2829792134755514
P 2.8254874525541878 6.853050980019925 10.68854427883641 0.14402805688891324 -0.038561662323281974 0.047746671256659705
P 2.0217204202139474 4.106386673957333 12.835569856875319 1.071118748778226 0.9508016623530077 -0.051406379496434056
P 7.633265279344748 2.3064129259920634 7.800280018248543 0.4410681193329049 -1.0756222930755346 0.5893222984880236
Ni 2.428702410354464 1.7541059549634808 12.128384731720299 -0.1765118884492315 -0.6684179163696101 -0.38449099426880884
Ni 6.012606338736854 5.9628869811596035 7.435757602096996 -0.10462975759694883 0.9587088330152265 -1.5380526801342995
Ni 3.384204461509319 2.0825603623208306 8.971726456600985 -0.9836701309462544 0.29046138078520944 -0.7037268760835493
Ni 5.489163011109517 1.9017123182259819 7.248839418340291 0.568548299165466 0.09860951954479792 0.460523142733723
Ni 5.296086018578428 7.7548343271678535 10.314748551332912 -1.5189056748922036 -1.6196265843530495 0.23628026675711566
Ni 3.201823180676997 5.944460431212247 2.9379032617818894 -0.23116325724552447 -0.07627717459618476 -0.347517245257937
Ni 4.599636321495494 -0.2603195834718094 4.541883172868514 0.4076270660656399 1.161116615394613 1.0253032331060086
Ni 0.8871326235757501 2.878190156313391 2.160354577652458 -0.5103660343977791 -0.045140858202696456 0.8074449204995062
Ni 7.901166071937756 2.5440553839346762 10.105051642022238 -0.8822737926849386 -0.6199276820787065 0.9300690577913466
Ni 1.51979782510658 5.717698412286168 7.068193650658398 -0.2445779879895336 -1.4252432149400356 0.8781402301325392
Ni 7.247730130797095 2.057696065349261 13.582972890018194 -0.7933912706199175 -1.2906223102976353 -2.1229400827794214
Ni 4.711941294332535 7.88885399620852 2.32877970962741 -0.6528671131192046 -0.4924940392133647 -0.984573359486814
Ni 1.4185118367743987 8.629278031286121 11.206486426940616 -0.9071998665026569 -0.3622152135897439 0.7579591550645527
Ni 2.2267862156681777 4.734219408855353 9.158753629475171 0.6924595306998461 -0.18659318394463348 0.03186573836034512
Ni 3.762960117494889 6.746601863156129 8.298160779643146 0.40472814725129 -0.0028868346294918024 0.2948019171420923
Ni 4.684804851352419 1.0578225124665375 13.336397942624913 -0.8976212216752864 0.9698427381448587 1.999638716914898
Ni 4.6967105269825655 4.050950005895164 13.243350792665183 0.8378379309690667 -1.2930643440802247 0.4725229954080765
Ni 1.531417173394186 5.879962888213559 4.677756580542982 0.37775367554497524 0.37109091881281897 0.5622992329319607
Ni 8.696130847586351 8.305247843189315 12.527824305476349 0.14527118526739496 1.1482729266627256 0.9639903931291399
Ni 7.801671938587924 7.348406518980641 8.268988641621227 0.9872113113302934 -0.7789306151098973 -0.5228621099822608
Ni 2.9929335297449695 3.031532302792588 3.6519029776893706 -2.0970416177461044 1.1475910701043524 -1.7072976026084725
Ni 2.94245679016487 4.325584109220813 5.753222399129538 -0.4225723745215626 0.9973494282055598 -1.2614539162637952
Ni 4.620990799429472 4.2299600131782205 7.941857805495686 -1.5443747656975855 -1.2586992363367935 0.04084145949639418
Ni 3.5640457417223326 1.2620016167954813 6.169061140520441 -1.2807734425280137 -0.3099750253381049 0.04270962305338451
P 7.636636552894014 8.375961460430895 10.68286668472481 0.08121960620312463 -1.0341807381012962 -0.041292688101199855
P 4.568315804767933 -0.20713381777664258 8.012085589891537 -2.651394856358111 0.9726251859860022 1.7881598254721782
P 6.9400113648592 5.42869252363817 2.5366792221362013 -0.04888181330236743 -1.4535811426527805 1.3167254351425906
P 0.9509762318695402 3.700845556895407 4.1780507132488305 -0.4711425701207821 0.18391820821563162 0.7151682851512715
P 1.5598559439645658 0.18731719476308298 5.30652218839573 -0.0039013919369352166 0.8727974777633871 -0.1301996356462532
P 5.554436408842831 5.522441637405418 9.444612688264991 -0.5982005748142601 0.20935490312118138 1.8229345099492025
P 7.899226435101191 1.4571567916514594 2.18140333187553 -0.36621482166744024 0.5082068219629313 -0.621452089143033
P 6.560036508576362 4.026362799900245 5.815529076139499 -1.1349756953331873 0.24752267244015433 -0.2827007630031841
Ni 4.224750702817163 0.8629638249555769 10.871055792427759 0.6746685252650122 1.5046579067239376 -1.4299395919744404
Ni 5.948459777641924 8.574737290715127 6.60913702963909 1.6712005997755994 -0.5014378786702137 -0.4486680431673499
Ni 3.4389114566663057 5.884479471132985 0.446808276214703 -0.4270026423787742 0.3114261559623346 0.08800243345291296
Ni 0.9462472125346799 3.5658468330705704 10.99619469566673 -0.12924035705677742 0.21378851341250277 0.39277174622036226
Ni 8.705006995205103 3.94488881639868 6.146863382380852 -0.5807420130181805 0.6006433799277978 -0.2155466337541901
Ni 6.1215677471222945 0.12580022703658045 11.927798573721942 2.2658813343620587 -0.4839857446320374 -0.28304554793711256
Ni 2.6970742576077793 8.029782466933709 3.985467866292771 -1.5565437969599514 -0.4042146979499813 -0.1503210889864766
Ni 6.470730086801434 -0.14211257283208156 9.061921416774375 0.645455651146482 3.010115683641351 -1.6177800180626138
Ni 1.6594978591686118 0.8870208635485004 2.891157090384114 2.32769142569032 -1.0494808587934765 0.06809001079970207
Ni 2.6255570765339074 8.928129885971153 9.344454460207784 2.293403708152044 -0.8263085901732286 -0.7077205706239746
Ni 7.242770202315024 4.237912524208132 8.759853459487005 -0.16336506665462833 1.2307017226826031 -0.8599404192950609
Ni 0.47436220293297426 2.8897263773080013 8.780928999171152 0.21952310190343483 0.25149656948623783 -2.8426854457784136
Ni 2.065334539938967 7.948724119897121 7.077670162059896 0.5987585042002591 0.6242443071761895 -1.3531620807030695
Ni 3.95688685568771 4.041464258127778 11.042549245150838 -0.7450298485973943 -0.7857509804658402 -1.143339236806534
Ni 5.5720132131284545 6.88030749575659 4.60156672196617 -0.572353274733853 -0.20306675611962446 0.8285277093117344
Ni 0.7649382737820005 5.030300353773864 1.335815882065798 0.6996935865544401 0.44501347713389816 -1.672159621254759
Ni 8.552662376241853 7.068055105170072 0.820577218257126 -0.7402015739708155 -3.8174503038152388 0.3387292146526618
Ni 2.9547042113328867 2.7192600084717133 0.8245119101255839 0.053167070941282625 0.2989863875370851 0.7939360873797939
Ni 9.215778028833556 8.842693501503463 1.7660245615058705 0.5445167121375589 2.184110997861787 1.1352654586594642
Ni 8.990770919426273 1.128037365950145 11.49621182849132 -0.3064037630470787 0.42758936812017967 0.604008696855605
Ni 7.5923019966297 6.057476604222694 5.729065607785021 0.4716231093016265 0.9554779847827545 -0.28212406456410766
Ni 2.568984335467465 8.101521320788903 1.1587178025216394 -1.100170414728544 0.5678209340811382 0.13548736640775375
Ni 5.87528005070814 0.5820000400866074 2.8485876036410733 1.622324957120819 -0.07020500026017586 0.5972482382033198
Ni 7.009164036265642 4.656578517197472 11.364840225550859 -0.41190203929191 -0.7430668113337526 -0.44336514289719775
P 1.3354307256082516 1.4094786709355447 10.022508087350795 1.2373511096783207 -0.23899972257080773 0.7787706924932652
P 1.001323662327202 0.35828325099393354 13.449425199274426 0.7321763896734939 -0.04447134293949761 -0.3489421506299216
P 2.52788250726409 3.1283755991324496 7.234644971242999 1.8045482941325308 -0.39636306311604647 4.535929655617614
P 0.9676940541275421 6.75830433873673 2.5807080546896097 2.3213485141914276 1.2087833253429567 -1.46355368048446
P 5.542613860505681 2.503747883197704 11.879430496474164 0.4774122051795778 -0.08982791669742593 -0.22614369254374606
P 5.168956678490507 7.770840949252449 -0.1375156335294255 -0.6421710668579392 0.8522595057110356 0.7810288923998225
P -0.011214795461693818 4.98302863315704 9.312997245265077 0.4823438381532402 0.9773994674461942 1.0694313337734744
P 4.254907437442785 4.38201830479893 1.9724767354799495 0.20607648948022578 -0.4389150775456441 -0.3095147978722347
