# total energy = -340865.81199178274 ev
CRYSTAL
PRIMVEC
9.32412142316444 0.00000000000000 0.00000000000000

0.00000000000000 9.32412142316444 0.00000000000000

0.00000000000000 0.00000000000000 13.64679419944022

PRIMCOORD
 96 1
Ni 2.1725762452743225 6.888287970948639 10.139759242953245 -0.16690830392119643 -0.07374309532042138 0.40514800839752807
Ni 3.724138028843772 5.112900651694228 11.804054317053794 -0.9375188292011725 -1.6983578769166816 1.4595828687621701
Ni 7.636744524790236 6.576358811573313 11.317177599107197 -0.25787496220875594 -0.03313457777043971 -0.1214573706772489
Ni 0.2398826052539292 8.369023727896012 11.312264719509097 0.1682272798429361 -0.38041708130975127 -0.44132600097998187
Ni 1.4507493823269666 4.311809432202075 11.466541633212215 -0.25273815520282283 -0.6651335891913835 0.662821139008123
Ni 2.2663209624489364 2.0390641500661175 7.942543074304581 0.36357789826522546 -0.38434804093304126 3.046883487289004
Ni 4.0719743799676 5.683452968049091 5.457857714110724 0.03145204786169421 -0.43980853589419094 0.8463570241836713
Ni 6.337213744326994 8.209879622789954 12.633546810517887 -0.27224357222560214 -1.7649777309287604 -0.45701255847730327
Ni 0.5808219037326344 2.0869994585000433 1.1320984637899956 -0.2739602978063927 -1.2743333433296247 -0.9330014009467931
Ni 0.7464472056666289 6.426305724892285 2.6608105553057246 -3.5212468783399293 -0.2446373804725593 -0.7852262183106219
Ni 3.45858704961829 2.1280255929309466 1.1659142550946675 -0.7107287613226791 0.659434224813761 2.4418959714598976
Ni 8.53928218578426 9.217136491918858 4.559080471302152 -1.008063472188954 -0.060994794515817526 0.8001722980974929
Ni 4.836589636302096 2.434481493008332 12.994313853284618 -1.7283675359048942 0.6040716888830564 -1.1103306430909974
Ni 7.993634597853248 6.871691034747046 7.17044894014576 0.2335726380179655 0.23958927652569062 -0.3952634022939644
Ni 7.7703312129701345 2.6377100443846873 4.461641537204464 0.3491876909818244 0.5601546757851321 1.0063742574119894
Ni 6.0068414727006845 5.451002620012179 1.061895288481551 0.21131305528881672 -0.28181913172917916 -1.5648769994159952
Ni 8.518703849718577 4.851275127604067 3.9713260832628405 1.5598245245937523 0.5129577063843552 -0.44341579362947503
Ni 3.480862375789978 2.967858537095919 10.773694139767416 0.1265872357046465 -1.1241822042621092 -0.24537348730763545
Ni 5.120490486563946 7.561545485202683 4.313819712789189 -1.5233104888281184 -0.3294215640984907 0.6064299047025878
Ni 7.353123398172234 0.38658553509381577 7.834993062893968 1.9673204643981665 0.993774823480424 2.4326014335318495
Ni 2.141704079115068 7.611289673200154 1.142774582863492 1.673907457183801 -0.42821208930584315 1.4316149227943344
Ni 7.587671673538 0.6097126940813057 12.162091257056579 0.7580293461808558 0.9593359250762641 0.22354482146831825
Ni 0.20098423534055607 8.88273619982115 8.430443580787658 0.9719700689005067 0.9477464204664517 -0.19169476683725695
Ni 0.11004607872587462 8.747331307956246 2.117067885389311 -0.5424685713592786 0.19154615707453465 0.1633856354799186
P 7.781081925015323 6.404599170129752 1.8696243500421954 0.8080853822969826 0.4515988436608997 0.4104393387034544
P 9.208763430846368 0.9483843662205573 6.412246814552532 -0.7476238345768157 0.20440578664602216 0.9743987329466574
P 0.3911869890351 6.146787211717373 11.879261748350663 -0.642916686774712 0.7968990266628598 -0.4867597078327488
P 4.746667808926726 2.413819239849495 8.747253917748116 -0.6007937894627331 -0.023509395975849834 -0.08449981961629317
P 2.2575656123965233 3.7841760469348142 13.609607034060671 0.551950542707785 -1.348264386291136 -0.4036125455896082
P 0.7972478166256949 7.421543801457226 4.734099825608676 -0.3106422266084586 0.338387772152843 0.03226940155666701
P 4.2646293776065365 6.804100478272134 2.1427922040896332 0.30511281214979713 0.23508856044185966 0.3168146739677576
P 2.61282396420376 8.951837263972836 8.450613520333324 0.21111790855887513 -0.9568956910658873 -0.6337033957065602
Ni 8.543487364563427 7.414476117389357 13.46636988016805 0.5055601283687036 0.12853356079773992 1.2075021446376881
Ni 3.721480654227225 4.794994730462037 1.329215053548293 -0.49325894240384727 -0.23528499272338188 -0.44462986854223424
Ni 2.5859518461515183 1.5113561718271644 12.846177805976088 1.6533152348547462 0.9894512564044058 -1.0593580086978724
Ni 8.110596377467168 1.597035523937521 10.128446286383925 0.2281936330942393 -1.2057676784450846 -0.7497905032108313
Ni 5.234114230694624 5.080490005493815 7.6398709027163 0.494746068472335 0.7346603324376122 -1.3901854520049541
Ni 5.704152517693774 1.2909712369615218 4.190739444672188 0.920046383448022 -0.21058671864575343 0.34542488150528255
Ni 4.31671392009086 7.235089344590233 8.798047069410012 -3.9026355795343304 -0.36780710585522464 -1.4848460142043332
Ni 1.4782555406385947 4.518170888389518 9.032581358593585 -0.8101227244419853 0.7825386441761297 -1.1827069399708794
Ni 1.6093433642667918 6.964344829710657 7.62350893437554 0.14301632779494725 -0.4965926347627706 0.402840443310274
Ni 7.7706575572212895 1.3995040107741838 2.5656523013175367 0.38660675506023096 -1.3612140044732686 0.7053397290966239
Ni 4.844766890823892 0.0926938886858949 11.476626602985048 -1.2588812704406127 0.9953236560247826 -2.514374598245599
Ni 6.7310926072280495 2.6292250938546595 0.9642036706922552 -0.27904748252131295 -0.00867464495586248 0.9298104048133212
Ni 1.235446093657879 5.394647629898456 5.528057159770584 0.9131550556448272 0.3283884948482861 -0.11054766574328057
Ni 3.199245935286213 4.218167280363539 3.6369528311173718 0.8201358857036134 -0.9540916459581891 1.0215368240850409
Ni 6.561710616757189 3.578429982763835 8.829844188418255 0.7868544979426643 -1.0201204033534885 -0.7695653718449134
Ni 8.270766135933998 4.664885939587305 0.4553266881570863 0.7640117890165358 0.40185236836539173 -0.0005576722756829105
Ni 8.094335109638191 3.8709463212561745 10.592204777578708 1.2906647334997965 0.9869752840600874 0.6904723250664883
Ni 9.077106835809015 6.724817473484413 9.287216588824009 -0.009271397999596935 -0.7369972081009049 0.9485756012359663
Ni 2.3425549795187237 8.778697652552964 3.761165979991955 0.3046664686409979 0.06578810213940282 0.6382159388649332
Ni 4.004449092342918 2.736266008233471 6.484847221488746 0.827431133813446 0.12050914783136664 0.4523902292139434
Ni 4.550292486824623 7.051105779910555 11.182155928634364 0.18568738430091244 1.9114480787105792 -1.2507056766083557
Ni 3.7996447644395572 4.818109227565266 9.40549306956401 -0.18389044030148974 0.6233068829635845 0.17589379524925836
Ni 5.844788241698618 5.269974801835818 3.3192277978415348 -0.3014646738742486 1.0977499782125093 0.2931852074742757
Ni 0.6547715110443374 1.453117709178205 11.795620649191804 -1.9347013928115646 1.3114613585301738 -0.9679182674286362
P 2.056052699369096 0.4618703565988154 1.9116705433609942 0.5642087912498477 0.8382850458088142 -0.2995795410363937
P 4.77653296996813 0.5062289320400832 -0.21665248904457646 0.15096643587995937 -1.603882177034599 2.7922393733127198
P 4.002229951435065 0.528044579023716 5.599770842755802 0.3322729175043568 0.9606626143074876 -0.5740833700510823
P 8.660113475804732 3.646552014162057 2.315342531033135 -1.3247894430976475 -2.3056712126654872 -0.45726169837363184
P 5.755882743562559 5.765365375088974 12.457940036559283 0.34814819397371655 2.0399788112948416 1.1592998739008484
P 5.965451697532781 6.83878621010917 6.34098255422176 -0.4986160929507026 0.24191355378349302 -0.045790318861237266
P 2.957993616589579 5.049878914735484 7.299124613551849 -0.3548939973379824 0.3989385371527065 -0.010950328363916625
P 8.233935856160802 4.918819063471672 8.287902938768216 0.48199905321931186 -0.3553938197925363 -0.3816671516667685
Ni 2.6641812252140813 6.289949772638302 3.4923515582549234 1.9051846142993707 2.1457899907944014 0.7980354542601482
Ni 1.2962580138302315 5.689457702270341 0.20352599085097978 -0.32970515677718054 -0.4618901982845787 -0.5375721624989258
Ni 6.362911023075078 3.81957041200293 12.811065029376111 2.082334907663549 2.0269170930148768 -1.8773457377102314
Ni 3.0644657595592344 7.998650975199571 6.084792060531547 0.034744345459720806 -0.0236358942513851 -0.10615210777874623
Ni 4.978008586509712 9.469577756369373 8.715538851008736 -0.3305464217315533 0.9416040550141396 0.3513831559712465
Ni 4.802454027631292 0.19995578474334502 2.0364972194277478 -1.983602232277326 1.5190820525690676 0.6974011909758376
Ni 3.5114361700624626 1.9440327041298076 3.83345309644706 -0.9199965040466931 -1.0826863990111677 -0.27441281196277906
Ni 6.021098054415424 7.989932921633004 1.164140807192677 2.323602086112295 -1.408578352689845 1.3579211926546098
Ni 9.047745177326535 3.7268793205534734 6.406215040379043 -0.1725444191610512 0.708139146218632 -2.2163112367434152
Ni 0.6958442660825483 1.3960727340763264 3.8867301940663186 0.8297636386013646 0.9082568470122616 -1.586926523016867
Ni 4.293002679214091 6.9641956437672725 13.611476520413717 -1.3423220526647721 0.19772117553699498 -0.6193923784005267
Ni 7.089688994518528 5.130728371928748 5.573200826238915 -1.1854623912288293 -0.6341140008814176 1.8842404079475357
Ni 6.573225906762226 2.4824727461710263 6.619650707519378 0.17023711118411328 -0.14065194132782874 -0.12034202612588309
Ni 6.352747730681968 7.1887671091691585 9.127112099207409 3.0396142073211005 -0.3195238453688045 0.42529594410031274
Ni 5.960864229773689 4.8965344131785224 10.594811801939361 -0.8060866066993989 0.5704730269920045 -0.7798382145258311
Ni 6.147383955490913 9.22422282422965 6.232231595966898 -2.235385993986679 -1.424401949985663 -2.3629402215902853
Ni 1.9595480422418583 1.5633940937041801 5.866742818092028 -0.348847019812954 -0.7528295471474712 -1.6826402090711086
Ni -0.2669617188026176 2.7232681829160437 8.295244752007056 -0.19642071155801655 -1.2564932298244103 1.2209125045063232
Ni 1.2435580793294438 9.232754395366985 13.55856772559219 -1.7203973732152245 -0.7411040311804269 -0.7887463156487383
Ni 5.42432630851063 3.666141993352814 4.818873805525115 -0.28741950863509214 -1.3445679112761555 -0.22480980422367092
Ni 5.988659435850625 2.4353672845471803 10.891096950326467 -0.36647013221135594 -0.6931125909028127 -0.7854149372826602
Ni 2.5421284752821443 0.6884297246963088 10.434652300006139 -0.08243548088809674 -1.0194164353079282 -0.3756332867678628
Ni 1.4157839268460832 3.9639730810782474 2.1323389315190684 0.5375055709270484 1.0764334761229202 0.32625576477599944
Ni 7.705789644213154 7.081688898304502 4.279157291255808 -0.05796114989581631 -0.6102582773097426 -0.704908040875844
P 8.119454292855659 0.5543703035583096 0.6150666046245385 0.46533316252785667 -1.0666380872990533 -0.34625534782637785
P 7.73304405124532 8.705419381986493 9.860941903712243 0.4286954567001649 0.07658390720332617 0.21564819232906085
P 4.982558757782957 3.17783775241045 2.4562458573239256 0.49470415949080604 0.07128512069823208 0.714923259020001
P 1.294859395610996 2.5307064264917227 9.858443971572688 -0.40960964371330744 -0.35384473013786155 1.3655044043185063
P 8.334142189508283 2.8702256612718307 12.653553577937975 0.32358156037794594 -0.4600837412034592 -0.7440631138087508
P 2.5894390675781453 8.105635944849613 11.953854720043214 0.48828771444150104 0.8495279657124853 0.42698618731854204
P 1.4075600517169795 3.311144716946501 4.572604177070011 0.06721172195980683 0.7783899121150788 0.28716214120864736
P 6.506465197097394 8.73493022641236 3.350560575600991 2.040469634888331 1.6451458116700766 -0.9693529429926339
