# total energy = -340864.76832813467 ev
CRYSTAL
PRIMVEC
9.35383040733617 0.00000000000000 0.00000000000000

0.00000000000000 9.35383040733617 0.00000000000000

0.00000000000000 0.00000000000000 13.69027630080382

PRIMCOORD
 96 1
Ni 3.621672226969192 5.323723291408493 3.7955739672379463 -0.1242138503764635 -1.2809575335143617 -1.6611612132617264
Ni 3.2962992320387885 4.556119896756381 11.731663110109656 2.150917027608321 -0.14479887361666677 0.4788188557191173
Ni 3.493169303170029 7.807530096089376 11.570501287020583 0.2926848707990895 -1.8409376313948422 -0.9402231155062131
Ni 2.082153321791375 8.856945696901132 6.3161048459563816 -0.4357089119035206 0.7809826125429196 0.31125646315368977
Ni 3.0454762664197346 0.26254705680335055 9.597417370722567 -0.44717603200285566 -0.155560483008545 -0.2148210684420752
Ni 2.4779513067701044 2.2792104695331834 10.886056251915107 -0.36385737717885724 0.06701940344334263 1.365084028951636
Ni 9.073196904887219 7.439026588592519 10.673350145699285 1.0907398654432634 0.6224175383800958 -0.538658196474253
Ni 1.5298189829198665 5.975872355848561 11.364462591205404 -0.08297746943449581 0.9328954714965483 -0.10884610967114157
Ni 8.262687489601333 5.98897707241885 6.471380303493932 2.0765632952870945 -3.147522121448689 2.2839055388536216
Ni 6.615028949684681 3.4747048417069673 3.691254436886909 0.8428754933929742 -0.24569101854805428 0.09685756985069771
Ni 6.218529427416321 6.87341916420121 8.271678391505233 -0.3556347321587488 2.064044593994794 -0.8944693063098659
Ni 3.7312804131009867 4.195903883107685 7.83850437050112 0.286173552043133 0.7371285914724466 -0.679252545091269
Ni 8.93940906683951 2.451208705289408 3.100929515324303 -0.30330712639962604 -0.2558075381567659 -0.724420656987475
Ni 8.829089989587557 1.9025878371376745 8.093842430116233 -0.038396597500327416 0.1911232106045031 -1.3115490331479736
Ni 5.077408872104128 1.7853188638031203 0.04984001520447524 0.5367460670532046 -0.9229188198998105 -0.22212248719949487
Ni 9.211081720706368 8.482848598748292 7.995162324190769 0.9636070416477921 -1.034636337581476 -1.659665088332174
Ni 4.669581861065876 6.486815994631899 13.288549272429554 -1.017860403674718 1.3445473424508652 1.0097562865103449
Ni 2.1229453767257285 6.073928561277781 1.9991773619400417 0.017360602765634617 -0.8495148530863627 -0.14516782692031127
Ni 6.403623025912306 4.8514016188769205 9.095436572351543 -0.4052768206659085 -2.6596095309584196 0.18074186737017903
Ni 1.2165498446932126 8.222456664498685 3.971207101537507 0.7940409883887743 -0.5665443813615597 0.4204283315953663
Ni 1.8794277527493555 2.870307082114383 8.799288685524072 -0.7868596401489868 0.20331563890563695 -1.1063714013329333
Ni -0.10610704736501429 8.532152639463488 0.34510302966395856 0.44301470153631445 -0.8813931898521981 -0.747870403369983
Ni 4.267264256208851 0.3099373037924377 2.7617530726831387 0.8955648533668897 -0.6406957678639934 0.6839849175699317
Ni 7.049177639829852 3.9426489215512484 6.625532365985022 -1.208983357168905 0.8272370155247689 1.4838368562135285
P 0.2445530930158669 2.792314843168581 10.860988921482049 -0.38666306221946306 -0.07870198198759348 -0.2928023702135602
P 9.113792529380476 3.2534961035408285 0.9560559536908458 0.34251233584417784 -0.6472515667046401 -0.7781785674352212
P 2.418021314574644 6.519516986159185 13.380766816842947 0.4124301438812381 0.37156683000797297 -0.23044077725720313
P -0.12190099021221819 7.116412973667993 2.0940644895862395 0.1891722575257194 -0.16936653565370186 0.567292572381494
P 7.9578367988502405 6.228079688385818 12.662177494159652 -1.8989895412322522 1.7793517402622452 1.4341860259556203
P 9.287511869953926 7.740313469912292 5.818312692895976 2.599260340446401 1.721479036315177 2.1596708625415517
P 1.409603552968866 0.7752174127022304 8.068911665608887 0.8100347927138694 -0.5610049396005693 -0.1612503343044707
P 4.6698344144901425 8.94180364745478 0.5719820598964132 0.5832886906994342 -0.9244679095544853 -0.43697029511444746
Ni 6.839829558773725 8.248048744824388 13.167992427664267 0.23089637673738297 -2.4782963644658027 -1.0031400667454078
Ni 5.447745730384553 1.9988200456138565 6.155025336575959 3.3480681680289885 0.6898645162791603 2.6350997187425134
Ni 4.88140870721203 6.911030916755908 2.0899029703841543 -2.482173845143338 1.1148676117294027 -0.1440067167326746
Ni 6.8942875601100715 6.8513160626626 10.602311544368296 -2.221282721816078 0.9808861404432139 1.0249648759299832
Ni 1.992337841057675 1.3033159766746534 3.101189551812993 -0.11889578059765976 -0.36487964779578447 0.6210759367505369
Ni 1.3776040987312086 3.747761862492028 12.62744578602465 -2.13445476828724 1.6087862992044357 -0.2320376894306778
Ni 3.3752549155290152 1.5858297201239273 6.966967758698795 -0.8003687303790151 0.3517958180286328 1.2011486916158347
Ni 6.6762684781541175 0.6732653368579314 11.91642745377104 -0.4925182075830808 2.0787047671101293 -1.3583492813309639
Ni 2.219729461203086 8.310971962788937 1.6090870843497418 -1.0085013310573212 -1.3343449479965666 0.8269806765395886
Ni 0.835457016688181 1.6908545292968058 13.298419434403122 -0.37042114643930396 -1.4762135353403156 0.43875746892185724
Ni 1.53962179731363 3.5445592480930603 4.054266310480543 0.002536393268608535 -0.35469267996045367 1.5846554675945033
Ni 7.032125606776578 7.55304042890319 6.01768397831051 -3.3666161062345052 3.972454657209997 1.6758414409817204
Ni 0.31383317420751644 4.109708334788477 6.8831836278898075 0.5380493592456606 0.40866939128722524 -0.5905991083179183
Ni 7.874494168842194 1.218242888018853 0.4984497273465528 -0.29303865459408246 -0.19663694133388068 0.7186544439276592
Ni 7.919121294293191 3.0829944806691483 12.686710720869542 2.128400077452728 -1.296654375424328 -1.8296882837332684
Ni 1.3960592063637423 8.860930428706231 11.973885228557846 0.8208051438564961 -0.23477540007681502 0.2058929127145099
Ni 1.862076397119173 7.532321694282784 9.11358955125801 0.37451897065776146 -0.25509122881603163 1.5388214399795241
Ni 8.950830093914686 4.21979356627722 9.19092608668377 1.5949900167512918 -0.3904796077520759 -2.633324886230278
Ni 1.6223657821678588 6.74343833517856 6.974100989859752 -0.24713237898027116 -1.9667620207915357 -0.9055551318103824
Ni 4.501877033522187 9.013482050793911 6.0252689994859905 0.6477357054299102 0.14264377494687694 -1.2440187515064831
Ni 6.885822343481869 6.05528637703468 2.5438312705646804 2.7416277218034395 0.6197063100965199 -0.45165617926139634
Ni 4.855816626886326 4.05425882741612 0.17490447090139838 -0.20102684287146022 0.836802804836333 -0.2781779354321661
Ni 7.408654700866803 9.083907040842236 9.183793790905865 -2.1677148158919506 0.15360695882659997 0.6992780962835763
Ni 5.1800484544922645 0.21952504867102626 8.358228450001468 0.07930053480354085 -0.025151559564963136 -0.03375755606641928
P 2.944903880578375 2.9660903067252016 0.04852673739828783 1.164651110910433 -1.5392757539081232 -0.8588888381020949
P 0.22638701874666073 0.8025951392758052 4.590773968097999 0.2937073985263329 0.971222906321837 -0.3881429891990993
P 8.112895247519532 6.191796179766153 8.943255361952788 1.8850220233085666 0.40332432492522796 -0.2684398822087957
P 2.4989506563063633 4.815829001377414 9.693975092501137 0.25213960238687544 0.3659409991807633 0.11251430255134816
P 8.51460485339221 4.4028106143959 4.515463472364689 -0.07405368458230471 0.005859544104570554 0.6424695719349646
P 8.679830915845873 9.260516715048963 12.06532266350517 0.03017806624527706 0.3830684028896693 -0.06351601827577448
P 5.37046438255891 5.58013984768353 6.701307747095592 0.7435671480089387 -0.30358789086483845 0.9602895472387849
P 6.028356698943416 2.896179777355938 11.911649517137134 -1.725960726235615 0.538256333050144 0.023993791811436096
Ni 0.32929224992180356 5.776645119424163 13.94039807890966 0.3989472789034548 0.4325801364665518 -0.8034463408630743
Ni 4.959934114497949 1.81882428475585 10.312980729229924 0.2495872682786669 -0.2839004397382401 0.48908038554612543
Ni 2.501476190549031 3.504197469363013 2.014291281307831 0.08313996315428906 0.51426305545934 -0.16284030449940987
Ni 3.768667673723003 0.6121258943751487 11.961756116511667 0.27628534639514357 0.645187999307392 1.252767701343707
Ni 6.156700607623596 8.112567863451039 4.033442812958218 -1.4700346602231134 -0.8818446755673199 -0.773465735340584
Ni 1.1622976276284909 2.0584787767239936 6.216494033893341 0.2160102036541699 -0.8013555197723168 -0.6109761293123736
Ni 8.317416752023004 6.892631932106545 4.316859201053482 -0.42240345304386606 -0.6729942228863829 -4.746359279860213
Ni 4.8271939054694215 2.6355727050041775 2.515328278178539 -1.7961238175142615 0.6661625446765302 -0.6483864516400317
Ni 6.630397293242843 8.450736898544294 1.6373431356099335 0.5643481450411895 1.169800002101224 1.4681348720972394
Ni 5.850690041886979 5.187222842507548 11.94532798395464 1.2539483519153696 -1.6145926214735677 -0.8329392081158686
Ni 4.407263037727418 5.962524439684533 9.943425851181676 -0.3652370311352032 0.5102624189403793 -0.12783242096565725
Ni 6.343393711139936 5.467847112190085 4.715533488919696 -0.6713700570193986 1.2041494261153713 1.3187990298421675
Ni 0.04539413955432658 0.48847293170496114 9.942809433749852 1.5449314095320037 1.020901761604203 1.6895521056995935
Ni 8.582102094485146 5.014850453530188 11.199686448000158 0.31644314956095176 -0.9691125448470536 0.3152509290250635
Ni 7.037008306312403 0.8370303309830579 4.217235293627702 -0.17268505850397356 -0.5332323974729914 -0.034438384183527786
Ni 1.0292768036841105 5.763287849429608 4.558561246524293 0.20720803198150764 0.36840411600927525 0.25714374046968613
Ni 2.8925130757888047 0.7989462099866761 0.8663396235607473 0.3712922361903476 3.1855338248057716 -2.0060541335229387
Ni 8.111987925958278 2.4104447118466394 5.439160784725586 1.4563193675195498 -0.7408194100604725 1.0215620208960214
Ni 9.170514157704694 -0.06838585499313447 2.4822250719385304 -1.2332422297162697 1.0478541218233308 0.27259581335869826
Ni 7.378862750633848 4.607921410222661 0.4659872584977397 -0.9209593821805947 1.8080506508588348 1.344475351562349
Ni 4.05332344436328 7.435771455568635 7.815286292363525 -1.3084665375679077 0.05728983486040456 0.008553545996965914
Ni 7.38282877477789 2.7183353975194633 9.750926825056355 -1.6658041113503763 -1.2361881997184712 1.65221917357709
Ni 3.9557723457825937 6.649890676064028 5.5322267215679055 -0.6321563629344145 1.5426076464948337 0.6807484129105051
Ni 9.328893216211569 4.844760399201756 2.411788857293571 -0.38207852817257426 0.12563618464528686 0.8106752545113458
P 5.415400184417344 8.7165634083309 10.55753008071358 -0.5869286014448666 -0.03698711874731049 -0.5489228116250546
P 5.227537852084953 2.629558191974416 8.404022933502409 0.4068495644696671 0.5495187933378407 -1.1491455590756663
P 2.486491354042534 4.760211125055547 5.825103573859594 -0.0888526972683502 -0.18968544971671203 0.5026036168435408
P 4.490643083057579 1.6999932217230527 4.516545710556825 -1.8191850702090995 -1.0021388791744033 -2.777872820178403
P 7.061889495517947 0.888912287391883 7.247755720415578 0.3828809694692116 -0.5210723650716897 -0.13369736438686652
P 3.4425650800113834 7.89334213735692 3.624445637720863 -0.21169332144637087 -1.1977350379485951 0.5413560550213903
P 6.777327263182953 1.716306302164583 2.3433646515952695 0.22699009970444134 -0.8799783117825425 -1.198594300625097
P 5.308336240189274 4.812096822996583 2.1153669032316187 -0.8510778266981084 -1.3319131986266222 0.6807340147328018
