# total energy = -381172.0809230497 ev
CRYSTAL
PRIMVEC
9.25297879110577 0.00000000000000 0.00000000000000

0.00000000000000 9.25297879110577 0.00000000000000

0.00000000000000 0.00000000000000 13.54266976621426

PRIMCOORD
 96 1
Ni 5.694745850266833 3.144911713924025 1.2147884355305896 -0.8041066001548927 -0.7107218193441437 2.537671106879694
Ni 1.3782682157456263 4.18281835463315 0.35840395855008605 0.1299389257856988 0.9924941569957875 -0.3623052022003889
Ni 8.474211163416971 6.2068519662519135 4.468702091229436 -1.0506208859351907 0.5526087451170741 0.07360451286002807
Ni 7.325999761507049 9.06055392893766 0.6629750112877302 0.9366351410446385 -1.0041196570498578 -0.7156341690440965
Ni 7.422351030560309 8.208548886859962 11.730769320479057 -1.2497697950576476 -2.4996164660998175 0.9628364820303549
Ni 4.420305310507629 8.40938479339996 3.3664502354049395 0.9408962303138376 0.4304972857955941 0.2605928753605512
Ni 0.23800789858529295 8.097078250320576 3.05606553603845 0.30248874426338873 0.6571513423168553 -0.3722851962312363
Ni 4.674586423045095 6.508351030002168 12.587437863911104 -0.920124287873809 1.7752341185494458 1.4940623905962784
Ni 3.3820655625589082 4.666286500991817 12.814426389950972 2.194652777933375 -0.6137040697664979 1.044000038184563
Ni 2.686074997337736 0.5987833956217279 2.6573833604338324 -0.5185226020666425 -0.5197968407933757 -0.3888173895583046
Ni 5.998169533623644 4.3913342336416195 13.049188343545975 -0.04363573441207969 -0.25853239328709665 -0.29281933949442474
Ni 8.747849507766539 5.086084899693184 10.042526312331223 -0.4847413918511393 -0.5371978098786426 0.34713080845279565
Ni 2.4022583762227234 7.362289944665301 1.837306647271449 1.3802514807206938 -1.0641448885635543 1.8746931305787327
Ni 2.7614867751908103 5.500710883201928 6.213444713702259 -0.2778362358220312 -0.11797352589370651 -0.32849930939453753
Ni 4.980156797501527 7.340425155577349 10.058168473123937 -0.21120404051477817 -0.9295406960917023 0.486438062827272
Ni 6.5400794945737255 7.06762883230565 7.685858288336705 -0.6195800689313008 1.7353645360480179 -2.745999368508574
Ni 3.9470339468721622 4.458742184765502 10.44926690724041 0.411286260084782 0.8535964793549041 -0.8982786527536271
Ni 8.418813578876314 2.5368522069774255 9.695807015507867 -0.12435911770507614 -0.7477755296633315 -0.6443799015838
Ni 9.061692045339614 1.2474958652674053 1.451124320832686 1.6497054060163008 -1.3949121680566623 -0.34621806683053924
Ni 5.523852583375 1.100188441534774 0.015387703873578263 -1.4310035144625806 -0.8592467356621459 -0.2609317467572087
Ni 3.9026011423015534 6.159393437588303 3.7728660507555203 -0.6892173696134646 -1.0563338771595678 -0.6906651578035847
Ni 1.3478536741746991 3.0481625667790255 9.921170718456814 0.7761733640797343 0.8306087602104792 -1.4612322314401351
Ni 9.076006403663383 5.713520144409641 12.470970618777775 -0.6962987019402782 -0.06303342221240112 0.5596103732458878
Ni 3.8905074989084283 3.2164002287329643 5.400762981258914 -0.5863346766146096 -0.5698654753149928 -0.11866360998219565
P 4.11962050889861 7.195514253374036 5.6691780190320324 -0.9817374326999155 0.1866024399160141 0.2503963944435236
Ni 5.243737153811058 8.759397225405879 6.561884139298973 0.9715797754406235 -0.1316340540999346 -0.44651448715945685
P 2.8418488967434428 7.268890375874021 9.435042340670813 0.1810725112367204 -0.15684449192729116 0.9706924877396637
Ni 5.227581452690632 6.915805954880712 1.6234406958759053 -1.0820163695273366 -0.0686811074164817 -0.33515923791321633
P 8.623489471650547 6.150455059992466 7.893263809879854 0.6230484870958753 -0.40267589270795173 -0.4630006577399381
P 6.316703331487704 9.02027571188313 10.03209820513608 0.6655588496542603 1.0128845477266815 -0.6966671410232905
P 7.3749572727488415 3.5377931970702265 4.61213251681232 0.8890460784117658 -0.6770385681590856 1.0773148502866092
Ni 0.6621496455718413 7.370016182028163 11.048896025131558 0.7918236690224816 -0.7416290504459615 -1.5198271582652083
Ni 1.6720317891541427 2.7099569358210225 2.123571606597495 -0.7318056365976364 0.29372771024130706 1.5858831693540172
Ni 1.1627663376845092 0.019355381216326524 6.466828287288589 -0.8002599727152927 0.6068016862197098 -1.5225597267050228
Ni 6.158588428425945 2.6859917205278365 9.098385658376934 -0.29718867220671397 -0.6925903998507557 1.035194009857159
Ni 6.037503946832652 0.7139839079467047 2.432372195980126 -0.32147222734442704 -0.23827415725869286 -0.7178162642970799
Ni 1.756002572469069 4.761518159600877 11.445763691578263 -1.8607078720432342 1.1214972012307782 -1.099862653680138
Ni 1.7479154689299787 0.8823483357112676 10.724142374865922 0.36368768437021237 -1.0178634889985114 1.6597543056118704
Ni 7.92907191283858 2.65792743559184 7.144138013453617 0.46246766805460354 1.056038714516652 0.8999886934661985
Ni 1.4083959149713456 5.776098040559376 4.312406323815028 1.9761840854363837 0.3120784448343529 -1.761646095452366
Ni 3.259954000310194 2.4657338113235934 0.5044418735807 1.6978601113446568 -0.7987476498358245 -0.9914978545207892
Ni 4.24800559082639 6.0731741804061015 8.006724762175828 -0.18208938253700896 -0.15571937718391246 0.5496746021894147
Ni 0.9793260314345459 7.876801835158578 8.505839695816649 -1.9980436045136365 -0.8258864150341454 0.5899085100087968
Ni 1.9604378877924837 6.780823499013147 13.122319262105702 -0.6606804385160363 -1.2698804497645937 0.31964802965149464
Ni 5.782445584069463 4.3906865251201825 3.47192031514215 -1.3441835313535433 -0.34884496293042505 0.4332972171382344
Ni 7.651112427353137 7.164165160936464 9.590945781780809 0.7375672216717619 0.5102773313387148 1.197040840095048
Ni 8.382199541457343 4.150617988138831 0.8275586718828738 0.60705802520489 1.046001127774992 0.7935869315704913
Ni 6.188133189982371 6.873047939486963 4.819525084185041 0.15770478304505745 1.0830280986213028 0.08208118287247154
Ni 7.253789514345651 7.608335906001633 2.806095386360095 -0.4751869153934849 -0.1324550073393332 -0.6521772861410318
Ni 1.3125720657141138 1.9143673059605255 13.076057143610976 -1.122092668722932 -0.8530537194775567 0.33312523820232304
Ni 4.911971596151919 2.5343076377860636 11.738908240699862 0.8662843592352176 1.8216607854431015 0.7406237491098986
Ni 8.206716797042182 1.3639908693373692 5.346212969583453 0.5313943158229881 -0.3890770709775945 -1.8087836723701172
Ni 1.8479586765554317 9.032360102297377 0.5063563149104915 1.1597279625772026 1.6531995352124882 -0.6459922403762423
Ni 0.2354670305854826 4.5994707405161055 6.035534912927483 0.6488631341661342 -1.1645755204774912 0.8742897460381975
Ni 6.232288405186649 5.73348807282767 11.370642457261948 2.6219917206056453 0.12689782496652985 -2.7670286783750475
Ni 2.2268774145752173 8.158740101561422 4.2841560540035895 -0.36665653719054914 -1.1262018057952992 0.9512675462458327
P 5.182945082584715 3.7132574355276318 7.588566916629474 -0.9433436634130656 3.225261739523013 -0.2353760097752914
Ni 4.438283848466957 0.14645244848433392 8.800013176189447 0.8582982557059476 0.10308503881764827 0.09747257772687729
P 0.7175379771336209 0.882315024987308 3.67007748429706 -0.2662197346290254 0.42555202597517683 -0.030989249292662755
Ni 7.433880242241895 2.3910345128441 13.590340485525974 0.6560658225621604 -1.6712191117183606 -0.3869124592261078
P 4.224540036392599 8.64073702427854 0.41428084739660703 -0.4247333867286233 -0.9861414753048824 -0.18955072391106065
P 6.969732315779818 3.5629335406808775 11.022067938173619 -0.0060840014105508124 0.4453479776551814 0.296490874808741
P 0.9211044377404214 2.8879472375120336 7.375432875863154 0.6157447543456105 -0.5612008576614593 0.4061242562678683
Ni 4.64905745432158 0.36833980726893656 11.319369850704959 1.2534169048919317 0.035258823202294114 -0.1775621840906168
Ni 0.9541116639928737 0.9122188021241873 8.633899072887935 -0.14944768524258778 1.6600913772363153 -1.4335383650692923
Ni 0.1519487179376746 -0.2388110571518754 12.47661771178682 -0.10984678302151404 1.2600603783503783 0.42814241241017237
Ni 6.407919197263852 5.345732739979701 8.886158409540627 -0.6483368293490188 -3.8146639993193534 1.1343123507175754
Ni 0.8313468414353952 6.873714153966155 6.228612196678548 -0.7785814593005946 1.1313738369145416 1.0766417354789846
Ni 7.129383213335272 6.372831901359699 13.752039992604944 0.6146404655378381 1.3504971322763968 -0.4872471889921286
Ni 7.196115697001084 4.893872769467181 6.321095720560938 0.060503970922328065 0.5580931652704131 0.6042421530226497
Ni 3.465601455866584 0.522898790548004 5.275018699502824 0.5779161135336112 1.0773410755388542 -0.5705475889836819
Ni 5.8808972793279555 1.837438039571512 4.486849033404337 -0.3089681813401453 0.3101861129076464 0.3272456394930945
Ni 3.784505372885751 2.171396553224661 9.704894366063636 -0.869161937893329 0.09387149063918027 -0.5721370449579888
Ni 7.159890284694976 0.5956262792286642 7.965473131743365 -0.6320846291562147 -0.3659944781265181 1.1198545234210326
Ni 2.9712795652844 8.160137301371952 7.465274674275968 0.63651001191742 -0.09834855257392738 -1.8093804254138517
Ni 5.03684979908506 5.163643368645879 5.71558911048669 -0.14435047322533848 -0.7490538821551229 1.1742171573323132
Ni 2.9296319073559722 1.4840575232541173 7.27915840653458 -0.3839700887683323 0.8319878999461929 0.846586109475342
Ni 5.294369454229712 1.8553147947631854 6.788074133261696 0.5093157387563939 -1.1713382931226213 0.1417325759865172
Ni 0.37340396260868963 5.970318067201834 2.0556010743578494 -0.5172568479803414 -0.33692841399849716 -1.1628053159509457
Ni 9.215532072159887 4.130344711417838 3.596892898459843 0.24102420920000428 -1.0981726675722248 -0.4954865461827854
Ni 8.000745487225073 8.45145808835676 6.373085432980947 0.23319931383894676 -0.8451493770288153 -1.108993669447129
Ni 3.790649350860529 4.4463802049849255 1.583300348206651 -0.6667556981758388 1.4959500945372946 1.331836836862732
Ni 1.548088137087648 2.4487823540196874 4.971947554641251 -0.2168848929496394 -0.2413790214362617 0.2633580968105142
Ni 9.065069382629968 3.233175879438194 11.95660677594654 -0.7893806067986275 0.8566820602587634 -0.27175120597021585
Ni 7.70433556185754 2.487996478503286 2.592527380884413 -1.2591548358169733 1.0127176831315141 1.032092745224016
Ni 8.629781497287368 -0.03231140224085105 9.971941813558633 0.28190809189855964 1.0180699485823628 0.3352589967158743
Ni 1.5810102359344256 5.465123926438379 9.0199601853034 0.021110813836686223 0.8777689628360497 0.03570208138729981
Ni 2.9275037222141065 3.95158641247998 8.009608915692 0.5173789753805025 -1.4105958973405062 -0.3794840279725206
P 6.63940096984672 9.005498704615476 4.380051151198179 0.518857616808558 0.23947846197943914 0.6231096793511139
Ni 4.070579720846917 2.374786281934898 2.804632490399534 0.5235822759777371 0.42638814872322695 1.1477893021580876
P 9.27712915254859 7.793756349731419 0.7773964227912067 -0.5234565490331502 -0.46760910304622694 0.05485140062224102
Ni 3.119206938601836 8.133433204330974 11.672711504511067 -1.366979446202136 -0.8518239608355137 -0.33671012734010397
P 2.7538715735744814 4.087595949002966 3.710501898417859 -0.0499058836915076 0.09173258991930654 -0.4130250971527597
P 6.876915684657831 5.183481755359621 1.9271623251525787 0.022478897828806448 0.6616296898031832 -0.3884296672015826
P 2.6985480128648454 2.712149891815032 11.668513427994263 0.7512673448666739 0.1327591688433133 -0.19034442345694963
Ni 7.346467350784472 1.2079301275864547 11.672670791404006 -0.5817879377841916 0.8283719004601603 -0.7659352312914938
