# total energy = -381161.93892054923 ev
CRYSTAL
PRIMVEC
9.39814888940949 0.00000000000000 0.00000000000000
0.00000000000000 9.39814888940949 0.00000000000000
0.00000000000000 0.00000000000000 13.75514087910303
PRIMCOORD
 96 1
Ni 0.9627369434543094 0.712036630730489 5.678946882990569 0.005694222171299871 0.38077215065632486 0.4253823331665319
Ni 4.347677519415438 5.581043549679558 1.301744139963459 0.42781973896343095 0.3327884236881946 0.3490362530056247
Ni 3.536466925684514 8.65923795379788 4.10352959588886 0.5172630186279286 2.0246522082401 -1.7653443702395597
Ni 5.8402444878034165 2.3897518254240895 4.812786254266302 -0.3705676993194973 -0.4363064362782035 0.6514229244735104
Ni 6.863627684111723 9.046836397964094 8.363936847308493 1.4053315636177732 2.672370944389146 -1.9889879220692714
Ni 1.2220600575098426 2.0530443558750164 9.674196649709733 -1.1088478878978838 1.104685014769446 -0.1304480042116334
Ni 3.2726514966027582 3.0942276456135835 9.453770593040243 0.7741375645966281 -2.1810012485882115 -0.4422608540894255
Ni 3.7183023046120116 0.23152620996963993 12.956929540305438 -0.4602657753072783 -0.9735214725480267 -0.6002841968161662
Ni 1.708160497052275 4.5889561881773595 2.8682360053488436 0.002503226037827947 0.18735371625974184 -0.985857111295244
Ni 8.67765832503511 9.120057373632077 12.814260945628526 -0.07869915377411608 0.2422475400841441 -0.5412372700553388
Ni 2.0904019965219462 6.680025453249225 8.376688255315978 -0.5772915925757348 0.887415227676562 -0.8077855916683765
Ni 6.194705060039798 5.306100712666743 8.601350997370032 -1.6361022134105694 -0.08101108973674434 0.3718841041380756
Ni 7.468295166270929 7.8596622680219 2.586737019879349 -0.2435264067965677 -0.4642437861184198 -1.52743659518135
Ni 0.30379045411111805 8.90399393753826 1.3046434688036046 0.782353267638201 -0.5438315131450763 0.30694189493873586
Ni 1.57931187987758 0.7218342006360047 3.456900320088277 -0.6781413143049612 -1.1651118525969353 -0.3391724728376675
Ni 1.4876705329723683 4.739260778583989 9.692339775563543 -1.2722800603450217 -0.1394412088491792 0.03281061877211769
Ni 6.913522454978278 2.3239365908453595 9.571995543048322 -0.9410355841051794 0.41733246627886195 -2.486332347396402
Ni 4.525951000027166 3.3696779826502823 7.104021047276428 0.44640547238541833 -0.35123557464978866 0.2304891139966353
Ni 0.11960647785087332 6.583309106105186 12.912542084512872 0.18180296164484172 -0.4545736100185075 0.36919678711389964
Ni 4.505040119413476 0.6880431573791399 7.517211589869219 0.3150444694412123 0.07122161445014831 2.2070773768499734
Ni 7.663363138413742 5.827613376097888 11.752131062311625 0.1802127343395864 0.2874069102296018 -0.9971108298321923
Ni 3.5757981775354324 1.5874036858139338 2.931413179618242 2.1316013579988446 1.7193763881498778 0.2103964570118183
Ni 5.478415767072144 0.16912532277381045 9.858020676878965 -1.7352125838511858 0.9269382254718488 2.1745747762365775
Ni 3.2441187174822352 4.441959746074558 11.42211695418865 -0.1768512740665212 1.5315321054069626 -0.14014826221853283
P 8.574006144231339 3.2650108017987445 10.396561845741097 1.3796004774002562 -0.4494676562505098 0.7088222883285857
Ni -0.1127777830850722 5.4791770171079675 7.131723969876416 2.440360508651978 1.1355793903554572 -1.026999646971825
P 5.988829217017999 5.762484206366259 5.971931345852419 0.6826587425593404 -0.45702464266216125 -0.2814954298411733
Ni 5.357912705845743 8.143326586926628 0.2467671875387284 0.958218266532053 0.6112275832015474 1.65338671152263
P 3.3908520114245047 5.023338616026695 8.845256448662976 2.729690604046221 2.109999463458353 0.07379580293522774
P 0.45893979011611097 7.878919074483676 3.4334481800957364 -2.0266728382145547 1.3991341765578098 1.3275834609030168
P 0.45501606307960946 3.489823914230246 6.059909294437084 0.0695082313034674 0.1286860272152042 -0.25157473102234096
Ni 7.451228128430721 7.066270564018417 7.642369554092455 0.8095174867578188 -1.191855953459999 -1.7303074332400845
Ni 3.798421521345365 6.445475858878047 4.39959571167351 0.4196230620852515 -0.7789175024837747 0.14498964947123416
Ni 0.5679536146907188 4.329990203768262 11.739435103380822 -0.3686820522610102 1.2822644252512432 0.6142673984691356
Ni 4.294718952108406 6.502748176388083 12.844591590574398 -0.4243297235323014 -0.17126940910336955 -0.4715824858716781
Ni 0.18535968464890662 6.362358632744349 1.5706721618784043 -2.409328064826205 -0.8695015806209347 -1.0444006160570916
Ni 4.99787903149524 7.633608599976464 8.493455552477684 -0.28782522871394306 0.4308816657182063 0.1531485311329427
Ni 7.145205614029377 1.6823343847257934 11.692281772458093 -0.3743747317704133 1.206500185735735 0.7689264527093338
Ni 7.988228940738883 9.287419603730324 6.202055352052368 1.5747806316829525 0.22517361532099284 0.07739251914755059
Ni 4.6988769340909435 2.2618524212570272 11.202241629026558 -0.017612570875440638 -0.6942125088352109 0.6059362528956209
Ni 5.838167496964933 8.997270562298205 5.798740383998392 -1.9131005267123375 0.2891264640238698 -0.7291879964691313
Ni 9.031949730596864 1.6600231799721301 7.818876182769184 -0.759655311820053 -0.16588191953921108 -0.2898268325250041
Ni 0.6545490956177326 7.77162041202682 5.899153022983045 -0.1704371430100613 -0.6042141279981917 -0.2895815492834174
Ni 2.4856693299379438 5.285791313562839 0.014968431259966209 -1.6140087239456395 -1.4964571160807 -0.02409560749662302
Ni 3.1118585723692167 9.109399873130538 1.7856651488477726 0.26691624647541773 -0.28073001243005846 -1.0902678109028514
Ni 8.597990219434097 1.5026605799740926 1.156506091461926 -0.2722769965666988 0.4717853459111036 -0.17423749059275798
Ni 0.3214702512394212 2.7255100819655307 3.069377061110788 -0.8546922835222441 0.0472681889583444 0.821640495273598
Ni 7.14083547493483 7.281835898236942 4.836362449820236 0.5044715232902152 -0.7300621715439686 0.8163879886254068
Ni 3.229457605681176 7.971002134372637 6.0766361192983185 -1.4354790337354308 1.3096875544592026 2.2425177199354542
Ni 4.124913203376649 6.231132283976277 7.022315423061011 0.19316235252171896 -3.005897531794946 -0.5476981951893342
Ni 2.0878081075109898 1.9241863405517308 7.420224576045776 0.8927654362448818 0.7208748486177456 -0.9783800861919085
Ni 1.7023430430748032 9.296282057851093 8.207128738077289 -0.2772749640019225 -1.5478922919325409 0.6139871482245555
Ni 8.267635898332149 2.2635346898547133 5.247613214543966 0.7902146726641488 -1.5352352652901624 1.594988731199711
Ni 5.842951154597458 1.162926906578903 1.583024148570797 -0.5450712990894484 0.15440991434386955 -0.7592986998115826
Ni 3.997107780695491 2.323654646387647 0.04351342797365702 -0.8496927734251237 -1.248434878296308 1.9131504061136664
Ni 1.9910165751782265 6.98206315264823 2.5228991557640437 4.254079156429867 0.10857100163288398 0.7380657585747353
P 5.839032126635251 0.4128822833190265 3.548757824411068 -0.12939925123214488 -0.8251451659927468 1.4957523767041918
Ni 7.547982068169123 4.184328298765301 6.936140039375989 -2.0226783723431807 -1.3641630597992636 0.7893482108987955
P 7.563526605937681 4.456555070835485 1.8974805615171857 0.3995607441177377 -0.8055001380683096 0.07503867420339334
Ni 4.843401663114463 4.0571055612967495 13.051743702174775 -0.5673748476826551 1.6239753482400485 2.2322636463076138
P 6.613251607514273 2.1255134796557655 7.010004788222415 -0.3157702918636433 -0.8356838607405414 0.09448032786777276
P 3.243385661892182 3.6946941553528694 1.8982784643325126 0.5921803367621092 -1.4199577981713802 -1.4732773355301272
P 7.81386508994077 7.386296319819491 13.829280729506216 -1.304747693955424 0.5962943589304828 1.2346920747889187
Ni 9.546921282609075 5.738096010774112 3.9811779188347245 -2.286105117608101 2.2938510801021077 -0.8840208572830324
Ni 7.938409355061053 4.414037846612413 4.693488035689195 -1.0835672589542242 0.6088441705710353 -1.2449682599039462
Ni 2.335834646960835 2.8556932362400653 4.6310664725664665 -1.6460181869727004 0.2318289158539814 0.3767342331415254
Ni 8.18098496832845 0.2971121297227637 10.445763973056536 0.5373333070152424 -1.6945634428712562 -1.799122238020953
Ni 4.191968993569315 4.172655798215996 4.818192069335513 0.7196150080687156 0.4623002892388038 -0.038886392652552386
Ni 6.187487281922354 5.589417300073626 3.134975198457079 1.007641297049871 1.2663444115868772 0.9916053266329309
Ni 3.149357185245003 7.928043197165815 10.207703230371976 -0.9980006886363133 0.5530394048965895 0.5042347246890607
Ni 5.2771638131568315 3.730125175538763 2.4663655327332155 0.5851563400357922 -2.514486955453747 -0.08162969715734973
Ni 7.4647144716579765 2.0491535223585813 3.10706645640296 -2.2027453251335225 2.2562083300486693 -1.1711585730116476
Ni 5.8406204137470334 4.488095257504943 11.313698972234675 1.7202495347834503 -0.20715660991828191 -2.598679014021634
Ni 0.01622872298594189 7.179114134143622 10.329890439825778 0.8111971884530867 -0.03609366039876365 0.13194695735466308
Ni 3.7139979525575977 1.2511285311000198 5.572798553921181 -0.37256364670360353 -0.2040232064956228 -1.4306769843610974
Ni 5.842161710115863 8.220898905391977 11.75191020581975 0.4648338542939349 0.5886885215587668 0.5765256609439877
Ni 4.74036976011766 6.430476413727732 10.618872231202968 0.6273121474682357 -1.2795236292813126 -1.3879622191013903
Ni 1.8396030032379265 5.284400387571457 5.126279356982173 1.6819215857375294 -0.44776712861963525 2.2623347546613815
Ni 6.72437531644743 5.440137107863352 0.0683311189563862 -0.7097322017373647 0.44703436421866877 1.0041546240528512
Ni 6.970042920601079 7.347021456860114 9.955846945371533 0.48172111696757686 -0.7902159582157294 0.13967157969243044
Ni 4.887488378152136 7.4323942386555135 2.58177103816417 0.16574796506450812 1.416020153679871 -0.32995146846003176
Ni 7.0709508420164475 2.967080093333755 13.612100793359856 -0.20217432621234213 0.4546617988569396 1.172927234876296
Ni 0.011781519072953876 4.050536255432044 0.6318751223284788 -0.511213727110055 0.4936659480342789 0.9283135085528207
Ni 2.2267409381232084 7.636268276027552 0.17277932294576678 0.04205733418136628 0.8841974920702127 -0.7292041944190474
Ni 8.546460170712809 0.2684740913380277 3.6202429620344003 1.1882695216603214 -1.0828707471078316 1.3197899330005272
Ni 2.081943662790566 4.197137975294047 7.3545568923999145 -0.0171410305556608 0.701278928763689 -0.7522520773774464
Ni 1.5950255843207668 2.077253986643945 1.2846423289734672 1.090343144225477 -0.3101215782182981 -1.2281753567163234
Ni 2.1646191759405142 2.4405958092982765 11.957302044189143 0.9812928889633294 -0.9977186386195203 0.1481773031705964
P 1.4137165017143323 0.5019353801024357 12.890588949220504 0.35508323053065294 0.2581009621766329 2.479706357439452
Ni 9.404821275921885 2.4133129839402794 12.792569078866974 -0.7129856756776559 -1.9816919026284905 -0.4014330214397861
P 1.935642683683456 6.561035493945884 11.967577040043052 2.2950641265736023 -0.24572701399231228 -1.7778859543499963
Ni 8.487073269769928 5.0369753296313995 9.234596369762993 -0.6041963873863787 0.5783226049434105 0.7979899457341935
P 3.356915296864488 0.661319521862273 9.846548356894635 -0.6384689354160036 1.100936346360291 -0.4528959652057684
P 6.077914267506616 0.8608506747706779 13.224054057505882 -1.693794683026031 -0.8656837495367412 0.31673188444596423
P 9.024431211724526 8.591947209890455 8.644059943824349 0.14273042112341228 0.006309744268111714 -0.3802095932846355
Ni 1.07837176371087 0.15231015531582617 10.89376901728769 0.8729648565791869 -1.3137398701517053 -0.6668899097608579
