# total energy = -340864.2503424357 ev
CRYSTAL
PRIMVEC
9.33534517902062 0.00000000000000 0.00000000000000
0.00000000000000 9.33534517902062 0.00000000000000
0.00000000000000 0.00000000000000 13.66322130064517
PRIMCOORD
 96 1
Ni 5.170222299160779 2.7500433628476073 11.66651919721514 -0.9795249984296291 0.7647005875534443 -0.7117610592419354
Ni 7.360985124476815 6.8953567710967505 0.7152713570607189 -0.6185547129905798 0.48280637961195555 3.0149778968296594
Ni 8.772395981919615 1.4779812048495369 7.052353940850334 0.3090046910050356 -0.36496397997947466 1.6170423685656408
Ni 9.345147422733744 2.821580113959348 5.272596496435565 0.6184035321246962 1.1057826187089987 -0.9605973082871908
Ni 1.1133519523800726 3.2912133304774707 3.0075345913305114 -0.8467748284473804 -0.011350649126128839 0.4250192934001583
Ni 0.7661079134817156 8.030450742704181 13.040506522378577 0.44332580501883 1.0959077827974482 0.3022455179043311
Ni 5.096193010851225 3.897198600595762 4.197833127429561 -2.2680027515804357 -0.7626815002408864 -1.1723263680675036
Ni 1.4404064399761505 7.433035319580615 4.328549433065988 -0.5904196453172605 0.3979766874600695 -3.1862869009217123
Ni 6.3618604573118365 7.787825118093173 5.137070620895345 0.5610435061479886 1.486379420129724 -0.8101872591313337
Ni 3.223905490791231 8.599990824731615 -0.021637463359884392 -0.5576481073131945 -0.18862872631742356 0.4712127612370853
Ni 2.478907593659376 4.9976210997212664 4.313889206790916 -0.14792713483300332 -0.12139592131169415 -0.9169911415614659
Ni 6.393059181338384 9.265731640180228 8.620564058726142 0.9150615286389209 0.5784254490698619 -0.9367562400035351
Ni 2.974297027888224 2.3448333643148858 5.003075741985992 -0.36097028543904924 0.377433316091079 -0.0892429907282334
Ni 4.703632405213767 0.5065227670457431 5.554003946068563 2.252141873288779 -0.23258173485960593 -1.2633958704815145
Ni 3.996638698839566 1.8874667915343109 7.110764262921462 -1.0895360749431493 0.6441032508836455 1.8518151975392945
Ni 5.8959240375365365 6.180185302230851 3.467807257106138 -3.8136396718198964 2.1261148809629775 0.8068936759817265
Ni 8.871696049983766 5.358329507160464 0.2395122869500707 0.7926482218063059 -2.033722288862169 -1.5669909604352046
Ni 1.6095442263055948 4.325140164958718 0.8433541617851497 0.9588890673468324 -0.8863947568318477 -0.1657191687091017
Ni 4.209913997795438 8.468194419642803 7.345579937645993 0.6099543729160786 -1.035363445555488 0.7951146810689275
Ni 2.437085246669868 6.828553040057259 6.193743024224793 0.3296239099172839 -1.9592245747639099 1.1630935366153259
Ni 0.6689689778568657 8.814199658218502 8.210734931333954 0.4867720491279229 0.21874637163841038 0.3180346624177878
Ni 5.621082136260173 3.2953115470686303 8.349540313681633 0.08468391060264124 0.6876567099945641 0.6267583318472948
Ni 7.351565761058866 5.513277568618467 7.4337625429802765 -2.2217900004697992 -1.7787231055393111 -0.1560577343599377
Ni 6.96971279649216 4.850878806790891 4.998211093544867 3.200895909084139 1.188674470408224 0.12869039809057836
P 1.4876992993174116 2.6186670482977523 6.91827691090225 0.46468730141374165 -0.8814536107764884 -1.0836346218570498
P 0.4486697650896314 8.148953616071328 6.057534734942401 0.04965391558170158 -0.3839505483843065 0.048685895241477435
P 8.40894298295923 0.7254422157761361 9.318303637294383 0.1921043435708498 0.33579455750437004 0.19508656612762532
P 8.75625516987835 1.290434117568461 2.776845139233071 0.6941230344451982 0.7443397645089052 -0.05149096879044036
P 2.444058749616556 8.616859793707071 2.1585297450291225 -0.0914281713050103 -4.133075071239953 0.1895270697619768
P 6.128756884917189 7.089186545771562 8.041994830714723 -1.2806842252483168 1.2192214899571454 1.0198735774500047
P 0.23059796571340077 6.841342463132176 11.19161337766584 0.5561486399495325 0.12867162903750098 -0.7400015421448676
P 1.2268417453156644 1.0130249963318037 12.582911233637903 2.1678289728723117 -1.0068758796387562 0.4830791736573681
Ni 1.6022253155824309 5.886738057751341 12.627713422850416 0.8841933783051547 0.26034373546422257 0.3914206315091065
Ni 8.049158774705738 8.254312323241772 10.598424065364181 1.2442390950474054 -0.7132911227332167 -0.6080805529321334
Ni 4.174850440810483 5.965416348025354 8.158842547358377 0.49044255600097475 -0.9949626731409381 0.8735346130397279
Ni 1.399209561122423 1.0006089870692936 3.9418252853164417 -1.1951467083961287 -0.4891199805348093 0.47152026517517504
Ni 3.7936976271420395 0.6045737659073953 11.769348959341063 -0.11882636081230502 -1.0768479379525195 0.10312489091664821
Ni 7.165353628157142 2.621561005343901 10.112068444791973 0.10039309380778193 -1.0783592323907234 0.1325596512379975
Ni 1.7778885082836753 1.055034050227515 1.6907141202428881 -0.36113457893105544 3.3544637871426874 -2.492305020040069
Ni 5.059197037387068 6.506567644964597 0.30870586638896236 0.7555250917017633 -0.8893456119300556 -0.6912521406553063
Ni 6.701489655040698 0.555480118455805 11.16831702344434 -1.3166578151294486 0.6309731412595907 0.7665489536160927
Ni 7.929432971102961 4.600682217133344 11.430118380856944 -0.3872536446156105 0.9531236256179649 0.14717971514401748
Ni 2.2620195160684733 -0.17515441638184093 5.988753777766218 0.9623806254398587 2.201345359462202 0.16075899649034894
Ni 8.442456872622698 6.626246771840824 3.4046975222058764 0.006556313061279032 2.1572874499110397 -0.014863547375393756
Ni 2.7532547216343017 7.272402032828725 9.346066954246794 -0.9198229545833062 2.003714686756485 0.6314611366396028
Ni 3.2685004353378564 4.32761403146591 6.487598223294356 1.4528280665368398 0.2453174372587195 -2.1819692689284356
Ni 2.9977847566885822 4.060137717639261 11.878667719992075 -1.1430178489113734 -0.2907457447948477 -0.3580993916491575
Ni 0.3812377653107666 3.4933889038595645 10.136648408993619 -0.19348913973351836 -0.7217708780694537 -0.7460552045381151
Ni 1.3265245625375324 9.042999636425167 10.64195571407998 -0.2600987093329521 0.1139312375035328 0.27264466431876266
Ni 7.064018454815376 2.8638785635596746 13.00065113264592 0.6754735376648109 1.6932048719608321 0.7608794140351411
Ni 7.12503427176257 4.887930792326908 2.50688655708845 2.3381768986026765 -2.198732347319387 -1.0825524445364645
Ni 3.3374326251080637 2.8414643994699853 2.124398789040654 -1.4977688929135882 -1.989890379278883 2.5158753511608416
Ni 7.119619771482678 2.5989507990026985 1.9374034206674084 -1.0863232244328065 -0.9767559203249241 0.6959438897040208
Ni 9.071248391333706 2.4288794781422385 0.8026679263198878 2.5975289595775912 1.5986242710697693 -0.08574269088445878
Ni 4.647144230742001 7.961630577077696 2.1221303001302854 -1.1422241493654843 -0.9938663547529658 2.2515960280876386
Ni 4.395612686705102 1.0158816119967122 1.2233820663437198 0.2713012629169908 1.012737994846488 0.6662350497856784
P 3.0040674440823185 0.09825824352753783 8.821180629441438 -0.710488363177099 1.0875846076437334 1.177768107908365
P 3.827351546985159 7.152657558535327 12.11829389815493 0.42856124511514576 -0.7349511242051536 -0.5208862172028126
P 4.119118429308839 3.5295260255551857 9.94407890593568 -0.8225038717151576 0.9586108739847814 0.04497630760037416
P 9.077680444252405 4.82960355482904 4.123068213909567 1.2151614609551589 -1.9140348656011485 0.2246647940053744
P 5.672949314803412 1.3338061318794556 12.995117139946057 -0.7002697707728843 -2.7674292562475755 2.3398748551303896
P 6.861982911612935 4.760213933138635 0.4355545384633903 -1.817371156928812 -0.40096173823032233 -1.3019788729610349
P 6.878254418488541 0.601308262117902 6.388949762332853 -1.2387978694271762 -0.4445301097395764 -0.6928289982241229
P 0.6165510139403282 3.9151317989365757 12.17358901549606 0.5065168358550179 0.06543020457935184 1.5178857182681214
Ni 4.846248475517052 3.7091940813944886 0.7593612594260645 1.9760336759014487 0.7044079613109739 -1.4388440935529219
Ni 0.23818760145055926 4.248777040321625 7.804951742599189 -0.4201457673579409 0.3926848429335108 -0.3131840191937058
Ni 0.8208737167437581 6.5075851976034045 1.6540971617983242 0.07683433265123542 0.6379143484641143 0.7370422024062274
Ni 5.049730997242568 4.966898478305535 12.167221376459999 1.0928435420498275 1.4829701373378588 0.07693074901978364
Ni 4.762211697035009 8.201362244642555 9.92373438790125 -0.015030669080877341 -0.21281097999058185 0.7845569601577391
Ni 4.71672989468392 1.3992749085395941 9.810193250566455 0.012153861753714551 -0.6507325832747052 -2.2164639602711955
Ni 3.7442669737247525 0.3422981729530352 3.4720156307719576 -0.45915043075591244 0.5671138807117846 0.9395278892114013
Ni 8.803548029219613 1.8498920266609247 11.860085715152206 0.8821084707516679 0.8421825810910076 -1.592259505194006
Ni 9.03725839905942 5.87131606729896 6.094972270239728 2.308635951720766 0.9232350655886488 -1.8849546604057406
Ni 6.889503509587282 2.442415728841968 4.8357695504064 -0.11932464060496226 -1.6659997723009503 0.2566601159650483
Ni 5.160317497786701 6.073351610501402 6.104727706088842 0.11260506249294155 -1.0738747142568086 -0.3645430903919722
Ni 2.4679012215386997 3.822245113100503 8.407458663054914 0.252078667241953 -1.0087396723203723 3.378748113611348
Ni 7.959614142490701 0.7031270063467342 0.03566568675745894 -1.6858530595814514 -0.5242934431121486 0.5786524774790035
Ni 3.0317374075816272 6.424556636414858 1.1736638842908798 -1.1879085387764767 0.042697795978842594 0.19815440641967166
Ni 7.945527106417673 7.937442697379077 6.97433659302428 -0.7820383075009435 0.5582394610402902 1.0095428849479584
Ni 8.544902952056372 0.26226345700545695 4.887661934381975 -0.5315313556214846 -0.07968337206425631 -0.7277571775598757
Ni 2.403683381150122 2.120971783777295 10.403764378491296 -0.1177027887308231 -0.4686930801390251 -0.10776598923308538
Ni 5.913362462575912 5.856155466515264 10.05201883608438 0.6437990893796655 -0.6169948247026277 -1.4186151681005568
Ni 9.458758575158367 8.805685823295638 1.640679469984034 -1.1667290764853842 -0.752525385643491 0.6651700988562739
Ni 1.690873754647692 5.503335425863149 10.248700558751448 -0.26938579106183286 -0.733430316685253 -0.38529574955829127
Ni 3.096188631602958 2.1803072385686595 13.423240743542562 -1.300770711585547 0.1997430910630302 -1.0084535085385213
Ni 8.75612447504401 6.437588778467839 9.04367271482203 0.9770343707972916 -0.05098009059229285 0.8605561985021889
Ni 6.103840848284378 7.429926649592333 11.72931526451298 -0.148854274632963 0.1400240779358427 1.8878075564735037
Ni 5.730791114345151 8.795248907238882 0.5454763624214396 3.6471669127742223 -0.22080762504281326 -3.0289850097420286
P 5.81164454007643 3.7968249678209425 6.350009236440591 -1.3592440252310913 -0.34938206638081765 -0.4249329043339391
P 7.799998408377619 4.355106623404326 9.165821974067324 0.1170345590192049 0.34520299530246357 0.40152943780833433
P 3.728695617747409 4.779864835016518 2.3411384346411253 -0.01318230301822891 2.30110981854705 1.1700162318770881
P 5.399881129135977 1.7730341287223932 3.146639638262646 -0.6924150506151558 0.7749227795020848 0.3410504065866707
P 7.987424136169663 8.145294160709746 12.961574310712129 -0.9178655737466193 0.0665216378713177 -2.570268581199741
P 6.761683961600597 8.026893976141011 2.8028730154923225 0.052241988023851965 0.23154969405066572 -0.2350160553327114
P 1.952842214741348 5.903887087086101 7.967407288755622 -1.639498640686628 -1.390668819399276 0.9215656483060257
P 4.0354924060204445 7.632064881593185 5.153315988804082 0.837882411053757 2.1256492541804684 -1.5057213149914457
