# total energy = -340889.68095646927 ev
CRYSTAL
PRIMVEC
9.03413170512815 0.00000000000000 0.00000000000000
0.00000000000000 9.03413170512815 0.00000000000000
0.00000000000000 0.00000000000000 13.22236493448412
PRIMCOORD
 96 1
Ni 6.041602758501045 1.9827751158122287 11.414219924848508 1.3494710050047276 0.4012399315923735 0.3706425184214907
Ni 4.613640780286441 0.4057029850456195 5.880302851881327 -0.563547503516765 -0.9693454867934661 0.8315664961380582
Ni 2.6504877987920614 1.7768872515839726 4.721428813883641 0.6884691785935304 -0.6915745569917315 1.1024268148628886
Ni 3.5857011250276494 4.222770032866533 5.253179619765518 -1.6791144553060373 1.945520594914256 0.19535344663576681
Ni 4.983995014338102 4.739684987469971 2.269235691523264 1.3445116041169232 -0.49943807463136564 0.517364062982167
Ni 7.564215335816983 6.129821055744964 2.523448933694907 -0.4804926438771145 -1.4579203934580827 -0.4537711687218701
Ni 4.841870052511033 4.494986492933483 11.114627335120701 1.1954539552239023 0.4168411284647402 0.84995733994042
Ni 5.826156782804886 7.7279680092264345 12.426378758640254 -1.4612196330346447 1.2913188221440277 0.35304048906901137
Ni 2.0494470086601675 6.574435853375223 0.4819555746910164 0.02630624199469663 -0.5189424632128805 -0.6208679345047887
Ni 2.5689095884374695 1.6392974239316545 0.5962590241583962 0.7670526327253886 -0.7187562596128461 -1.383416765822553
Ni 0.7460042761775035 9.012332462126947 4.459083949658823 -0.7351005052988243 -0.23455685630810574 0.7993099500971977
Ni 8.90025502274056 2.484684377458969 1.405868105430197 -0.8821349531142292 -0.36155623984950636 -0.02829473317963514
Ni 6.975099599690412 0.4682977742021934 4.688465977103928 -0.8237709113530394 0.33611003186225985 -0.2910871872946664
Ni 0.7403543301358909 7.479149950579017 2.3433200895313293 0.9146714922893537 -0.9233178551104422 0.4511206184729005
Ni 7.9568929096013346 3.8496694227409187 3.9247548025548857 -0.9667152482594705 -1.308068530798541 -1.195031008753871
Ni 7.874375149537233 3.5594298696886515 12.495531424086575 -0.7517103459413634 0.833063649508875 -0.3242978697186802
Ni 7.6166494369131135 8.742808173343015 7.176570676870788 0.0551488772580018 0.3101051231580659 -0.0966318269931368
Ni 6.777351488233972 0.8097256215723074 0.4698525482887964 0.4122229129664384 -0.3624957209446402 -1.1299589588448862
Ni 1.906743862396476 6.456170033690621 9.329436812978933 -1.6457327945217977 -0.644034088208607 -0.8508364001112637
Ni 0.3984910376119462 4.885089339148505 1.4850305889355289 -0.6386260298191583 0.6157938624159911 -0.019491533065708368
Ni 6.139153313917311 1.896652737151063 7.083961791561273 1.831625352854981 0.3140206561623882 -0.5675049455026161
Ni 3.6146103468587345 4.219815871760669 0.23191519800805427 -1.2180287552006248 0.6190342237301597 1.2064510776653543
Ni 6.346992550619166 5.436370131203644 4.852290923567956 -0.8879543880094837 1.3349728113885524 -0.18243313902967292
Ni 4.924351676047846 2.7543261099565886 9.437475995440789 1.560513837351293 -1.195298917703277 -0.4635989534455693
P 0.42534228421393044 5.49772995454012 12.411159860172553 -0.2481263674624243 -0.668935479435977 0.09079927947175975
P 4.141363471016563 6.072671137837639 12.522465784701323 -0.002219890469454241 0.9096508991463108 0.8575078985941683
P 2.6665324169083133 8.590628222797822 1.691894139400584 -1.576209650819995 -0.6578257426760606 -0.8089536438345487
P 6.125213648515635 7.717777508530976 5.7930882466828555 0.7621171430969843 -0.3319852110606089 0.14401777247626812
P 4.586231224337844 0.9991478771413961 12.654530337331176 0.18316256099652972 0.5146978290039136 0.6615587273559316
P 3.9848652054603506 5.894301239139847 8.220542302461281 -1.7503761789655015 1.7857237052268602 -2.0087532776216563
P 4.775785378231538 1.2763331097105644 3.9391669530508637 0.727997832815772 -0.9012840152388543 -0.9636042134343147
P 0.2943853161454815 5.523070694301431 3.8329653130016452 -0.009991306884756987 1.2361907708216322 -0.6943354075663203
Ni 1.5491819590050702 1.1957847903837049 2.653702142894405 -0.024809859954828237 0.22596500087403665 -0.24902805334108727
Ni 1.903066970744835 6.780395990658056 4.476749291023981 -0.042299017878527155 -0.3376940885199281 1.0302559491255934
Ni 5.800725701725355 5.763062406158544 9.1474306762227 1.2036663158313659 -0.8686680289760459 0.8196170370856659
Ni 8.329108174808372 2.2278711121488928 10.350030815653081 1.175891973931575 1.0944988182650632 -0.4242626177397919
Ni 2.0182702197417073 5.609671881949174 7.021697651629392 0.4977534878400911 -1.2337669918714882 -0.3771618075972472
Ni 0.495950348296808 9.0380164988975 9.221343425726143 0.08597074773486484 -0.1805480061918181 0.38210783874861287
Ni 1.398302923442275 1.0864175905439828 11.524745300387837 0.6140331709711425 0.33511192961504865 -0.8960055404487344
Ni 4.180472227674927 6.963689491198956 1.7089243812986394 0.6885913059936916 0.16495040886387718 -0.9256259344183284
Ni 5.352452080707098 7.778405567189854 8.020197781519135 -0.06762695512035449 1.0246298611880675 -0.34996493546748114
Ni 5.341213620720264 3.2272719449813114 4.5545629786482555 1.3281480751572352 -0.8148574109134933 -0.5218609224112561
Ni 0.41400896584296304 7.368563142943296 6.426849758861625 0.34453116604641953 0.5332036011175849 0.5629350667437466
Ni 5.039988563372185 4.038536982616124 7.313329364395463 1.5134847609869482 2.6608233487608626 -0.23920309683086546
Ni 7.958573258120267 7.167237515285259 9.221805973275439 0.4021817266803525 1.1339814497407181 -0.23037727100911937
Ni 4.657375012437779 0.2349226604916693 10.51006142675178 -1.7350868569065987 -0.08659912534748311 -0.15355399410147746
Ni 8.021812180875765 7.186895786130396 4.582408883163866 0.17850012252385386 0.5613232421719365 0.17009390073802966
Ni 7.2559526897793996 6.22896161836194 7.127582193651651 -1.6170277132776216 0.29257842712821225 -1.6518643613408324
Ni 2.5778624130732837 5.434870465321157 2.6631563618463523 0.3370410283169615 -0.293653662470262 -0.1748419569459763
Ni 2.4988860326834894 5.0484445107577764 11.300005009872987 -1.8274074581188915 0.8465655406500517 1.0958391343430418
Ni 1.4259744692137164 3.6399510866200444 3.8381752968235165 -0.7954872339169978 -0.24526627230580986 0.45797980748657907
Ni 3.8441043975384352 2.505535153704639 2.4321084404932303 0.5050014276517562 1.1735129321764368 0.4867036577838328
Ni 0.9956607022580215 3.2270009210266446 8.20726754916172 -0.5834193027400275 1.2234998056175252 0.04538125634827669
Ni 3.5233385130589068 2.5513743385705525 7.1304776329006705 -1.8674048244474357 -1.5327286968182248 -0.2762236399192727
Ni 3.7946605940754585 6.872200838235395 6.0517444748846625 1.419597072397852 0.23749485589050712 0.057884788131926115
Ni 0.7858303429025514 7.331161837199331 11.318543048372169 0.5476578288697019 -0.3214794264332786 0.38305169071912093
P 0.08687311501559156 5.86322382567143 7.954376903888849 1.367525034292961 -1.0543641550277068 0.8003561319735248
P 8.29000845228183 1.7199631869722027 8.07180435614035 -0.14008912684582325 -0.43965915480052026 0.879665408527814
P 1.750724405826841 3.2806004251278402 10.332075478656431 -2.050634234126159 -0.5451818565253836 0.815226364217138
P 4.358625307208986 6.065416729984401 4.035955027741335 -1.2582006994338202 -0.4943444621585422 -1.124717507940289
P 6.752688308359327 3.939098293649015 10.225647985311657 0.39680889240421335 -0.2880928805530329 1.1775091978200238
P 6.106043220788897 7.732909679333185 10.302694675144227 0.7414971528537876 -0.26249729147211565 -1.23793757830941
P 2.234276311610843 8.501389068657993 5.965785614009479 0.4856693029820475 0.7819827716726596 -0.5421237864253503
P 7.104296718879894 4.043514789250163 1.4328015626317634 0.19450781080601984 0.12408452388745081 0.515050584357642
Ni 5.5526665101510035 3.0317371958213126 0.26885305278954047 0.07139876345796091 -0.38723101890779116 0.5051284401479236
Ni 1.254732500523651 1.1011612936778359 7.3085304335715024 1.5547831055151031 -0.7824674246185621 -1.3717822669074182
Ni 6.741305302263338 0.7826169022133899 9.394357891079725 -0.8774524600368954 -0.6639621945911017 -1.571920536526338
Ni 2.6727207972065306 1.6374273586444559 9.360363356445918 0.2311473164059245 -1.7249906490128615 -0.5063250315591861
Ni 6.48872904477788 2.1449829526800803 2.6227882472119717 0.2549253926621287 -0.030329761331792927 -0.24357525775663214
Ni 3.85738457131709 6.779402236157614 10.411356309288635 1.8543258797762903 1.220178711664092 0.5029507157703144
Ni 8.232289384069706 7.150298518118607 0.08326668959216374 0.7171503485783068 -0.2295720014990046 -0.1549745285980879
Ni 7.504599099922195 4.162151008339477 8.230856570762702 0.4643232332061036 -1.53877721700515 -0.7793185945769353
Ni 3.0444120827678787 8.363076510459896 12.507418534738244 0.8277458368403873 0.2535778774952988 -0.11071298767655124
Ni -0.03156344976045109 4.971193649546025 9.984696848655025 0.9262543120309467 -0.9595058749952249 1.0292023110500985
Ni 8.554419422454387 1.7279854960303287 5.922033313594497 -0.397971802364063 1.6626097727827946 -1.1582256670000632
Ni 3.4238636875645088 2.701133141787393 11.611881308639456 0.5385250133304983 -1.3678999011338764 0.18554597362704173
Ni 1.2328427991184265 3.387718126143831 12.762781821890854 0.19298263241074506 0.3803648879155772 -0.6803208384547833
Ni 2.8276290555620327 8.240889877564452 8.071989555842705 0.7685950375118441 0.7266706293639164 -0.22378444828295008
Ni 5.767380721169563 7.689491641795625 3.413723778007256 0.47827738139335046 0.018168443378910645 0.524602232601819
Ni 3.4658724005378034 8.48848832841587 3.8109897873441096 -0.3260493051921481 0.3000873339107477 -0.007231484751432707
Ni 3.277718537076554 4.1869045295323435 9.161221278449307 -0.69543455416777 0.319646744099914 -0.7733238104460811
Ni 7.214964833702014 6.044168451938553 11.129436987416858 0.4027437698314096 -0.8161655882019557 1.0766833873501973
Ni 0.5531698290191644 0.023084917045303303 13.568394203244509 1.0190608517407225 -0.4976149053796978 0.7976222779821295
Ni 4.676708054537317 0.3962596070518593 1.6218949758025234 0.37483650189818024 -0.31276672915062914 0.21845866519466245
Ni 6.334615790022732 5.599120015980828 -0.00575745221029695 -1.1554311349740618 -1.2081258942646163 1.7867452045128391
Ni 8.017502899996568 8.718605734191303 11.114772784643039 -0.8697453212006246 0.7588729251280737 1.389349072146588
Ni -0.08288093216335521 4.568777281657327 5.94884752025601 0.21740451289853527 0.5317745819805423 0.75019570906905
Ni 8.080561140115622 8.975635818665113 2.3451187851771325 -0.829560521451623 -0.019830918682998105 0.2704857089942309
P 8.597304446214437 1.686699513602811 3.503252024365396 -0.42268113218528497 0.29792580748305464 1.093742142604697
P 2.0202125580834833 3.467435305343047 1.776940552961724 0.31463077894256136 -0.7442150660055828 -1.3766617064869064
P 4.63285637867229 0.9266489692681291 8.185106823801828 -0.9435411241358524 -0.7443305085375245 0.9444793196794057
P 8.556325624268876 1.4724370091753627 12.461576639632783 -1.1438647702927012 0.6815601101785229 0.1291313422827389
P 6.5577227095041275 7.588625560000606 1.316487115420759 -1.3110954905503225 1.233244800819431 0.2253134833329668
P 1.7436416464782256 3.332673160951081 6.048451533835466 0.0223966225276453 -0.5213114776656892 0.7018211744204043
P 6.854466837468389 3.726886537145209 6.041589207303312 0.5230168903925703 -0.12112826947260429 0.3835306872380685
P 2.3989323982025144 8.484377798436762 10.309781951558755 -0.29791423751882884 0.4517909050670477 -0.20998302362348353
