# total energy = -340866.57130354433 ev
CRYSTAL
PRIMVEC
9.32575104354434 0.00000000000000 0.00000000000000

0.00000000000000 9.32575104354434 0.00000000000000

0.00000000000000 0.00000000000000 13.64917931358741

PRIMCOORD
 96 1
Ni 7.761896995342768 0.2045538157328139 3.8910128479327946 0.33176538174031894 -0.5819329480024881 1.628427213363815
Ni 6.656413169974122 8.454100848338674 9.566736591994454 1.879736349429595 -0.334256780703605 -0.28801729012009103
Ni 5.481778902436871 9.235608090978081 0.2119360800646638 1.2674836673976428 -0.4320412332439462 -0.23794145650962242
Ni 4.7990500122519295 3.943011369233361 8.449797014345307 -1.560551375457448 0.14525884397222077 -2.0176829760111183
Ni 1.4489978560201004 6.075073842467138 5.380246655771701 0.8230047226109762 -0.34333200353199583 -1.6266510952999986
Ni 1.8758374700534133 4.706706427848219 8.62008429134524 -0.23465867199329263 0.3158947332566495 -0.699975379460917
Ni 4.747310746823552 6.819800323958471 0.6414922853054904 3.2333954243737413 0.7677517156749424 -1.2058131869710396
Ni 1.759470751593556 6.831075156673487 9.95659867153785 0.876783973214961 0.2601521882787068 -0.12625376362462773
Ni 1.3551061969838891 4.603106662231087 3.4523826871653256 0.6552687805821618 -2.204623515992842 0.5140738222666694
Ni 6.2250598925544836 2.8747279637987084 12.35527783206642 -0.21740348445727076 -0.33812294852723057 0.3630821895757295
Ni 3.4885675328373957 8.57248192897094 11.045666377776437 1.3043394027734119 0.8055798422663093 0.6787925747357149
Ni 1.2065283352670715 0.18222237287145993 7.319713723521187 -0.9983791550216548 0.28979340818390736 -0.03462684604525004
Ni 3.2297313194335375 7.710717274962282 2.4435173703662825 0.5835149477776272 1.0896726005210138 -0.03917872708199059
Ni 8.666112466984803 5.547935778599256 6.155315400060034 -1.7083358140649998 -0.038127917219973044 1.1115382902458535
Ni 3.18723387304617 4.468498775209964 6.373088467549287 1.4052104646588768 0.149026281434453 -0.46982385130935855
Ni 8.261393533844805 6.191282023163427 3.644713241326947 0.20235713164710956 0.17394541327363594 -0.3707402203416196
Ni 5.394536503719771 6.1105956272574575 2.787776528506513 -2.0266610111400127 -1.0187708313041293 1.5379459793531063
Ni 6.88179791526486 4.673581361013036 1.6547173906026886 -1.9198931241541388 1.3672285860984645 -1.2442390950474054
Ni 8.92072411527708 8.873209414960284 11.69912080363077 -0.7686441455822246 -0.838960217498968 -0.10221266351502398
Ni 4.925339329561064 0.6389752651650579 9.336597578946797 0.3933643854990387 1.5931064265753339 0.7826178341534974
Ni 1.7083469857178595 4.784585772763932 10.86126550951852 -0.4956346417248754 -1.5568117059093576 2.027488906357947
Ni 1.7376111917225903 3.333760069587385 0.9597512502203572 0.6575570623957063 0.272815128458356 -0.7640608970869164
Ni 3.2036471944509906 4.020582964372734 12.764807920043205 0.45754606238327006 0.1216489178627647 0.7326121916593318
Ni 5.959014873783621 1.6967364259741087 3.837794518427824 0.31056560773425224 0.0970930829002715 -0.8286022713034116
P 9.298370393849922 0.799174877526584 5.432482051142541 0.004239492002644311 0.3322058117118472 0.6967458167800259
P 5.375950282378972 4.280762085891532 0.12113870514329304 -2.094366384906787 -1.2526800267259073 1.8552134245875662
P 4.6158642893230155 4.67041060574165 4.127142723293211 0.20313129080897274 -1.7039456554171042 0.540831549976488
P 6.9273169049108425 4.4279131077362255 7.480609969467339 -0.19009476933998873 1.1108564336874802 0.45915171630749313
P 4.443692278086769 1.0970160436438863 11.972486536778213 1.3224083444599806 -1.2607589470792995 -0.5636845433152614
P 6.961299940819459 6.968434140180078 1.9285606021909998 2.690299503843109 1.3803962338286742 -0.5434540752009995
P 2.0008584852539943 7.648365305125561 12.235192004188242 -1.5905481789298543 -0.6899527051175924 0.422435334723066
P 3.77643480847603 2.349949314882769 6.816359121913936 0.37311566255233164 2.249494151253287 0.9236821804283964
Ni 3.0519545319675765 8.872444703394832 0.1729544417282153 -0.6165037439988222 0.12314298590978794 -0.15170562803882906
Ni 6.830869990155925 0.7865636647221871 11.327002830131097 -1.187011223773188 0.2569989873617058 -0.7440661991325443
Ni 3.6956271778096843 6.197315783929858 11.92180667664051 -0.1425383597172642 0.01809439560786561 -0.5526542536430288
Ni 7.639776288640425 7.2177394362681815 13.611957257400935 -0.8502154786978131 0.6692869492381248 -0.2544857340215488
Ni 5.720396888110247 7.785780243136941 11.731305834785495 0.32763207629823576 0.1840943287821797 0.14607645477750972
Ni 2.1684702043499247 1.4879235398517598 12.015550056239032 0.2926357627287089 -0.3251581608364465 0.15348200321296146
Ni 6.126589289876359 5.472173379114732 12.262026852110044 -1.6225381015728895 -0.018213694794549276 -0.26357818324112026
Ni 7.0045341215198835 4.122522746347786 4.282457507386644 -1.8681064785001507 0.6849385397324527 -1.2242546815056787
Ni 7.883681975016375 2.7846039080849674 6.561433195819761 0.04580008905325015 -1.228152216787872 0.3636496320434253
Ni 0.9046826917570251 2.741677477160883 7.8333732797604405 -0.6763878219489641 -2.7982467558490645 1.0713236657001808
Ni 7.796131826522936 0.09119744963061326 7.308357756774227 0.7025369695405062 -0.21586159389144763 -0.8546771140135925
Ni 4.314763773301745 1.9604033782914314 0.2696848593073967 -1.3956868414391574 0.8581519599360704 -1.0267996151458767
Ni 1.4255995472674332 9.056404463639996 10.275238127085284 -1.3115572606780896 1.052453311158239 -1.3275952879775585
Ni 6.515864779694549 2.125058834384334 1.1490043066185753 0.19681640433453845 0.42605776196700174 0.6665435821650327
Ni 9.168276170215124 5.145818729931953 1.4511259923522484 1.1422604019200584 0.23421798491144824 -0.39646050792585913
Ni 3.60526065257519 1.5233054383801057 4.01337695673097 -0.2813843581846057 -0.5101873427280698 -0.7891728616631957
Ni 6.232091508656321 3.105074008514086 9.979911183383175 1.1655327421844377 -1.611576460355063 0.741923955978561
Ni 0.7086749940556757 1.0600953962338386 3.3349444399387553 -0.522560776691758 -0.04796110126031095 0.49934551491755935
Ni 2.7951047034837333 6.0901069527538265 0.6524584356690859 -3.115030576578887 -1.1102519673342621 -0.4691072848583082
Ni 8.865058708762664 2.5599838743596806 0.5860805392127846 -0.3219771920053035 0.26823239418368 -0.38702070266919797
Ni 5.552412138982389 5.977172110587704 6.63416938917027 -0.7221933103188529 -0.9714231952581011 -1.0424074968864627
Ni 1.9533251334356025 8.254287311736581 4.435492145409918 0.9912559137133122 1.062454131124693 0.5442338907898177
Ni 5.83791999966908 1.2510681210792434 6.342991471998277 0.138675020107116 -1.0613554987438754 0.6654446926738992
Ni 7.842452830737562 -0.03213933497581398 1.6340664480351692 -1.0349189018189016 -0.45424476592417895 -0.962581428596755
P 6.899824591557768 1.5149961944189152 8.62405612861019 -0.6907489757666426 -0.11690368986829544 -0.059964810589406406
P 2.0817686991791207 2.5668196496947564 2.8704493093324976 0.8999886934661985 0.8067435235571074 1.0480153299915436
P 1.1144925006397008 4.254883127426545 6.540700186645218 -1.3901168035505478 1.4326791023927907 -1.3587966532810276
P 8.019436929385677 3.245948800071596 2.453043624806637 1.376700530144642 -1.4898951465924664 2.5974137741559655
P 4.674224837818111 7.5354957432150265 9.551750110461757 2.6871594155522303 -0.731154890387515 1.7793766799629098
P 0.3332202669204086 4.092297988010841 12.593019197164764 1.1765054391458576 0.5410310675818037 1.3003343953790767
P 1.1499956339284232 1.8474871876269054 10.088380856067122 -0.4025020861342487 1.126537334757847 -1.0540543370967719
P 2.9160317140839074 7.442480704753845 6.5180973644356355 0.22123545660885124 0.9954570962788533 -1.2278940780304788
Ni 1.6812183766459148 2.3727414498335535 5.488703272404529 0.18652067883548523 -0.421301478228939 -0.3564875670773473
Ni 3.3350470231975358 8.511696685268317 8.468878433053492 -4.236247784675402 2.481969442442016 -1.0666784536186855
Ni 5.65931322038208 8.453746469808344 3.0174921524679323 1.1039771900691437 0.7609753161830571 -3.205108147393274
Ni 0.1835018658809721 6.287840846927921 12.629803688613158 0.9903920230511201 -0.19607592662408813 -0.9830114143163329
Ni 4.83476763780901 8.751956003082173 4.885982796042529 -0.8457669560081562 0.24411673208239895 1.1332301733969903
Ni 3.776574694738003 6.578860226336346 4.581674221746679 -0.4730603559687853 -0.023117559854069863 0.7244952189791523
Ni 9.049447453544543 3.7404840391489946 4.722943492562952 1.6127203441515194 -1.2775456796193354 -0.49561972932653997
Ni 7.250705965339796 6.892466574177994 7.869174837074706 1.0245879522065386 1.361870407110345 -2.1790554377157507
Ni 3.701054764774233 2.7541087029748748 10.829777111948419 0.367030118479884 0.015734122905805163 -0.4765030631017471
Ni 9.053159102362224 2.2354943753365406 11.689416427350169 -0.026974985926947092 -1.11587059907262 -0.12512839177093288
Ni 4.239626199120701 3.1029943660860884 2.246559378658597 -0.013633531623034583 1.1717095604191112 1.0832157891520762
Ni 6.379708818040925 5.594993517126939 9.444181305304916 -0.2676176434178165 -0.45459469306442996 1.322399345598916
Ni 2.955722109481018 2.008561555413302 8.851819872929548 -0.07462678347695535 -0.7299127904502978 -1.4321689955255914
Ni 3.316395521601149 0.5750015472645309 6.11125589041397 -1.1078695831450145 -2.690948193170701 0.9553466014112129
Ni 5.251936448264597 8.487421755940618 7.255698972317147 0.7922579283464227 -0.7618114389311074 0.5288746347249279
Ni 7.907742412075715 4.270680949278685 11.312602938323606 0.7078884636604067 1.2402988794527348 -0.10127549641273526
Ni 0.9766299265900075 7.00646455193511 7.397363654967265 -0.13507933233605768 0.36711727887705164 1.7665576738213706
Ni 8.947815421345831 6.153223634155999 9.214410659413787 -0.11406904863297773 -0.6522883577975992 1.612848127978635
Ni 5.3905730596305395 3.2801276767469743 5.668968170183449 -0.4871317464601868 2.0077058101937486 0.3454981579453792
Ni 0.44509290607061675 8.172183401709287 2.59767109848534 -0.6117981109930366 -1.059281646933982 0.46131298562487
Ni 8.488848595812742 3.6588184394092145 9.134003103456683 -0.3426128659777842 -0.4016037426896955 -0.5968846842163139
Ni 9.16855594273907 7.88633981399386 5.331110207391099 -1.7395520917668041 0.503197798784114 0.22482394529105795
Ni 3.597837354939828 6.274588955043688 8.219890212492526 0.5147235400355265 -1.8913363955623688 -0.28923033659158576
Ni 0.38232314259813643 8.729732738930078 0.34448204358430706 0.3735272961684535 -1.873737965754315 -0.6544072039128148
P 1.601427252816572 6.322178261366869 2.5385971300541836 -0.1916726553500699 2.1196254165838915 -1.238001598778126
P 6.526645347617261 7.758148043521894 5.629508120831053 1.889925888368087 -0.31570472873303046 0.4504001953671082
P 1.272694537180254 1.2047284653630204 0.2417132023632954 0.9552733249711162 1.457980814382373 0.7990212152121852
P 4.271678804614091 0.553423625067671 1.9646904259333606 0.33215824630336344 0.010746182772910524 0.7248680289375387
P 7.7406902380276765 0.9478786368791772 13.22751530422145 -0.3621555639964021 -0.7016525100530238 0.29530662469265273
P 7.634703080206207 6.563286222503362 11.308180667295103 1.2551182038537545 1.3184678717549938 -0.8305344553291181
P 9.010269974441334 8.329797915949554 8.821014120317876 0.7035168169552722 -0.213678984417832 0.2940807227053516
P 4.683224187338367 4.547599793480241 10.554405409804284 -0.16242172890475254 1.741359320178872 0.7662483916565385
