# total energy = -381167.2326750041 ev
CRYSTAL
PRIMVEC
9.21717466158218 0.00000000000000 0.00000000000000
0.00000000000000 9.21717466158218 0.00000000000000
0.00000000000000 0.00000000000000 13.49026680351626
PRIMCOORD
 96 1
Ni 5.278122947557658 1.035079506998773 3.1171692319898203 -0.660813621659791 0.8902246721008991 -0.03157468948248756
Ni 6.475019174428116 8.617394752574366 9.860710514909497 1.4446072212889443 2.514915815461049 1.19254192378343
Ni 4.384702199257218 8.567198018898063 11.033284461055567 -1.190624652156059 -1.2209880949392649 0.428835581822455
Ni 7.553871044304005 0.4835210049403515 2.955758067807036 0.3532973422748238 1.2461298843122153 1.5793517959934025
Ni 0.3723240870658923 8.024481552575168 9.107940166389987 -1.8838506287082846 0.43589146022797187 -0.020938292814563938
Ni 0.9720155973745946 6.427781153845843 2.8379745568578274 -0.29943890169347137 -1.3148019928676324 -1.1500834975089032
Ni 9.292663408944806 1.8348168911629734 9.763755975455279 -2.604013795970986 -0.822994438198331 -1.3757196542886114
Ni 3.599537168369227 4.578032439591498 5.705276320328078 0.2737594946494963 -1.7035939285046402 0.24360868209772885
Ni 8.857566674976766 5.649722564688375 8.691104499032209 0.2717226667251256 0.33284190263394936 1.6162751513823133
Ni 1.247222000993232 0.58331996452173 7.609563057564924 -0.477764446312674 0.2509772066476581 -0.2929224407311923
Ni 2.638895564633369 7.447624670986567 8.79895926934313 1.048686387916639 0.3073046775947933 -0.5254465828799854
Ni 1.903263630839844 9.072428235521814 1.0999380005463404 -0.2744729757767531 -0.1842257121537214 -0.661293646620003
Ni 2.668667039068636 2.6871013885641575 7.134044403740579 -0.6241373492846799 0.04353906093321534 -0.4764961211232116
Ni 9.250172233357631 3.720613975855811 5.443120514434796 -0.03367450943430975 -0.005987327931686463 2.0238435962958756
Ni 6.064836463803273 5.123864310979135 2.6776021682691153 1.555942673040843 -1.0426820907040881 -1.618348231861258
Ni 1.719141348078577 7.896703859046962 12.368011553951614 0.08190583363687184 -0.6371633292307026 -0.8607634294169886
Ni 6.164428036952826 6.298519495183248 11.341658868004021 -0.13009704863011787 0.09938624980982239 -0.7282048066202556
Ni 8.451209091872242 9.027724937995176 5.669891586471426 -0.2600729983013392 2.719922983136496 1.310702111766646
Ni 1.9164994937776283 3.2688894586428097 3.6136246982537044 1.228154273670401 0.49236137029024235 -0.16244049795782994
Ni 1.9527322077110754 2.7007981102393295 10.135345453693773 2.4780353974949327 0.47962772477365784 0.10245100477807517
Ni 0.06912788889073009 1.6731476460872516 1.7176748955762084 0.9014508798340217 1.59718239641692 1.041272097730439
Ni 3.470413767327848 9.108808424251226 6.800079432822442 0.24492097315124914 0.1312473601844772 0.701249103967018
Ni 8.913819092462349 3.983810400778116 3.3366283192990522 -0.7718917059852448 0.28414623720045906 -3.2847367549601945
Ni 5.302751238483674 1.8239037562616247 0.7373702929509528 -0.873848801846037 -0.06218341550728001 1.9252829277111423
P 1.3539107986985615 4.937566774977396 6.78658917586162 -0.08860818535771192 -0.4778402938559319 0.5039094801391579
Ni 8.476934226593242 9.014507509406886 0.7993769926315629 -1.8995788380768188 -2.0057211756635525 -0.11614778553887739
P 7.951748826640588 5.276675851122259 1.472894385799929 0.5448710101531842 -0.8585139712611795 1.1441205950572488
Ni 1.7328012010547584 5.478246245681037 4.753740363525534 -2.6322031139210087 0.8618474065097866 1.5059424298633162
P 3.81968938721949 6.478816650424194 12.314792508675518 0.01366747018476356 0.504959261559911 0.09941324639301588
P 4.652829812669576 8.617883262835997 8.87364142773686 -2.5776792718415154 -0.3222906094806643 -1.3203679169911842
P 8.26057026656431 0.5527742474076511 7.813535447862968 0.6117798561605916 -0.5507824905416128 0.03206319908313187
Ni 0.37128807662424396 8.564607992793942 2.904265399361196 0.39771520626856666 1.3346028296436436 0.35821431996046693
Ni 3.3427374627218676 6.849337858109425 5.954644217976319 0.27346664599942583 0.3154836138611599 0.7787683785004201
Ni 7.741652545440132 7.248082054872298 2.678681499432078 -1.1459087973059232 -1.2294807057913082 -0.5469374057639097
Ni 3.579775545710028 2.1550491934244214 4.790838570167796 0.7497730197093346 -0.6735164139384401 1.2311763483261764
Ni 1.9456810690290385 4.877148194505826 8.833170656854394 1.3273276361384687 -0.496493647291061 -0.0346345593547339
Ni 4.22449848496639 5.683208560546991 9.983188332957742 -0.33677003404376193 0.9768968167781626 1.4365020756833067
Ni 0.4437074186173994 1.6523905685552946 4.260509986705891 -2.142783856978226 -0.5592838431444046 -0.07228142317323036
Ni 7.428416078812234 1.7791082869875081 13.172530808374953 -0.8318346621977804 0.738025135144787 0.22717470491142167
Ni 8.68089186941169 3.9483980153972196 13.3318238658007 -0.11081300358952528 -0.37245231793671985 1.0230455474200832
Ni 0.6285219112022229 7.0632131809564624 6.931555056859449 1.96190366425797 -0.1247201005889207 0.03528916221959729
Ni 1.9918130286415807 8.017485716941618 4.56614504931931 -1.5632680030576624 -2.3053174288704943 -0.830544225521131
Ni 6.1573861154455365 8.369277625539398 12.68720508061899 2.307754834667393 -1.6529264840567597 -0.49535824813503726
Ni 4.237144448720318 1.6404082413832057 10.367485530020975 0.13821067887618776 -1.9692104823320278 0.684027597882409
Ni 2.657956682011738 0.7249464631084462 12.307345953196801 0.8235459398264269 0.334310773869992 0.28081717282722607
Ni 5.6840012375752975 3.3312897316851493 4.971217758263996 0.38092847372853106 0.3059779883635698 0.4473125575807199
Ni 7.2605160236070265 2.1935585495205654 6.673823494845091 1.8851816888148822 1.4276281702324447 -2.344814458523852
Ni 3.6933956588256738 4.28097211464592 0.596177923294856 -0.48700499107433554 0.1074515433164601 0.01317716081190634
Ni 5.024051525635635 1.738635672670091 7.344722288667619 -2.2614860335078406 -1.3777922205469237 -0.5868537823428732
Ni 0.173020195777589 3.2668708973730496 7.805265798679277 0.009453174993099849 0.03678143049440762 0.4927028127900611
Ni 5.48234788844379 3.633290462295527 10.01427048964214 -0.5187290616504938 1.2774500345817354 -0.19031228466743352
Ni 7.444647523543041 4.771629977993462 7.242870664269914 -0.1338904542342791 -2.6709005304912066 -0.44127663579928517
Ni 6.885515268994385 2.8603566222978145 1.9942122592284226 1.21539980221821 -0.0683185818707404 1.3350910821339717
Ni 3.0805088411480774 2.0416042066289837 1.3889987395283367 -0.3362481001020209 -0.5263945486155516 -0.48451642032452685
Ni 1.904415777683314 0.21117837751584329 10.145260368569941 0.6062247306703172 0.0035589209958519353 0.15782896732774754
Ni 0.20608312331528122 7.026501173936131 0.448652432869573 -0.38783239993721597 -0.9666049479338515 0.7399272372635063
P 3.0531522664967237 5.147506364207142 3.2670865792621475 1.481936810977338 -0.6231533881048559 -2.0437097390921832
Ni 6.8025238275655475 1.8943137541597685 10.836057199237933 0.48215460496056967 -1.9720867754385583 2.319754430231431
P 6.650256100732542 7.583347569147342 4.965658880173622 -1.132954036917468 0.6084731603848618 -0.731830576298301
Ni 4.876373951827014 6.252525793191921 4.0368414156893575 -1.580252196320485 1.8673929973728935 -0.05527434709227255
P 0.15771415539145767 1.181337635896239 13.09532590925276 3.352863018314471 0.8772974225162699 -1.4846503532537592
P 1.9805772926240601 0.64283710530297 5.321289742053845 0.2832661485883509 1.9226508894049337 2.931617590134448
P 5.493989180150212 0.976587316049484 12.385494691013166 -1.4639537441363561 1.0281250188255198 -1.9072852055821412
Ni 8.758906036476736 9.3569071169367 11.173624242047495 -0.0032159358341363967 -0.09485493759837213 1.474768575363673
Ni 2.3611820894833406 6.597801159243036 0.7872647032955307 2.588155745892807 0.33141982547544213 1.5846438976302772
Ni 7.511038833251161 5.3657321935351225 4.634810236037703 -1.4533494862579486 -1.703721712331756 0.09846065267175946
Ni 6.180161754247253 6.734823679043246 8.66620153629871 0.355263207751943 -2.013447340663216 1.1490157183660212
Ni 6.052835702281688 8.537878186025436 7.228557313604116 -0.24938749356303502 0.7122107451848444 0.9894085760919283
Ni 0.14919840764200162 4.0459341585780235 10.810614110064217 0.033677337647787166 0.7380472466319741 0.3955842759684929
Ni 6.053268909494833 8.742711460444921 1.5688239754221975 -0.8436884762125727 -0.9752639091604299 -0.5446663503415458
Ni 2.3362496317906483 0.774499837987357 3.224133623220108 0.9518090205715994 -0.03623661373453114 -1.2126829175076792
Ni 1.321355737489471 6.356384918249689 10.550400362890285 -0.43417602019876195 -0.05498586931757627 0.7680286234854128
Ni 1.4237216802381008 3.6487660986970165 1.3654442494604346 -0.4281735227584239 0.5771262706424641 0.11676742140074729
Ni 8.764095305859726 7.07771179683469 4.885149623904357 2.912284694133791 -0.737467205758788 -2.09260620768257
Ni 5.611784673426594 5.657686203670441 6.073075696310296 0.9272117908482096 0.7984342323604635 -0.22835047038707768
Ni 6.724933650538898 1.76786333379524 8.71324230934138 0.6701719229462395 -0.4481677064921637 0.8396472162636636
Ni 7.522016488375744 6.902355047258544 6.841642438912518 0.9674647248309853 0.9058991454133625 -0.14415969737077106
Ni 4.630054173867859 2.9546206684431624 12.342232037899603 -0.41305646461132733 0.7080213896938452 -0.7750053119135619
Ni 1.811423701653157 2.7226243800420264 12.553071223384727 -1.1106309479402356 0.8088289453312263 0.7971008582610207
Ni 4.54892460173807 3.3000342921154924 2.804586263051539 -0.776180820278902 0.8704742289468492 -0.23685773652714046
Ni 4.08850828873793 8.506300145339608 13.600887022449957 -1.0266368643157673 0.42082479570283654 0.5969258218668946
Ni 6.136205047875182 4.314421241805543 0.20330598856378093 -0.4168030761379531 -0.13285147144680345 1.6202763021219064
Ni 4.944452004513974 6.321378088557695 0.7447421893142117 0.09097977091368202 0.7104192005020604 -0.009161611894610028
Ni 5.325600614683373 3.897685119935041 7.617912896168921 -0.013721206240834432 0.053664322292675315 -0.33618279408172425
Ni 7.261271831936343 6.496633449211616 13.403524268163531 0.14219151790080672 -0.04126517729737409 0.1454763592996656
Ni 4.168753012091933 8.788437864368563 4.522544125892503 0.5347562903166856 -0.8219978786130165 -0.36050928664223075
Ni 4.284741939117754 5.875746123852962 7.834242752651287 -2.0676009438874843 0.44941803395949703 -0.4166284982333018
Ni 6.9945083603866545 3.97519234238896 11.746555528911022 0.7218441545095503 0.838334410989511 -0.9644179675848616
P 8.024536855623655 7.454989193610028 10.640596869819447 0.4780398114612477 -2.531006550375325 0.28187363911619845
Ni 5.983660805799745 0.6562563900182347 5.52112085573772 0.08969113400924553 0.2800586973946467 -3.1114076351143187
P 7.606206162521789 3.661052592635782 9.579842922560786 1.2756181235793191 0.7223807437393107 -0.9951051122560733
Ni 1.4060800077708868 5.0454445882251875 13.022748031853942 -1.0754407731923479 0.9362811001393295 -0.697458012355702
P 7.524329999237432 2.3789343680475277 4.364344225391839 0.13581569628144996 -0.23777973412077757 -0.6222941254283542
P 3.793549479634841 8.10139887584523 2.4221371095252313 0.3646145670598559 0.41464977724037616 -0.8750209677772671
P 3.735545798947183 2.9702345624658686 8.922947782332532 -0.5145132237969332 1.425399280901926 -1.3485448936460322
Ni 2.9839312841410415 4.597711107677966 11.59257801616231 0.5735778911695735 -0.42903767053093206 -0.954443372870653
