# total energy = -340861.6918581914 ev
CRYSTAL
PRIMVEC
9.32656209594751 0.00000000000000 0.00000000000000
0.00000000000000 9.32656209594751 0.00000000000000
0.00000000000000 0.00000000000000 13.65036637076364
PRIMCOORD
 96 1
Ni 4.665967063290646 4.464690528189114 7.280641680489238 -0.6934923428397347 0.28328954562711856 3.3390027153926107
Ni 3.6428711886308625 5.3153102912862895 9.702734916363934 -0.04980483933726906 -1.8158524062914403 -5.461761792509478
Ni 0.7294518672128995 7.718504181869768 0.5700954304534669 -1.1265825861734857 1.4351165081896897 1.2848460699354904
Ni 6.549121181818783 8.816548308977351 1.713107576373524 0.30553421595793184 0.4458902233118966 0.36916824786880936
Ni 2.2638643804643097 2.322724313415784 2.232012305830198 0.13641759153150698 -1.3136547666370666 -0.1881031928312567
Ni 5.415878609621855 4.415306382256923 0.7515800682778128 -1.6087960693964487 -0.8573500328600653 -0.1538391294420641
Ni 5.618013188429858 8.814459159083336 8.425006177903189 -0.6097453422290661 -0.4781400844845378 -0.8275758869214264
Ni 4.843544804281943 1.9849348899271921 0.7756509922129198 -0.31604334301937187 0.1257814519738995 -0.5399226650089735
Ni 7.769352598040176 0.050391414631091216 7.906223626409067 0.2541337499987688 -1.6986540680008617 0.5859528677951586
Ni 1.1575569194009356 4.220623726508376 3.1711168935009475 -0.15210594880104128 -0.03654128945914352 -1.1252702951199651
Ni 5.550815309026376 6.953399665996815 10.579306770957034 1.2857845225893598 0.0353143590305779 -0.6521495182268897
Ni 1.5511844697443014 6.683302429699129 7.863949118709947 0.2224770423254362 1.1044245620192075 1.581332059648225
Ni 5.9937523928057175 2.375307470123186 7.13798165507028 -3.031535029857392 -0.7182034724331696 1.223565625858454
Ni 2.855168412966842 9.012033049060207 0.33506047143953444 -1.689128902119246 -0.07219554832764341 -0.5127754151702202
Ni 3.4154709532921124 7.891110865300753 9.722636867073037 0.08999683817512243 0.34643789615082915 -0.6076300956582761
Ni 4.209646363002769 8.176736827373151 12.194254147310327 -0.19305899417463526 0.32094849363047306 -3.1838803483627487
Ni 4.4998423404683265 1.2748850696987568 4.571999152901486 0.4042429800847554 0.24274376299427225 0.42198076368415066
Ni 6.4724941482061515 4.47181602157763 3.8636812752414373 0.7049530351811666 0.31717488552065376 -0.748849993674433
Ni 1.8430405752506382 3.4529637326400646 11.5654778538963 0.5542043717389681 -0.6902766641159145 0.050722466055531996
Ni 8.29706813064362 4.708421573636884 2.0954537172892076 -0.6948992504895903 -1.4191998369594332 -0.12413337484751523
Ni 2.49959323569304 1.9044653127594973 13.401738951209618 -0.4596147719868407 0.7174313701538354 -0.228265109762123
Ni 6.679375947085823 7.040052753788315 4.155949614789361 -2.1420102120369946 -0.2534593496395635 -3.3796773102938378
Ni 6.943093814957142 4.236898577245236 6.507825963132483 1.8857367899874038 1.2731305812707752 -1.3120151741511146
Ni 6.695426960334038 8.607204297722589 12.501250993611057 0.34126766480379933 -4.549046909725862 0.25833750366747116
P 4.959529929647897 -0.25939780434048004 0.14505135592264412 1.3850010795905374 2.8012014676020147 3.1140162763817596
P 0.7983910157467948 0.6879402722875758 1.4697216137207465 0.9601342526078431 0.38692274363875295 -0.8839650643444324
P 8.520457944310822 7.331358592135067 7.802767804469988 0.7985759001446504 -0.35768467270924204 1.6241594392263963
P 4.223813410721561 3.2332672375354963 9.493079397937477 0.27437116009156615 -0.5087614089148206 -0.7502327329545724
P 7.9207506794220945 3.664900528138291 8.33861330119224 0.7184140457820789 -0.3683763480951333 0.2169687109126973
P 3.717782134830552 8.206180783691929 7.499907288428167 -1.4757206548642974 0.38958434963131616 0.16063249821481368
P 5.401030722875104 0.024576423596962514 10.371439154471123 -0.32941745033343267 0.5367512092595272 2.2425287756790473
P 7.19335345382371 6.485495375671586 12.079454427977984 0.8574400214707104 0.14869255224411812 0.027256264612791768
Ni 2.868132334184169 7.221948692998044 1.9266811835074633 0.1453719725113174 -0.385967064593703 1.4535469469807352
Ni 8.801597830048303 1.8990745599079757 9.468317375756179 1.040650147875724 0.07082695011489092 0.8341566254627376
Ni 0.7927717621256154 2.7296981740195774 6.9228104078611405 2.3620171955553837 0.95783260105786 -1.4916566093682633
Ni 3.263821054735469 2.512846280333199 6.6426777908225585 -0.2490607063512356 1.0657004059761321 -1.1113362015373764
Ni 9.0617995840355 8.128042847030947 11.718238545990342 1.7407268288011957 -0.7674421548543235 0.9175321016666005
Ni 0.7800568601144056 7.547296482742813 5.732184297481589 0.6122835352698875 -0.049710736961566006 -0.2883967849466969
Ni 5.148075707582774 6.942366343119048 0.32071901701084127 -0.08227221583735508 -1.0387223347253918 0.09706402943454896
Ni 4.853179142855683 3.7429451991790037 5.286650698833971 -1.0234250422466888 -0.9007427980234035 -1.5928125494839986
Ni 1.3575836951908695 5.649247844657792 10.952275986410918 0.4128415203870438 2.7708310828402736 0.678709270993289
Ni 6.528229682878631 2.0427222682455786 9.36503875849561 -1.340803816248033 -0.798438860346154 1.1815234611857393
Ni 7.759503748539819 7.666424659511818 5.92891413359503 -0.3755345564064694 2.1220646221530033 0.9672068431839086
Ni 8.253177329745245 1.8740140877418197 6.971678794913246 -2.4605549813219816 1.6874353164669067 -0.8998236286432438
Ni 8.103709846702886 1.7206201220861548 1.6735349736935832 -0.3897841243469481 0.6428711782487573 0.8805820068048124
Ni 9.176478990717694 5.328470070306181 7.125382402428202 -0.5469983409088321 -1.0248635744654286 0.9820971300321796
Ni 3.805302592890549 5.660281167535559 3.732105868791394 0.5335473576102489 0.07981578387706253 0.179082220279569
Ni 6.1735032227492725 6.399849556578988 7.839732700407221 0.42987585016151125 0.7133703127105844 0.49281054201251895
Ni 4.212052616005698 1.747331395731064 11.623218599404552 1.403263882455467 0.8124076638214203 0.35546632490168456
Ni 7.647892780764458 9.237866421978445 10.437397533781235 -1.240502767933425 0.8291668855576301 -1.2647050762112413
Ni 8.509471254243188 0.5228675856618845 13.5521521476415 1.39051712431276 -1.0140829389101567 -1.4991531748556246
Ni 2.9813661237522013 4.534760988696867 1.526234051010062 -0.4017286983033339 0.8016864207491741 -1.3428892380221518
Ni 4.457434462932222 3.2983852936069895 2.9068459605014363 -0.5596219432101136 -0.3742796009534457 0.3249141631464404
Ni 1.2227495879686439 8.887327588199144 3.262246731065336 -0.14906510509218845 -0.5147070849752942 0.660217897057321
Ni 8.704153909991735 4.39207391624803 11.05997725938462 -0.5575923143745946 -0.5243844601640582 -0.2844347149751553
Ni 2.227649340114036 4.464709181313168 7.634991347512711 1.1150581304736538 0.13712618756275738 -0.8446652383035453
P 0.9024773132788888 4.724659118125637 9.218760959666435 -0.5523709180746551 -0.6324659237550333 -0.6311358920897001
P 0.8971453177681366 1.3069777696331608 11.537589568123602 -0.5188442470721193 0.6294790732125675 0.5924004231927152
P 8.154921998792341 8.608118300801221 3.437749312005658 0.34324381469356374 0.40725477032788576 0.3502004485170549
P 2.827356605002764 2.8467278743325393 4.392455372634928 -0.3336299457528835 0.3638365512432508 0.2817191158162052
P 0.8615980592589858 5.397356057436523 1.1518845043762032 0.6010046199219585 -0.26132512554088544 0.09503697170219116
P 1.0525305044165347 0.761006424518354 8.125653381839667 -0.1381813683001491 -0.13040712367136897 -1.232159281064736
P 7.223086533565321 2.891243554886713 11.493840530968036 -0.49485585457732195 0.0058654576418415115 0.04727590226782826
P 8.513043327499473 3.6142666228945015 4.758722520616316 0.5698788450514314 -1.035290169115391 -0.38498490318609185
Ni -0.07916106051532722 5.923681932297965 12.932179196124624 -0.47381343208472587 -0.7843283890867009 -0.5473636946680509
Ni 5.226073745813353 8.23629625247664 5.889654903399191 -0.08603991040990344 0.13200146474168237 -0.35145591819071087
Ni 0.3768350754140154 3.1640454941721874 13.576162448923434 0.38427502160326077 0.36963310332036986 0.3293511158718715
Ni 6.41644151042476 1.2865619253563778 12.719957007828373 -0.1511906360756235 4.005885168954301 0.1218198962229902
Ni 6.281327606341729 4.46167804865444 9.381227804861824 -1.0511181372865832 0.3350875041350164 0.7122570250417476
Ni 7.411175309960882 3.528825988166494 0.15781009277538016 0.04535914486108962 -0.7509248739255906 -1.3587071788910148
Ni 3.6705617512885915 5.939499781495509 11.540483600320535 0.6718734790183784 -0.01691554480841603 4.34860859236802
Ni 0.17770178426625396 0.6605043247731798 5.528603168903221 -0.05133438860791804 -1.431717766920786 -0.16546797193024407
Ni 5.781004186411156 4.741978543809505 12.030750188417551 0.951639841983587 -0.26926006411724596 -0.6349141281852098
Ni 3.370740761811321 6.287100748236352 6.523305258128451 0.8975574583168865 0.44939180870725187 -1.5867594013113833
Ni 2.55274531268408 0.4386487305593945 5.780766359079471 0.007531018269722515 -1.3413838571212189 0.13671223995379037
Ni 1.39081423569255 4.972046175887935 5.223708529683343 0.6143509593218774 -0.2542525349648202 2.179968179338007
Ni 2.6832985279359796 0.9335888588880679 10.29550228644848 -2.0033645025059172 -2.127518189068407 1.6656110215029636
Ni 1.770246758631044 2.5379720384335434 9.01436095894211 0.7322321826120937 1.8848721279942635 0.8817611147145782
Ni 3.709966475852049 1.1966818471035874 8.391631075690093 1.6408291865725935 -0.6501330020174932 -0.771827942626845
Ni 2.496347592107695 6.587210861136454 13.310663207704986 -0.39633272409874326 -0.9362834141321746 0.6195818687035135
Ni 0.18196495576872887 1.8679704755484183 3.5716460997441852 0.1503480855696701 0.8483015495045519 0.3204571558163513
Ni 6.8860618881629305 1.472085897194554 4.004348214355257 1.611856196379011 0.6602276672493339 -3.126879505497673
Ni 7.850083318944622 6.4720557997908905 9.814926928953566 0.6815570248547295 0.29264013360408314 0.16664990805348717
Ni 0.49305243217443817 8.376651684418762 9.340208652411519 -0.08931883827149134 0.163370465971267 0.2119409186808027
Ni 9.374593821292121 6.5993167386473095 2.981390372813471 -0.04274176184290058 1.360840937404566 -0.9949495605148155
Ni 7.672486924829272 6.80863277021599 1.0441338006237582 0.050740463777661005 0.34328032435845396 -0.5821756601409135
Ni 8.377873464044281 5.721985701905225 4.88029239132395 0.88691129145695 -1.0792123244196383 -0.1007774737303942
Ni 4.014282868226262 0.2874744866661208 2.2499081130473253 0.14484643902515054 0.20176166415495572 0.12326999840595544
P 6.45412082101325 0.9020781364241396 5.827286317813215 -0.16764981007291127 -2.4902172842731045 2.1499672621005423
P 6.348693363861694 2.7857228321148884 2.183403197202439 0.8982326300070401 0.45479601044195866 -0.52295646946828
P 5.924502669756329 5.926032225928732 2.0238984681067795 0.5866221259480413 1.0839598664069525 2.7007266127137037
P 1.8879852776580466 6.6851957217905795 4.03525271028744 0.9665075031240385 0.39189294315983475 -0.1479255921711065
P 3.8774528767302896 3.94323311870569 12.757591550919134 -1.352558899901432 -0.5294392489791463 0.45713905675283856
P 5.730584792093984 5.924474690070247 5.804245046325873 -1.0080773561460252 0.00497431328613982 -0.8908193682621045
P 2.2308670040133007 7.921450171574108 11.564713075810099 -2.488717816909443 -0.3298231704122836 -0.24658524822754951
P 3.933207064526822 8.543522532203232 4.028468569069107 -0.4531960129446904 -0.4096878052494105 0.5799318584120593
