# total energy = -381165.5499737751 ev
CRYSTAL
PRIMVEC
9.30431161444963 0.00000000000000 0.00000000000000
0.00000000000000 9.30431161444963 0.00000000000000
0.00000000000000 0.00000000000000 13.61780054197595
PRIMCOORD
 96 1
Ni 4.837404702588426 5.115529188306672 7.753921226038225 0.8383932892519046 -0.5259734019177329 -0.971274842605695
Ni 8.73762330359596 3.013322304234186 0.37143463659214443 0.8281358731899544 0.6126918264518997 0.2285268480639419
Ni 9.020772117639105 8.14184031169189 9.393367932333003 2.658135260405738 -0.5139398677919664 0.5265161617950803
Ni 8.575421237507168 0.9374373179971374 1.8836141759860836 1.0342889815443865 0.6774049503595688 -0.7803354658772239
Ni 0.8449310596552226 8.478526135330338 4.006996743085673 0.8344774991372661 -0.6290872370907875 0.42689517026663254
Ni 2.619294007509912 7.29199378415881 2.675924700749712 -0.7583180810658682 0.28205567322001746 -0.05782102477352622
Ni 8.191227598263296 0.2555466429160281 7.866458737066571 -0.780283786703682 0.9277725484476861 -1.5902671573543257
Ni 4.002342726366943 2.956500872604274 8.56517439901789 -0.20465389810108625 1.1144534070101193 -0.3637799869737025
Ni 4.636171048864546 5.999745843306742 2.6837012444792485 0.23433805542908032 -0.9314458835342151 -0.09388563170656733
Ni 7.082107120542049 6.848057159407215 1.826760179265177 -0.012079813982669519 1.7629745844558025 -0.04478321775296158
Ni 5.864396020821015 6.321823897556133 9.877590365938568 -0.16174192922890857 -0.5206458190572324 0.2841380096703429
Ni 1.7183575043619874 3.722869115450345 0.058017035685003424 1.7190475440555493 -0.11422717147739682 1.070190580537002
Ni 9.234147898148155 5.489283389808812 1.291425439696659 0.5750251651390612 -0.5042344675787446 -0.15716356582960675
Ni 0.8477605008470772 6.911038045390984 5.914550913108725 -0.34372049721966613 0.31617961148692 -0.8375957330512737
Ni 4.428666289046257 3.7455530274060886 1.7256613890565153 0.7870054216982317 -1.129256533461223 1.1068838221929775
Ni 7.092862904882017 4.735513185021837 1.0354349811119314 -1.506777781280418 -0.2667794637872373 -0.7156287697274578
Ni 2.440623309689509 4.867457629420687 2.1207680555082997 -0.7979544645105676 0.2635918100878751 -0.6528216045932499
Ni 8.275543271004455 3.5767542043129392 2.745062249793823 0.7998174858612354 -0.3184275269808322 1.0301934713187741
Ni 7.808373779906064 7.682895832147591 4.040550882415451 2.5939666961476293 -0.08656364412385738 -1.2124677161730797
Ni 8.276985439319937 5.9571786172208 9.761675389758484 0.0792020615524636 -1.0152345360160968 1.5499828559129822
Ni 8.764736067926984 5.7365640821992105 7.521914491755514 0.6958644426163371 -2.0264879758972585 -0.5110818295178811
Ni 1.3323588286458377 4.703078354391105 6.576485700428276 1.786747518505684 -0.8279314704886321 -1.0420015196972958
Ni 3.1668248388715345 0.7626623354908734 12.431812808622851 1.1438421445848816 0.55100514807538 -0.9561860665933726
Ni 5.5179499741958695 2.116451785304744 11.266768765351973 -0.3995149784814668 0.18433138449365027 0.39824845306421736
P 4.629369597002508 -0.04028115669811328 9.466537039642258 -0.013679040148989343 0.6040454636308114 -1.0379661732856575
Ni 8.70401612968942 8.396341149971404 0.12177110997210341 -0.8181268256933846 1.5766783629262975 -2.1172204066868248
P 5.453592050078609 4.1601903745741575 10.078697481023154 -0.6400157110778332 0.16684479767311267 -0.5155365228551251
Ni 5.876286931189941 0.19969006841073084 0.2554349911754748 1.3816290777945108 0.4544339991168496 -1.7265549081761877
P 1.0444089897589022 6.084722122179508 8.921280182063239 1.4069017363183707 0.9600242093925402 0.46832746926949015
P 0.21023929703067418 4.943287769879797 12.833605553471434 -1.4463599423139928 0.6046915818552424 -1.020109861830527
P 6.9485902474637395 9.077481897528463 2.252043519895002 -1.5230603204905253 -0.889784499239687 0.3693924480644735
Ni 7.403840915258068 4.06085754272858 12.161894725835271 -0.35942813776291005 1.3140764275555177 0.35966673613627737
Ni 3.9871953068985473 6.270585052953885 11.74114537630308 -0.011930947109631064 0.7437872344395449 -0.4200688913734185
Ni 0.881483048218856 7.327443211784479 11.544327548918083 1.312311365235295 0.31189641073053387 -0.24933581438949318
Ni 3.5889521569683867 5.628475893031913 9.46077674026088 -1.8193213386766476 0.5556986968963075 0.9123788396004351
Ni 7.4112657560048625 3.4064573870340333 9.840304267180795 0.47603897898113495 0.3316802782256804 0.49664174283315116
Ni 1.8779357545477775 5.044462855444503 11.395158032245373 -1.9311915798860935 1.4665598143006355 -0.49482268734654133
Ni 6.575515260716634 7.716409962937004 5.941174270643657 -1.0598485751810458 -0.2448548958000041 -0.9678596462765588
Ni 4.419873714477685 8.609865799467858 1.7093881478708732 -0.8573819145392653 -0.9993065519319306 -0.0727460215144747
Ni 6.235973013382366 1.8072695070892577 8.73376294466633 -0.7588176464101061 -1.2243446701163236 0.28178930693250825
Ni 2.7840361506962914 5.383484061322856 4.296715331629207 -0.8711409159965707 -0.1913677225151414 0.9818976124268637
Ni 7.377751625215449 7.249082298539495 7.815623699592657 -1.1277544949943996 0.6883321387950339 2.0249314300434156
Ni 5.471875022594211 2.9381341612832577 6.646044734792976 2.05149683923677 -0.4741697869828802 3.548632469441734
Ni 4.790073668905545 3.936849676220726 4.953352243859505 -0.3241274055790869 3.1029381641907268 -2.991256127732687
Ni 0.03068189830404415 2.804217202801299 6.703634702570363 -0.05979074690538735 -1.0670070406026977 0.08405861831381652
Ni 1.4761197489199118 3.973350491069939 8.810771941419448 0.2692870607004394 -0.4003616427524782 0.7541719201079785
Ni 7.354146586400142 2.8021237326659243 5.154813853220348 0.007975047785676587 0.29092392224392477 -0.5580895657259872
Ni 6.218229690946106 6.280503449239703 13.045090697840449 -1.639972494999253 -0.24247971069960825 0.48684481134738733
Ni 3.556535934961081 3.8455557696949856 11.002161583690047 1.4426740088219736 -2.578980250041126 0.19029248717309163
Ni 2.9305697558607724 2.64145687800974 3.5462518792249518 0.4681788595067679 0.44489597771942735 -1.3162142998341269
Ni 1.9536542432663337 0.7239712856644731 2.364527065915414 -2.59488715107937 -0.6552559250663553 0.1689980965706896
Ni 4.45145254843084 6.419807604203357 5.398763602017573 0.47805678074211216 0.22454266660521327 0.887009250487395
Ni 0.6781047506451816 1.4540685301606369 8.826690688328833 0.8943703188381564 -0.02153838829240807 0.40522385594078597
Ni 0.12410835307435229 3.4610364795411668 10.889160717938404 0.5368378554360625 -0.6134125066680081 0.354601405798228
Ni 4.988860288648964 8.547145434212048 11.464104842899374 0.6686228332915647 0.24417046813846982 0.4969631307283118
Ni 4.897045340667309 7.560562741748036 7.87253259175267 -0.1680987246848718 0.6263585253057148 0.60352687212318
P 4.781160138284706 2.2477170149485617 13.456497587981842 3.1224739202308096 1.55215003876763 -2.356005699253981
Ni 0.20658177209638268 7.687408423328287 1.9193334286514239 1.060648702484838 0.364568801423585 1.1303183990668337
P 1.1142378491632725 3.0462223504505554 2.309075228969623 0.08282140347260576 -0.9665224155223741 -1.965095945943022
Ni 4.224399429704012 1.83313549365077 5.175090739735996 1.0312928750305401 -3.4156123336275503 0.41336782520415905
P 2.8479753807864756 3.0554522276696274 6.25304921666882 0.09223009838101535 1.33052531714016 1.0980381988768895
P 7.554077636484233 3.307924725995755 7.721456621610013 -0.7094074714080945 0.31017480005373677 -1.637658502154096
P 8.722215363399606 9.014314925310439 5.6427812722903035 0.34689246718974454 0.16656171921505505 0.6381166942829074
Ni 1.1110650788692165 8.74466666756253 7.3487510160379035 -0.22589146732362386 0.2969271910152112 -0.1680223629209816
Ni 0.9445644207691224 1.1678958148108411 0.04226297509293418 0.10795650797733665 -0.07179831288922472 0.1613351807087931
Ni 8.35651869584073 0.8120319438700244 10.573486821440916 -0.6756666275122234 -0.41540491023884585 -2.97679727199488
Ni 2.2964716083234986 8.436907949039098 0.13742282313533216 0.020012438566184888 0.28573106518907565 1.0469917738230354
Ni 6.9404582790267755 5.632588398808959 3.9734426037558954 -1.214143818323922 -0.8606973520657435 -0.3664179388171818
Ni 3.106049074763693 0.7008212276919198 7.900544152595147 0.5106079752052561 -0.8232302083582209 -1.8083491559358598
Ni 6.780917246087837 8.518599805877257 9.703772797107549 -1.229290444157373 0.8369089913968942 0.5506439080812194
Ni 8.20442111227201 6.618584919635065 12.230541937652118 -0.15189717522434484 -0.6036621121494636 -0.37271174224569353
Ni 4.225162383264459 4.640962769396625 13.342720742633356 -0.06417010692000562 -0.4389479876661086 -0.5164153259156525
Ni 5.46496191899162 7.824749368520546 3.811881604744113 -0.44876343109463357 0.3690404640416935 -0.6692108445845507
Ni 2.783617456669217 6.339604437239244 7.319812745748833 -0.45459135063032025 1.019493825513083 0.2771368957621614
Ni 5.433280737609624 1.4668247415188505 2.814812952979806 -0.5417283507591444 0.4746518688256213 0.3537873945373649
Ni 5.922101362063641 0.5392574373866236 6.767543228431895 -0.760912838376238 -0.1170931801712822 -0.28363818721578893
Ni 6.660137975744314 2.387449168251005 1.119163551784015 -0.6346179371010296 -0.04800301024183991 -0.7808262894707133
Ni 3.2782346673202927 1.7654559302520505 0.9452771310463209 -1.8719945007006469 -0.3567580471299146 1.7978006909960522
Ni 0.878420999234182 3.433839976404728 4.331958203534853 -0.2667380690263406 1.382831068522412 1.6641922867785661
Ni 2.105193568132287 6.253018512440168 13.427723073578917 -0.07131288861237395 -0.9273529444117643 0.8542670230593673
Ni 9.27991580746329 1.291150032069961 4.052657652816112 -0.9496428661582161 0.5924001660823992 0.9016354850410021
Ni 6.799460739331396 0.345943613792657 4.446811557748509 0.3776058371132013 2.1795953693796206 0.6139652938476845
Ni 2.8725666766433378 8.040702443374036 10.09074935598471 -0.23426683587151267 0.05501646544519557 -0.503115780593269
Ni 7.717833522629058 1.7614643805272705 12.260037536212783 -0.951210210645336 0.07298076323310011 2.734002601158014
Ni 6.603846889882031 5.191303502895506 6.279018481090343 -0.17223280145790337 -0.2638041832089973 0.8802598475787033
Ni 0.3811269381033413 6.090862967909939 3.573079001186393 0.7762636098006953 -0.6869987646955911 0.34537988719996
Ni 3.0446127045242455 1.488996916330391 9.99884322574827 -0.6309155485487778 -0.1037049317898343 2.127057961602537
Ni 8.66520784553544 5.001235023226955 5.35492819824518 0.6656169565857053 -0.7487440642241878 -0.5626810417514115
P 4.226772029190769 8.539599637412987 6.010884034858103 0.11153368380563372 0.7083358356104704 -0.6067188966979165
Ni 3.6715093147958315 0.18998660172547863 3.6266383411298073 -0.45884884035509355 -0.9673037737730888 2.456576456290208
P 7.212600092313708 8.646348005693646 12.023455871860904 0.15182158479140304 0.4637295654861627 -0.47602380947248346
Ni 1.8536421966657244 1.3754750091228332 5.512212935593772 -0.42339538464349014 -1.15062497183467 0.18127228595235234
P 4.550776075964705 7.617272521637395 13.401822661064068 -1.427680877847251 -0.06703534428294262 0.49129590514020555
P 6.182994262489829 3.886215611879809 2.9633283765391076 -1.009328454944307 -0.5319625296216323 0.1832155257216522
P 1.6672303115002933 2.435933936586271 12.002743543557099 0.9279291286302085 -0.9511819285105618 -1.4407467098922737
Ni 1.047181674649309 0.41601903745741575 11.295680053137078 1.1802517935621675 -0.3371207325149613 -0.43227006142530067
