# total energy = -381172.6659045363 ev
CRYSTAL
PRIMVEC
9.17592722323965 0.00000000000000 0.00000000000000
0.00000000000000 9.17592722323965 0.00000000000000
0.00000000000000 0.00000000000000 13.42989700814465
PRIMCOORD
 96 1
Ni 2.453285011134454 5.278451990586117 0.3381943876252678 0.3792498004745275 -1.3287034334400731 -0.2092859975564589
Ni 7.625892684099691 6.205082975843551 0.5906479960323945 2.381941702393453 0.7700009167204351 1.2058306704725361
Ni 1.8308543568494857 3.390404080920771 11.800312740502518 -1.6340173058570826 -1.7907620389817158 -0.43294240490197694
Ni 3.942776532775274 3.9667899336607397 12.093635010049795 0.2504434456313751 -0.03282038896413057 -0.3464342966064034
Ni 4.546066203396856 8.694539491101239 5.830885003558634 1.3441783891472205 1.244254264556057 -0.47601326794952215
Ni 3.8089731656710124 7.03588057980645 1.2133456697922451 -0.2930576807574759 0.4066639308214222 1.001854772275081
Ni 4.114081913413696 8.833242803208496 13.162681887467317 0.4942521595550521 0.2606676944625446 -1.8798898442883236
Ni 0.3173778796968129 1.3234347712303258 1.8993636628070936 -0.5179698148869659 0.6043604237680689 -0.7924811001008223
Ni 8.870965038989981 8.219676094378384 1.972072790539741 -0.9014200265960863 -0.45894422828237735 0.31220082934483007
Ni 1.3819037778952799 3.5900447240484232 1.936389445731412 0.8395592845355476 -0.0228085132540833 0.20013646984670694
Ni 7.259378633061044 4.993897319260491 9.647097975610476 1.122712304584802 0.44775838686888697 -0.7581658717587201
Ni 1.533875480403906 4.911635133957398 3.934878812430559 -0.884732024417444 1.4428323887767087 0.5870407015426986
Ni 5.712500864137955 6.408660091642148 4.8991723899441615 -0.6715927145531659 -0.13820296556670392 -0.11087316740349937
Ni 6.644609877797613 4.213824239598262 13.14581378091487 -1.0996716207152546 0.18226087511786673 -0.8307388580304403
Ni 7.828102586779476 3.836069678019036 5.32323510217248 0.393379040787058 0.09748106236730952 -1.4111468847479696
Ni 2.314434884195646 6.376727865779933 8.233197740364178 -1.7115998295282522 0.2436153669659482 0.3748177328451029
Ni 8.373317815595897 9.001437544603442 10.592481802820384 -1.246996860298201 -1.2394339603492783 1.0397991127293382
Ni 5.106577702475437 1.7863694628897089 3.7688991398066283 -0.8768821893557222 0.08861846977035706 1.3563427924238964
Ni 7.847078403757367 5.274286119740873 3.0717535001529552 -0.007250253804510093 -1.2755458755804872 -1.181306974299559
Ni 5.226231790189027 2.1676659322800877 13.269920028395228 0.3060006140713891 -0.4804314516218759 -0.30451991576080456
Ni 5.483084337986483 4.214163748896222 3.7280451601496334 -0.22801674119674278 0.799202735095372 2.7763455849005987
Ni 8.234981540567516 0.31019679924860316 8.128888555325696 -1.7100355703649257 0.18870920184637177 -1.5980324031220414
Ni 3.099527195911506 3.423235547626233 4.778518126190633 0.5700770771051666 -3.02356898093278 -0.5491179583549963
Ni 4.686769867583989 0.45447081662050154 1.806979512461296 -0.7947596117223539 2.6603587504196184 -2.6954247408848158
P 1.04076116493394 3.5937701503990156 5.790917418447124 -0.07243928890733331 1.1675268897963313 0.6756213760965848
Ni 2.4821249496071394 4.1692567622957375 7.545373007328561 0.28457072633238734 -0.2569923024934864 -1.1446854664217836
P 0.8883792984896698 7.1807592907657956 3.9117664875737344 0.24502818815307476 -0.00666584205594981 0.04415046926496912
Ni 2.2109304279526016 0.39799206851575303 0.5363925750329376 -0.9448210192895405 0.8543477556986319 -0.034676982556895115
P 6.419423453980189 8.119052879204515 1.576696778803677 0.49449075792841934 -0.4736547950196746 0.27216335380696993
P 0.8294570010323041 1.9646668998807195 13.120605674337664 -0.3488621893216056 0.37063274822947784 0.39027803326423105
P 3.08502005536893 3.6454397951777904 9.457091138210622 0.9085080437911192 -0.3550310371364789 1.6804581138181254
Ni 4.029470690805796 6.405521924617759 9.637119155028534 1.148227675247087 0.2680061371054868 0.9231880144007972
Ni 8.917413581321744 4.101345726776697 7.646902804087253 -1.348457990359181 0.10617730458972682 -1.3893125624816975
Ni 5.45295059381076 5.270322119289012 11.325808122524263 1.2104725401199217 1.4015463855437282 -2.313026624589294
Ni 3.482071591370063 6.848242049158043 12.104486461286765 1.6303773951116503 0.6843744396988666 0.4833254853402192
Ni 8.750613580826526 4.13123172092418 11.529042058654111 -0.020044577355700963 0.784734623386184 -0.15746747022327073
Ni 8.695126750427441 3.8715988672542374 0.4838172662620357 1.0472709956263513 -0.7575207819755534 1.0272315604769728
Ni 5.641846226454316 6.562962479601638 13.164683157139889 -1.078937987712329 0.8878183766522517 0.1835986200926838
Ni 9.063118125708563 8.150572188352998 6.193022137431683 0.5094448081350903 -0.08711668841384997 0.926397008256398
Ni 1.622129546019651 7.470718583077871 0.1552539315864753 -0.32276497801392157 -0.4757787833412129 0.058867206649853454
Ni 6.436609965198559 8.931471101442696 12.86864756598702 1.9124189272642806 -1.3374822080739677 1.7202240808621534
Ni 7.403293871688342 1.4293157925590927 3.500261031406463 0.6741473626542196 0.9239392907445249 -0.05008586091279761
Ni 1.1235647299283757 0.9365318104601154 11.1721829179753 1.3715711793378764 1.7165594875263726 0.6821926015561992
Ni 1.1612410860750018 5.756022285765681 6.30937931458427 -1.09996678335817 -0.003949728676367391 -0.8948750263887169
Ni 2.113188453847911 5.4891679775688536 11.174036455223625 -0.9726969197642023 0.21929658771492555 -0.9144143819732252
Ni 6.75907956677208 7.3727196830179675 9.016993493598907 -0.6659033774778724 -0.10705919297404787 1.745128300303001
Ni 1.9474069812465735 9.046445466400618 2.764127795641879 1.7517414347441442 -0.8209223861606507 0.5437196701575603
Ni 6.776926744732427 2.8757263370668373 7.849855039259064 0.4020053490034883 -0.8043007184435698 0.26668304741868915
Ni 0.9279064391065284 4.403490650107457 9.485280503461 0.9837140968103123 2.233615018129185 0.686766594080127
Ni 6.1900252796826605 3.171191185562053 1.9855026772558155 0.7899665612090847 -0.2638787452006746 -0.9850017052734843
Ni 5.702379816687947 0.750807378178048 11.147472146639972 0.42902301524291275 0.14833105513964132 -1.1948937118450584
Ni 3.417262019167526 5.349895757989338 5.6110242877557 0.9268268967049652 2.3195543984054825 0.5895518980003266
Ni 3.6168567826603186 1.7237437613064839 11.50793100346986 -0.868354354390369 -0.4864020673830139 -0.04548718579852166
Ni 0.7616643349712015 2.4929433675070105 4.062571012171535 0.28381199378949185 -0.884945940200463 -0.10888519043919312
Ni 9.014485712757487 9.206849845796423 13.08876429015247 -0.05707720462896622 -0.9903321163474623 0.21770584618903796
Ni 4.961221843313551 8.422647598996837 3.418123638710187 1.3364005449740146 -1.8436648005180183 2.1792279587378727
P 1.7947562601420266 0.24791427733412713 7.142072665059564 0.00018769053077387032 -0.16017638451400157 -0.4137000117325972
Ni 5.200126277953969 4.748037531975373 8.366476244445646 -0.41130888579260133 -0.19731288435498276 0.2411504503652234
P 7.29951413763614 1.37056233215801 9.688462136807109 -1.495164879631838 1.9568007958137652 0.18888480819228762
Ni 2.291458363058006 7.805373815670076 5.815856670364054 0.446758741959779 -0.6962969021680653 -0.6412891784736182
P 3.048655856779286 1.9055922820356201 2.813993453177978 -0.35381182001739714 0.07271645382811993 0.1591497430217001
P 4.673226199373462 4.2722932462632155 0.6150798191877784 -0.13559252452705034 0.49878861397282487 1.5146798097363139
P 6.786185255047076 5.19028968424009 6.499022785276036 -0.9516213300408256 0.9568951768452553 1.6169333537916024
Ni 0.9461848856345554 9.015678583263833 9.087057201585555 1.9462592728524932 -1.5412035670584554 -0.3018356840604221
Ni 0.13945298534086156 2.394384735901821 9.41044990141245 -1.8555965189585977 -1.7759805097971673 2.4279888744605027
Ni 0.3007639463214888 0.1937451100482061 4.38122159293935 0.06883537360615886 -0.3139365810890142 -0.7724781746163342
Ni 3.6968433380743804 8.719323669852344 10.48373972746178 0.20314928853110176 -0.02487182354101523 0.25276875133044213
Ni 5.834274590982054 5.800929272366166 2.0481393899514067 -1.314588848415562 0.6322190978515498 0.2183393660079788
Ni 5.201713713320108 3.7088821542615147 6.150140277913898 0.43250480314392614 -0.27950179644991213 -0.8399107543376955
Ni 6.652400239796758 3.237652424619533 10.901557303793021 -0.5753882049054349 -1.251680124706483 -0.2650881921277435
Ni 0.8413875412811699 2.181301359760333 7.391788176858275 1.5628499416836374 -1.7946009531118319 -1.879210815943428
Ni 3.543219968710812 4.637320797132413 2.564881717374018 -0.09406020961121865 0.13692692706775772 -1.0115863977405484
Ni 4.986015197991628 2.149736170976993 9.537442895518167 -1.3722689767358496 2.212058117894016 -0.8413387450334736
Ni 7.015308151535447 1.2224995745394134 1.1079023401800379 0.7717510666423225 -1.3318190962509193 1.8050301188649558
Ni 2.9557037165539275 2.569204496570481 0.4981555697483284 0.16821879520250385 0.5453194105445125 0.261060301915273
Ni 7.848812653955056 6.735635073358873 11.579606004232774 0.7770596233394295 -0.41273841915027626 -0.4772013747203523
Ni 8.097480274893577 6.227059320941253 5.014240349357196 1.2773042530324905 1.1487616933736862 0.9785698336052115
Ni 2.7051642065131394 0.9931105761688577 5.282260000279455 -0.4255893069710155 0.3344041049147467 -0.9478978584426515
Ni 3.4271720202971787 8.379887779307778 8.161979700764464 -0.7950969404571145 2.014470639721408 0.34304995351520273
Ni 1.4982086522641265 7.843444736676495 11.176252441587339 -0.6641920512137206 -0.575884170705247 -0.11692297314200507
Ni 4.592156884576717 6.882459080836262 7.1854380959287685 1.046096515702276 -2.2983955049396805 -0.12095600556079812
Ni 7.714513786794312 1.9815781332899334 12.589413097119703 0.6147175986326768 0.3840230534934548 -1.5500458479404335
Ni 5.656399246631751 0.2711926864691431 8.4271658254378 0.3352140024105517 -0.38990753729868977 -1.303452372182768
Ni 8.257223987547404 1.7205688905742063 5.8215778608310345 -0.9607258634452552 -1.86700604634712 0.7838247099774049
Ni 6.8462508730051415 7.649594103468112 6.720037832692035 -0.9485694305883793 0.9701646402606517 -0.8486087963323256
Ni 2.65429286738092 1.4600734997689055 9.014388447931585 -0.24479653175824292 0.4444010403608798 1.473069590394695
Ni 3.4657017376521915 6.8128963784622805 3.7266082099858338 -1.2505167005260012 -0.4548926839208231 0.04824932192469109
Ni 3.724270183793393 2.150580356258408 7.122840839719156 0.9744308717361736 -0.8216939742193525 -0.5510306019966769
P 5.969702097160343 1.3317298092129246 6.359861594412881 -0.12230634894110551 0.18274681361534975 -0.22672399052724826
Ni 0.7105342346983741 5.9893110530992955 1.9323474499002895 0.002749794830995264 -0.04676785228315816 -0.0034429642432779414
P 0.3254013102410433 6.859537615260453 9.533816569178871 -0.03267846406962759 -0.327336656545004 0.8169117223393608
Ni 7.259185938594635 8.39312864192823 4.191779992640966 -0.21540188064620966 -0.5630888187127916 0.13225754661654643
P 8.511782553601885 3.1949476604923053 2.626821059619745 -1.5398321406322255 0.5188187931508226 0.1128742569939282
P 5.874061410332217 7.63751858357309 11.183370208139443 -1.0704685167887371 -0.38034380486965463 -0.8612779071595619
P 0.3698751930884536 5.741487617442191 13.048258995720406 -0.040612374204723606 0.07577041016309531 -0.8922710131069665
Ni 8.440595712153875 6.3022652184029555 7.734573280747584 0.19861694787838696 0.6438245433009622 0.14981509588433553
