# total energy = -340877.0867109945 ev
CRYSTAL
PRIMVEC
9.14212452705233 0.00000000000000 0.00000000000000

0.00000000000000 9.14212452705233 0.00000000000000

0.00000000000000 0.00000000000000 13.38042334544829

PRIMCOORD
 96 1
Ni 1.995597836490897 7.216372715728153 12.585961272722257 0.054476276671009405 0.4678207048364007 -0.416768880465908
Ni 0.6077181696573035 2.092623206137498 12.661346318945654 -1.8269832260972791 1.2001678157598041 0.23869453262556314
Ni 0.39261677398529643 1.9150100070897111 1.9449650929451765 0.1440067167326746 0.724114952821598 -0.9064097665011938
Ni 7.752640609641274 1.2091831260065624 0.49900002249463726 -0.9227265013833463 -0.2890760704019086 0.756082249756814
Ni 4.063756716879379 6.531984117111911 11.537122786381078 1.9330324897495739 0.9195866702027841 0.42140946456171297
Ni 5.74624592385681 2.187015643864922 10.597911174399666 -0.31004804466788544 -0.7710920929020849 -1.5745726294372042
Ni 3.1599936934972996 8.757734943412775 4.5023784908774545 0.6968532888921676 0.5700333683514247 0.7499026033086633
Ni 5.276825245891671 6.122992883541763 2.1602831569730325 -0.3182614337166132 0.27038492175030854 0.32319126691806277
Ni 2.675625641616003 1.7026933026072222 2.8085640197976782 1.271018677134095 -1.0976720737867225 -0.2971423923498108
Ni 6.846829750322057 6.082447560411388 11.970862665779013 -0.3387950348935907 1.358195529361919 -1.2419888655606481
Ni 4.100754895618642 6.3724266143848665 4.851754843365108 0.8271930496607108 -0.7118675029128126 0.05034168567734555
Ni 3.958338876740403 5.169067021824538 0.09420593838314917 0.33749302825271554 -0.12714182265653587 0.5968540880886947
Ni 8.18492597699636 3.1796401195192114 3.889100080965835 -0.8850176739786629 -0.23177569401854278 -0.13062541032976213
Ni 1.2870008916177815 9.149621261632994 6.129397856120148 -0.5431946508920258 0.5883475932795803 0.6453486932549723
Ni 2.2949658525511616 5.3016095460058645 6.19983244180801 -0.020548513575312996 1.4562897998331952 -0.29509630845405954
Ni 0.970290264964885 6.277330233054051 8.250074586171484 0.18574780522520268 0.28958463460721096 -0.2580425981348717
Ni 8.141080346842294 2.5699792483590427 9.632633536418407 -0.124894678493572 1.567202305115062 0.018735885846606442
Ni 7.827798016959158 0.2991650608914947 9.336177287081261 0.7991834518216623 0.683949693456622 1.0888166802786217
Ni 8.118764420402329 8.099940785605158 4.232294528718254 -0.18861844190477836 -0.3742744587471232 -0.8714844153789184
Ni 6.287212869875682 7.8892970899463135 8.224692391100644 -0.6795775325308554 0.4720352571383806 -0.06053456704994735
Ni 0.11403520689944775 8.698347701235791 13.23097748280962 0.16094385880764542 -0.267904578530616 -0.3555241747228135
Ni 2.194521328259519 0.5212007581631387 12.447393174138398 0.4473590945479392 -0.2781185429491404 -0.13758795769052434
Ni 0.831755078030016 0.5885690752201255 3.9368146583011345 -0.7446225858566466 1.40175413067916 -0.2808248861367099
Ni 6.709240773295642 4.230335371390894 10.524318898833737 -0.5669015075906624 2.3459747973805403 0.04763431404851151
P 8.091301477745361 1.1929284282555348 5.101634709894515 1.1877820405009416 0.5543491248469485 0.7031080115526278
P 4.309588450583053 4.147443726560429 2.6457244942963825 -1.3277091878476037 0.5199518783140012 -0.8942690173736018
P 7.4180388449125845 1.1628325536793915 11.50502387227892 0.8984887118819043 -1.1294555368459065 -0.10596261747575944
P 0.584915882182268 8.553344461061974 8.40203589746921 0.7214890851629767 0.6384195702353069 -0.43972780325492655
P 2.8950914876290343 5.3236512087042485 8.362577572967966 -0.3920960603095764 1.2598405490300883e-05 -0.3304790588287276
P 4.808273069774873 3.7530250397929463 11.85731656255205 1.863956460887519 0.1629575468035645 0.24970733879629897
P 0.04357228062495654 8.792785849586812 1.9860424877342189 -0.6078789784442886 -0.544272971557869 1.0402611399674213
P 4.654895643358118 2.183249088480544 8.397099150120754 -0.6424217494161647 -0.614436062836516 0.5776183797875343
Ni 6.012821138548718 2.905440372811353 2.253865602450321 2.5277358500438534 -0.784936454984345 1.005377697826675
Ni 4.674752338248574 2.864876765431539 0.5528553650039334 -1.9153960076147334 -0.6586194422219496 -1.4734624549577398
Ni 8.96048898543881 5.258915823566438 10.071351302726036 -0.2329046654166634 -1.2098554753612132 -0.05254254998340629
Ni 6.584834740114548 4.8210811865067 0.594833259077833 -1.7043020103152586 0.35092858493233114 0.6162008680464226
Ni 0.11685738080031516 6.875024062956573 5.861656106314049 0.8611254407420975 -1.1949803580215934 0.5041809886329897
Ni 6.238329929001248 2.5838661358077557 5.470747081226329 1.4032340576587963 -2.5587225282333548 -0.30330738350994213
Ni 7.763985986418003 4.367284399686954 6.068891617877516 0.21527203993656474 0.18556757089359655 -0.43359777909778874
Ni 1.3901789112005134 7.6927322663552875 10.251170496468607 0.20589959758272927 0.6691421961301444 0.5398619869743669
Ni 6.034625106004398 4.442716070746418 4.024631165717921 0.23717963864293348 1.9798088266731646 0.6073711855699345
Ni 2.761067939243171 3.385996158684675 12.06793831711157 -0.6877958066755896 -0.584022226431349 1.8453298469252668
Ni 4.077652746452811 3.1476335408767206 4.62428780979769 -1.041603770038245 2.264542046725345 -0.41977578561303186
Ni 5.768351581428228 8.788891304456364 10.682649528423442 -0.025014519766466597 -1.0413086073953293 -1.7420285783317546
Ni 4.266071936918885 4.2866142911632945 9.750515749399765 0.2860691652547847 0.316191695671778 -0.14277618675968315
Ni 4.320961253733941 1.1252127104592122 6.191429914978443 -0.6580098336624086 -0.1808295419879789 1.0819122398493044
Ni 2.1872899076065027 5.41679117534512 10.79413499673866 -0.24231001789096332 -0.2881129351576909 -0.9016072029062279
Ni 3.5386330729991617 3.4582920809653985 6.991231438689342 -0.14279984090876696 0.07716394807651226 0.9749589763255014
Ni 5.6995662350397405 8.101668647177119 3.6958465349481617 -0.48381322360991513 -0.3764706950674936 -0.5111864734165453
Ni 8.762881959629775 4.781514070721297 12.531476037819798 0.7393276560062945 -0.5811158514178314 1.102975745387823
Ni 1.2887104689403024 3.2492939677560386 3.7800903000246207 0.6738899952277749 0.11314062328143741 0.09202980944475118
Ni 7.785469979508507 6.8771084673925875 0.8091210056498168 0.3281475824820736 0.5957783385260127 0.47774567725959655
Ni 4.98084895810229 6.033518908913356 7.631752466052192 -0.22293444157782893 -1.271059043453727 -1.2931941847898696
Ni 2.7757867600413455 7.725113672111272 7.193931542179532 0.614268169800084 -0.4417767153641553 -0.41459218452956337
Ni 7.760274283781943 5.946312181215351 7.909864127927465 -0.4738946789446226 -0.404064288415046 0.10927111302370213
Ni 1.3460590173048672 7.482097712821162 3.8729102923003143 -1.0475481605471377 -0.11188901026252344 1.000121077413426
P 5.5651861437898225 0.8023476054452406 1.6547565716412418 0.04559465791066341 -0.3636198072467544 -0.6754802225330302
P 2.30331261241994 1.9775878507937519 0.7000627714475903 0.779521968836993 -1.5393901679988005 -1.4063502346902748
P 8.959218230102818 6.8803722059174 12.037684283777782 -0.10752507686687288 0.657184509547636 -1.0240837588766105
P 4.819764720547112 7.924850812979917 6.105460116754969 -1.164021190635918 -0.18686469243846526 1.142477145916555
P 0.8307366453362789 3.627430530398336 11.077732847658025 0.03167624805735835 -1.4011545494219482 -0.8833744819482852
P 2.5203740796317784 1.8368174143649987 5.10740156216749 -1.271372460929088 -1.6567826245780564 0.6585798472332658
P 3.427035156549896 8.837673681958885 10.898515205721989 0.13186288228128903 -0.823770140022091 -1.1782586743915386
P 3.4456028118549225 7.310015499228589 2.9204645405751544 0.06139305839550072 -0.020102170066513766 -0.3557969687682259
Ni 6.694969916608716 1.4930552406675064 7.879945610570878 -2.177724891829785 -0.7957952520757198 -1.1475039097071849
Ni 3.3178964716501396 2.034972967657194 10.266022792287684 -0.24867324110482975 -1.5063774605182056 -0.702934462089241
Ni 0.06688835550922023 5.045035815756939 2.263953937078138 0.16832343910116818 0.23833792061709275 0.06305013438294949
Ni 6.22078619166479 3.7593696743481844 8.212288356281412 0.2913928914605433 0.8043865932891566 -0.8140398001082044
Ni 4.806124670465822 1.253083608908944 3.7524591422728175 1.6771784146255888 -1.1714349666014858 -0.9391530223704859
Ni 7.033036546606045 2.994320109333001 12.64300173148378 -0.7413030345651105 0.25430807079310397 -1.2474645439632388
Ni 4.324499256000335 9.132242082541485 8.613433818417402 0.060835643230133934 2.5934655881414947 -0.3106640809853295
Ni 0.767403662130419 1.2877596879694886 10.271081129894908 1.3733591244762349 -0.6119739744492686 0.06530293497286818
Ni 3.3718258653696624 8.32815564497462 0.9174899236482033 1.7657277217209073 0.7152220212073425 0.1260691584176474
Ni 2.4047901968048704 1.486500337243723 7.957310841008487 -0.3466484694997385 -1.2929177912000314 -0.519483423318015
Ni 4.555072783547391 0.9786187405842247 12.232704088291236 -0.5653300493384844 1.000735313958657 1.2252137029848382
Ni 6.785440382831534 6.6494421355062885 5.786711710502126 -1.0328913298659115 -0.16442590381897487 -0.7202814380081207
Ni 2.2376995833090714 5.385049718319491 3.620983504046241 1.065450237638539 -0.4734028269098685 -0.45757434451804424
Ni 2.2182634261557053 3.815657736245303 1.665862424750324 0.9814713235227226 1.229528528310108 -0.08800680432828713
Ni 7.478194025565993 0.9643387417725795 2.951868653198639 -0.5759535904906016 -0.5605524254441829 0.13409717092844647
Ni 8.889610092489587 1.8756623022975722 7.320095605944158 0.33739301233974156 -1.5926677963760183 -0.22098837359505166
Ni 1.122460930918684 3.2470907156986724 6.043991212779387 -0.1451374879030081 -0.30200794797222824 1.9180308741344194
Ni 1.621968341335246 6.963464977491691 1.6943629985629385 -0.8531154259534276 -0.062430498521079576 -1.0175215322780606
Ni 6.3592710969137025 0.08106321988659275 5.68304093039702 0.4219005452655186 0.7401270119791382 -0.30094531103566885
Ni 8.079096741245012 8.448932254642127 6.991525815105304 1.260722180304093 0.9916816883968211 0.39496669698915204
Ni 1.6729631130198532 3.445630238229081 8.905327233307116 -1.067665243011987 1.3661536078667311 0.25095509516047104
Ni 3.7804422718263164 7.136982504665204 9.321191516241282 -0.6784881561214186 -1.2243976348414463 1.3850928679733954
Ni 6.270537634387565 8.720819043795986 12.887970448613945 0.8624762983430372 -0.14040023032833884 1.717205348640488
Ni 8.046697051239589 7.348695828916214 9.87602340860954 -0.286893460928293 -0.9425643620448798 1.2487621797287396
P 7.316186433414159 5.91546665241222 3.0648662289424387 0.1873470313915225 1.6193990417232755 -0.07750641901759556
P 5.380204392218229 4.289777466316194 6.17589470244283 0.0728951454978293 2.4755578824887174 0.3088745931850745
P 5.9527025263941855 6.420249068791854 9.786508294419896 0.07353637862625399 -0.6693530265893698 0.4415255185852977
P 8.699591030197626 3.9145389572099343 7.942806860141218 0.238634368811589 0.715698960843761 1.1301319940876406
P 1.8196302198925958 5.376355557711377 0.1866666451573719 -1.3555778892334138 -0.6899455060287407 0.14248359521992882
P 8.11988890174281 3.5244079269358326 1.1246111586526781 0.6480396098235743 -1.619174070196663 0.33060092911857253
P 5.420091482368811 6.855496484556013 0.030851928290434708 -0.4478206075653901 -0.2088712786165435 0.8186454172010159
P 0.42536295051758316 4.989396844714895 4.9044473076101 0.22685923055353188 4.473719500637457e-05 -0.5945845753282276
