# total energy = -381167.2569755863 ev
CRYSTAL
PRIMVEC
9.27765096822750 0.00000000000000 0.00000000000000
0.00000000000000 9.27765096822750 0.00000000000000
0.00000000000000 0.00000000000000 13.57877999133230
PRIMCOORD
 96 1
Ni 9.052426458107968 4.54282022381891 11.461929761960747 -1.5436152618237415 -0.6210368559824853 0.4118516456699488
Ni 5.9286971310788035 9.197547470461588 3.808033071146419 -1.4849252041817007 -1.856190700899171 0.30253219590681446
Ni 8.45142952298105 5.60673481860548 9.292148891422219 -0.7094218695857977 -1.1229776424310467 -0.5397048925712126
Ni 4.791748869929383 8.578589003566572 1.7623083070320342 -0.9700150020566648 -0.5269470786849119 -0.39859915153541675
Ni 3.3771761890337815 -0.014902690330112642 3.4855094608053427 -1.8802564835991231 1.7265777909943234 -2.0452667991666584
Ni 6.771553142477716 1.7868384155004509 2.8545039644677246 -1.520180684949885 0.2495906107127766 -2.0673528324324204
Ni 3.9832943873507762 5.16399604923282 8.631731386814337 -0.7872324501073732 -1.0017506425970488 0.4674365820241047
Ni 3.435402724868798 7.348029246786923 9.200913402137965 0.263485623527314 -0.46799965361642626 2.0332605187344015
Ni 7.172143544690007 5.41921494252241 12.929809040521622 0.09909520093196482 0.05250424054630312 0.3609306904503655
Ni 1.9032079883141237 8.066620404620792 1.176175096102262 1.331968220234274 -0.07952139256509531 -0.7243342679212557
Ni 2.1936912319397397 1.2970990676478356 1.1769785406534587 -0.6421139883677587 -1.3508138921858672 0.2919006843348973
Ni 4.582741954809681 3.7558435026262282 1.8720387930000193 -0.5028915803976048 -0.779778050711857 1.3737869560422729
Ni 7.097755341323984 5.587966131225901 5.430901071352522 -0.5127214220038332 -0.9656721517069371 -0.11509980389033726
Ni 8.727922069341018 0.2050314417918971 11.017482049327919 -0.8065064678456367 -0.6500692386590934 -0.14995007880030303
Ni 9.03392682259888 3.6448642448731268 7.233252646599584 2.67670608142939 1.1920269318202246 -1.3333067365400393
Ni 2.4427590428108124 7.7621928519830625 7.189298848611698 -0.35071312648741537 0.1981649479426329 -1.0930140061894207
Ni 3.189229541018204 3.097501408481428 13.492744413624452 -2.1877377959810973 -0.29973277878480636 -0.917577095971923
Ni 8.203781192668098 1.5425764276954297 7.146226427440944 0.4198446911777544 0.4700619354620937 -2.0729177281147075
Ni 1.0506382766253353 1.8525520154557444 10.545076136290561 2.0406084744590403 0.2836168470595502 0.5982064883515311
Ni 2.0222402468806093 4.0487760460384035 11.280435720011655 0.9588134769138905 -0.6992426150599506 -0.7294852159945759
Ni 7.2041978278815275 1.4309941226463947 9.02996990457249 -1.4143882745034029 -0.5365326654908179 2.3392662750121134
Ni 6.561284466861908 1.4975798217681147 5.237756155646001 0.7054487438706625 0.7329361506576538 1.7201037532342054
Ni 3.040165527114251 2.7189454266974606 9.005582671924955 -1.682584673242825 -0.19678195155217723 -1.0723330808013016
Ni 7.410838942071031 8.669992418328615 6.9143278369676215 -1.3794274421575017 -0.768900741677721 -0.8792913130178469
P 0.17761598395370817 0.747789780137879 8.97082117025723 -1.3871425514135725 0.5670357191756815 0.9431210058792981
Ni 5.98853797813678 5.909334674053998 7.777313567104782 1.4101510964936037 0.22501266426309635 -0.9064904991404582
P 1.4641246133198882 5.551226634427516 6.9170573218055225 0.12290104510231091 0.3347288352440171 -0.2634848521963656
Ni 3.7661695278627443 8.734601977849817 5.455382936037264 3.0717799934203676 -0.44451776844440216 3.033247127452492
P 2.4021136550649222 1.0584686138217587 12.417984245161795 -0.3333514952805162 -0.05062039326002895 0.1513150774686297
P 7.620411793883839 3.3616917900043615 5.485758892215949 -0.12497361136062347 0.16315552174698353 0.1921511376483852
P 6.0091529180069845 5.703129609447707 9.866979140496062 -0.12256757302229213 -0.5244376819994968 1.3685172230029012
Ni 2.8367994236242 3.610054499421727 6.574695310958389 -1.0611336125410564 0.552414369718081 0.4303383916202266
Ni 4.243114995390871 2.0685450015575637 5.262944977314591 -0.12469130423351428 -1.0123872963752885 0.578647592382997
Ni 2.3095783669166665 2.438073829203948 4.084443046415099 -0.49313707211400226 -0.3501112312373583 -1.5154154023507578
Ni 0.12641912405913022 0.21556343087410088 13.341802603217472 0.9575042711841639 0.9404424306058707 1.3261305305065743
Ni 1.5325936755350604 -0.05258757973550674 5.0214737068421345 -0.8202574988831421 -0.20420575482007416 -0.48095081446045557
Ni 9.072568237792131 7.089015794358308 13.00919047549797 0.07503070378359336 -0.25792098495534294 0.482055360378544
Ni 1.0788516124242973 5.646424608328584 2.6805053365245444 -1.0967750158937497 -0.3911522083390683 -0.05869468562773117
Ni 4.710226153169936 1.5155320758855073 0.7723486493234865 0.37648277925235163 -1.3465797994998616 1.2392737806223302
Ni 6.860228927932 3.7368428739789827 10.997562005495643 -0.7422324883579153 -0.055084599678969656 -0.6166628952845058
Ni 7.044343906205725 8.334642455885577 1.7171048094939607 0.3066570167084654 0.5312606184586012 -0.6193239870564367
Ni 4.896493546407608 7.973676899841443 7.683131495956093 0.9956874671221047 1.7340728138197876 -1.1037838431114153
Ni 4.179516699796697 4.870516124428951 11.359124114480215 1.1871809165818328 -0.422625339246685 -0.435899687758088
Ni 2.735403979051081 6.662021198234854 12.876363278095747 0.7459513319703992 -1.018130883727285 -0.990089918429669
Ni 5.321679000643262 3.0322888016642944 12.802222788003593 2.3534232832387856 0.8814710942779851 -0.5288255266545473
Ni 5.859096195477418 3.8403072346596874 4.101633605409474 -0.3017032722476159 -1.1693104640593153 -0.25174673782383095
Ni 0.04510422667551243 6.707824959773649 4.30976842136275 -0.45233263650313066 0.4929426967150091 2.040605389135247
Ni 2.346020978892438 0.21204627349120495 9.179363275076529 -0.42611124091275643 -0.606352257387117 0.6616564292760605
Ni -0.001794297646668608 7.954063946247557 2.2646012440558354 -0.9961916604520328 0.06730351034266474 0.20106489519824727
Ni 5.336096469841416 6.896550930448585 11.937960453129197 -0.15117932322171385 0.6848966307509238 0.2521043782735658
Ni 3.8948690984655725 2.0621434225699664 11.012132555930457 -0.23989652335346429 -0.699141313595396 0.9398387355836009
Ni 7.0962709172109175 7.110103894414552 3.6023688935763274 -0.45093189950086204 -1.004680157539018 0.18885446917498444
Ni 1.7943718678742613 3.4674013421560783 1.803207902407287 -0.3943771430342692 0.2794948544713767 0.9529457052792041
Ni 1.299483423879448 4.280643092499322 8.699856248188292 1.4950638352775993 1.113259129591702 1.1332281165144613
Ni 7.338092882880086 8.651724724087195 12.961013490908412 -1.8513469996536247 -1.9850973287656135 -1.5548196151799933
Ni 8.229749336996047 -0.1077896014401511 4.31691128464181 1.0472175166805964 0.209488086264936 0.20859051415133106
P 4.951695568112251 8.813452731205743 13.207644062938844 0.9893036750829478 -0.10357251997702809 -0.9380993842949908
Ni 0.6181596611691729 5.034786207841125 0.17900392049942498 0.5088778798880268 -1.0003434778368772 0.20538023474414954
P 4.344250665744204 4.8557275492025305 13.613676735055662 1.5246672599663291 1.8136152894308053 -1.7485985182397885
Ni 1.0816163523348827 2.0083887143755614 5.950248185905311 -0.5452142524252158 -0.3096083860273055 1.0405475608595884
P 3.1591606750779095 7.278975692577231 2.7750677913522064 0.399465356190454 -1.5661152426984706 -1.3074972316761029
P 0.7210775682232552 0.6433902322659426 3.0625311596728033 0.1680035938679042 0.617758956562162 -0.47247388733769596
P 7.838612860853845 3.102761836432106 12.947175874879422 -0.3725428207679971 0.2354533999804461 0.34911929963773425
Ni 8.35670470926602 7.981405182880094 9.024878329864674 -0.35903604453081395 0.9758933152143129 -0.8009986506535302
Ni 6.4127028907947015 8.688046726603782 10.035818466881267 -2.065001044370792 -0.22283416855453883 -0.6164479510602222
Ni 5.1357177698789105 3.7488574316441112 6.415457425289509 0.799772748666229 1.8716456020016603 0.5404296865523789
Ni 7.267035356117756 1.1996373469743418 0.5598412765921603 -1.5012149424806596 1.2634308374845078 -0.30680794046403287
Ni 3.0052722828064917 1.020921961411894 7.113339011215965 -0.6302241789087082 0.07395521133122747 -0.7105171595325055
Ni 7.952987738765585 4.624185220516344 3.2536117980970913 1.020591943673268 1.788247242979662 0.9399197253331814
Ni 5.206181526996016 1.7252719254110358 7.66953880990576 1.0717944346890123 -0.2840806740698462 -2.1163791417324522
Ni 0.5406912777685374 9.15250447628074 7.1847091948071125 0.2806546791074328 -1.3065610930150788 -0.7819526897656727
Ni 1.4932378812373965 8.257081295977876 11.929867558417774 -1.6850259356944657 0.47692189580672056 -0.814906518983874
Ni 9.005481545532252 2.3945338144375787 1.2823485307893123 0.43521114633149566 0.5585454223164832 0.3720483976300818
Ni 8.722921415610127 3.083102494584687 9.562815073138403 -0.5099965668735023 0.2733674014174002 -0.42378207855894756
Ni 3.5191613554485506 8.600855365262563 11.282920274870898 2.795969272668798 1.125102144973217 0.09264841686535658
Ni 5.485466646218689 6.299181556747973 1.2946859506990327 0.527023440448802 -0.30680974023624574 -1.2669835878327729
Ni 5.124074318242048 3.20731168224549 9.349356741209643 2.134420315504879 1.3558617390224197 0.93619805350722
Ni 3.8662382683848104 6.094971187043616 6.437998405446417 0.9998361991831555 -1.1514402686471137 -0.6923996239961882
Ni 4.741677389065524 5.754602015568273 3.3655410872825557 -0.1815787614491776 1.0296676807222913 0.9298307165282954
Ni 2.52283444606002 6.975698568627127 4.770442745081532 -1.6151520935214636 0.40624535522676486 -0.3989081981354033
Ni 0.8598294733667524 2.5809310947851434 12.825632156266645 -0.7061252011123968 0.26260244959141227 0.1354104904232313
Ni 8.65713359444918 2.5294865216166977 3.579977283595797 2.186394394579325 -1.401830235332734 1.3834849000563272
Ni 7.052536071779708 3.721061590126949 7.81132914565569 -2.756174766379679 -0.04681130392658389 1.0368996796943564
Ni 7.601188501619633 7.010285650461566 11.028684812556214 0.24305589491805235 -0.8126650312478649 0.7751336099613101
Ni 1.1044115401211536 6.9932704390655465 8.863779347464037 0.3681125529107854 -0.8475597862425209 0.8381534053269565
Ni 2.760555690116844 4.823942317881503 4.301309059448414 0.07229505001998517 -1.6058855806178731 -0.24394781060470244
Ni 6.857779628145441 4.105879986137913 1.3559880277433078 0.008030069393328105 -1.366145637446931 -0.9557428084083669
Ni 6.30964674674509 1.0616230150620243 11.567992792604388 -0.4155635473038972 1.0217990766074918 0.5932630283033267
P 5.8045157763701205 7.3446707372311115 5.525395799330025 -0.27617993116553086 0.8496215538675562 0.5334015760610039
Ni 0.48730118124690436 4.053025210062055 5.0062518653277115 0.38222508105276753 1.92022042558657 -0.20825627074036393
P 1.21226422958611 5.9859216806375 11.25367155325307 0.6740931123775166 2.5747698115042046 -0.3533613627435398
Ni 2.7635059830415627 5.515229349685664 1.2730922186792746 1.2896347495733853 0.6913056196010611 0.9352973960698214
P 4.494047614053984 1.776438169058282 3.2083257294677283 0.8835295194689106 1.0215702484261373 -1.8061866010669023
P 4.512064811726323 0.5290153543542021 9.147249614920486 0.024000990900287695 -1.114594560573674 1.8284361564937217
P 8.28125885371944 5.857426218350219 1.4515032972985438 -0.340311214427801 0.9723541917128028 -0.2736265686160578
Ni 8.598860670360631 6.525973728272349 6.838287284010742 1.4764408208597735 0.05074689153556421 1.0137312119976927
