# total energy = -340897.434408185 ev
CRYSTAL
PRIMVEC
9.01422955743360 0.00000000000000 0.00000000000000

0.00000000000000 9.01422955743360 0.00000000000000

0.00000000000000 0.00000000000000 13.19323612959937

PRIMCOORD
 96 1
Ni 6.278005183723481 1.86757707528701 11.235109351017416 -0.6632006338347287 0.6928588230207938 0.46945386956444957
Ni 4.74871411188935 0.4794551468731118 5.9763115433705964 -0.9056258371473178 -1.1722497491932973 0.3879079903701577
Ni 2.747041359045182 1.4868070083542382 4.751477874644057 -0.27353246624035477 0.7494115226048578 1.2370644316758372
Ni 3.535452910953068 4.517751524475427 4.97230666529072 -0.6003194209294758 -0.2821330634251722 -0.2772973325994256
Ni 4.983165206107159 4.547516510176808 2.8083913033774124 0.7947087038797603 -0.10910913352454112 -0.7347531492617346
Ni 7.433160661512852 6.136157268824352 2.4699060854533035 -0.3886870346280274 -0.2767175488365557 0.17011832621806186
Ni 5.236636324501197 4.496775412504769 11.277631274261072 -0.3938657506154894 0.4795549625541935 0.19737227683800845
Ni 5.644944862456899 7.681295356062186 12.381575111600206 -0.9500552711052865 0.9268793472094552 -0.2797198259979892
Ni 1.857544237889785 6.56805604529626 0.2799459103398158 -0.35710386050510756 -0.37812365728988423 0.539248264649768
Ni 2.5110488315884463 1.8118150518016254 0.3615589410918323 1.1918094164927797 -1.0968408361346786 0.852846231452441
Ni 0.6842746659856578 9.070027547811026 4.908200169587356 -0.3828686281740374 0.22088681502018087 -0.1845105903839919
Ni 8.515526236352905 2.3752674931208833 1.3735215809455377 -0.1906997499138393 0.03787312089668961 0.3342675793368824
Ni 6.846523622003422 0.8707511295549756 4.777706578125374 -1.4457374782386456 -0.9682699943411002 -0.0930461665244075
Ni 0.8905229404687878 7.578172570955041 2.910599144193615 -0.1673531047680989 -0.22500752205677377 -0.9973064907827662
Ni 7.55237384621932 3.940173785580742 3.8354185235170495 0.6779024588212778 -0.6579810373070023 -0.6944212824119073
Ni 7.568833829226807 3.746674335833367 12.475180673235663 0.000760275204792239 -0.2098822363795611 0.4803826006618114
Ni 7.852755014761749 8.909312850636615 6.775676285504329 0.4193692942032326 -0.6045866808462619 0.180525894704631
Ni 6.601760249274898 0.8254402037141036 0.29562435965247813 -0.059030471700595104 -0.3901641333941861 -0.04106154592700025
Ni 1.8655398594273758 6.359980586500087 9.34081139532017 -0.10233093426044311 -0.30217712656024087 -1.0375715089504
Ni 0.21174334876646186 4.8174295831194 1.3868599362884608 -1.0857195294105364 0.5827526156903061 -0.09812358104731489
Ni 6.509328340316099 1.799474571660744 7.034514476123264 -0.23041146668116447 1.2644376814824676 0.15815292632606956
Ni 3.3072486777561725 4.4811807955261544 0.6292013296315833 0.30081315633317873 -1.0855819753914078 -0.15838663960343044
Ni 6.022388678716198 5.639599424382728 4.721713790365623 -0.3885937035832727 0.5958822110937285 0.20248285859169643
Ni 5.416398088540243 3.0828664778534587 8.945937664962692 0.3180904553563877 -0.9351248750476991 0.8331248417641136
P 0.23127898686822795 5.46481351500969 12.38898931533715 0.09278057156784666 -0.045721927517147064 0.01988825428349478
P 3.9912664382020093 6.0785292998392135 12.57403792495883 -0.040361948756814356 0.20782483962990012 -0.4693931915298432
P 2.3880947416530045 8.354793510719558 1.4653459308382335 -0.15575460129722207 0.7963796638242802 0.13248277525347504
P 6.224289390327198 7.741988163066242 5.745337237458367 0.12944193154462222 0.2068236520588954 -0.5333028456996105
P 4.52584630253716 1.0011473673387095 12.565924217015217 0.4802193356110698 0.7747911390202269 -0.49697238669969246
P 4.099401134893033 6.013383463478258 8.365066126620617 -0.19961762122875942 0.45819809414497226 -0.802943690195043
P 4.6125091046368185 0.9545888721395485 3.744662359816241 1.0063801709492604 1.6651705915314354 -0.024405939648190225
P 0.3174505134619126 5.625041443792863 3.669117708341684 -0.4506956151203399 -0.447482507499681 0.07589408022515316
Ni 1.3720468530046699 1.0407018062416948 2.742095251336415 -0.2185442829299333 0.4115973635672976 -0.9873676344024995
Ni 1.9852668552134856 6.508661287335511 4.911036947600748 -0.3204818384066997 -0.09298831670327856 -0.043841165554666425
Ni 6.113585638237963 5.627844869157228 9.17345501387417 -0.3879730392801383 0.025978683451948807 -0.06308098762088492
Ni 8.524224967788953 2.181921285274454 10.28484009763865 0.7073999540597624 1.0619705066200549 -0.38791853189311903
Ni 2.541390727975741 5.057126958887239 7.122922433047813 -1.200612102386074 0.38795401311674477 -0.031146857916449583
Ni 0.41544510342504926 -0.09851110531161911 9.264237318840435 0.8215034554751012 1.0519486036076786 -0.0498133239777013
Ni 1.3844684612107576 0.988933086410372 11.428469080208046 0.5834321582558339 0.4676939494505494 -1.0447788253321166
Ni 4.123288842981664 6.772850324566297 1.5906554389335092 0.12836618198194022 0.5546630565429416 -0.3305021987571792
Ni 5.7246126224898495 7.73750809102094 7.956616065262274 -1.1099881721499143 0.9569903076622227 -0.1289328531186876
Ni 5.159762975603144 2.908215781922433 4.978678824101229 0.7848094424881774 -0.8703652141728107 -0.49935399955799165
Ni 0.6273398912465635 7.443229555827947 6.851366066073313 0.7700927051032931 -0.4330226233206091 0.304882698416862
Ni 5.120163465552822 4.573648761402823 7.00928905638167 0.03508141708416539 0.001723410449009935 -0.21981003701623433
Ni 8.000624434945106 7.289023132329002 8.871052855085148 0.05592303641986498 -1.3568307878039083 -0.03438361968619239
Ni 4.545749721201196 0.20753821071991613 10.276066548098022 -0.09614408872344087 0.021697025357459408 0.40427948974964567
Ni 8.10458554339272 7.307358075065709 4.612408145266784 -0.3306991452593337 -0.18307205816525246 0.33285887191481384
Ni 7.151619232557305 6.125493435364409 6.832460522611319 1.0036293476770006 -0.7939168041060845 0.4175664366665389
Ni 2.366712989356313 5.291650166940787 2.6749284247288663 -0.7452478781454713 0.07171012405079263 0.33823427729411426
Ni 2.3971179853498796 5.052655901071406 11.427110635827308 -0.5957857947251803 0.16430429063944604 0.25624488280450064
Ni 1.1731568940357848 3.313982307168326 3.7963012747432336 -0.9184540992602375 0.38384873269911957 1.059821321487536
Ni 3.5479105760770255 2.7836030737649877 2.7152337489464866 -0.38080017568078284 -0.8510572578728183 -0.11313650951637935
Ni 1.069376070177519 3.2053247851681927 8.235402745692582 0.06442927411866324 0.7257848843248533 -0.20126801234798883
Ni 3.6880457873773467 2.6061759951580004 7.022798682084474 -0.5216904582716628 -0.1228704489746916 0.2375560481457457
Ni 4.114184471219581 6.8141084528386235 6.072121084110834 0.5636007253522035 0.5852661261407791 0.13796025342827856
Ni 0.6392467869500624 7.365094214804456 11.311458071760468 0.5440271740956502 -0.19345108740673134 -0.057338428710152864
P 0.257154332554422 5.593347412985458 7.909397728466099 -0.08383878899352656 -0.030039998005516003 1.392626457346279
P 8.588974178053345 1.5980155572936476 7.9949166248463435 -0.7819359775951243 -0.24969114084638291 0.5823409820741842
P 1.8168179491560368 3.048729590860385 10.356043496201703 -0.8183808506857196 0.16533041791111525 0.47636628041356677
P 4.02917127311246 6.253125910393435 3.7480138503322236 0.15038459523456035 0.39722335423381266 0.8476392333302046
P 7.071924429835954 3.9333770565623167 10.30815269788726 -0.3017104713364675 -0.2415705686217775 -0.38391506716068075
P 6.262176196778713 7.72168811830564 10.153263897217633 -0.26251451786329627 -0.9482567844439669 0.6276240222816997
P 2.5119502545351873 8.432090528402579 5.995600191584956 0.059713356700232645 0.16188359701309538 -0.5111664188118874
P 6.763745952804216 4.054997040536582 1.585259521174319 0.7028431879270153 -0.39141214686867426 -0.11746316191619124
Ni 5.257603422242388 3.000494448980286 0.2113863852795525 -0.20910987698991088 0.0441736091934207 0.46370976799182073
Ni 1.5082608744866686 1.0208254302660607 7.0755454458130105 0.01766450715929861 0.4147634200001051 -0.2680267059307771
Ni 6.920863972421134 0.6025705915160205 9.283724280103076 -0.4980306527608779 0.41782354698266755 -1.2735938940604388
Ni 2.6475603226428697 1.39475369703307 9.182676570619329 0.6131769936184344 0.07911078739023794 -0.008851793963675077
Ni 6.12186971511851 1.9990135551512824 2.4633356135945106 0.6659334593848596 0.5329760584878112 0.6208314248398986
Ni 4.0360040590487545 6.790923854648451 10.452090111176934 0.5457269303955762 -0.10785520651278198 0.10402374858183375
Ni 8.08045445110847 7.182889594579742 0.17141278470633273 0.091793525064229 -0.13198912344650815 0.32583796051229047
Ni 7.587222857340318 3.846056215711538 8.089050420328588 1.2891048452118445 0.15356067896969683 0.03787774888237993
Ni 3.0289613856383597 8.344165734177484 12.370994209051364 0.7522039977483304 0.25076894729159394 -0.06506767903361052
Ni 0.21494880876507205 4.847311753803856 10.121626656055872 -0.5654899719551164 -1.0479914187321435 -0.02863746123103455
Ni 8.586116667312176 2.3321163766604016 5.763702828575264 0.8341039178479313 0.20790685782074514 -0.11192654836867821
Ni 3.6487347326699813 2.8488570808795526 11.490596051120368 -0.15502157978593947 -1.3195233096027017 0.10786369115321424
Ni 0.9619174406965509 3.2546686772727833 12.531608848278688 -0.1674790888230019 0.7821177545886272 -0.32912357324209773
Ni 3.1392775258604964 8.065175332161212 8.144553735428259 0.6175568678536848 0.5536878371138658 -0.8074739739652287
Ni 5.736385206174284 7.965829509200912 3.481088093035132 -0.4440603691920095 -0.21307966027093625 0.45048375621985
Ni 3.151221379904811 8.380402936636463 3.6642229817408816 0.08179373353903978 -0.9382598211322549 -0.20779758593639053
Ni 3.4144098376647163 4.182106690256499 9.313329713942885 -0.191830778194489 -0.06916087526637767 0.012979442978803454
Ni 7.334544991139412 6.0211988004265 11.28788225601141 0.19287978828429364 0.23370376427919107 0.07747479444871173
Ni 0.6413525109536489 0.030772776555836656 0.2624772350549263 0.23477977095218922 -0.6745829075297415 0.6735356972121497
Ni 4.5024093059218995 0.30112213820465017 1.5848899377661554 -0.7897266772841367 -0.2447682496234688 -0.4601583031951365
Ni 5.989549840766432 5.608482304261235 0.2480093967597368 0.10937010049541164 -0.48702787389247093 0.8767736888023158
Ni 7.71407109440568 8.720951511685662 11.40465528880105 0.673690220512143 0.4096533524670493 0.4367818332527252
Ni 0.11659635389207933 4.840037270623657 5.900146712908682 -0.057666501473532944 -0.2766530141472074 -0.8404936234243588
Ni 8.042711872328432 8.922698981395715 2.0539228325290506 -0.3605008020017985 -0.09634283499780827 1.1580778285682896
P 8.278848627456647 1.5867026993120512 3.5570419905275092 1.9185317250302378 0.5567263668298734 -1.1547374513411468
P 1.6270864473260378 3.308032915719837 1.7275617532386052 1.449329566465278 -1.2640648715240812 -1.4165747406317604
P 4.836161151952672 1.0412066030918696 8.230692810795862 -0.5368111159631852 0.04430036457927209 0.060125761647302906
P 8.456717403307538 1.5268662441073984 12.435482908084145 -0.6746345867032832 0.5970440926123137 0.06656406107347891
P 6.257660067815541 7.724176045638644 1.382770180379098 0.5462221248644399 0.09518943811965541 -0.772217978976412
P 1.7744871275770897 3.2794668225376222 5.999927923152258 0.8758424352372981 -1.0435475240281769 -0.15138989657062313
P 6.950214303567013 3.8929842943188624 5.975639081852329 -0.6063376020990977 0.3919651911586669 -0.4778086692870481
P 2.3398866424613076 8.330554247681698 10.142458540355051 -0.1341511640948335 0.8377793098169893 1.3421587876140304
