# total energy = -381165.6782534088 ev
CRYSTAL
PRIMVEC
9.22048505228412 0.00000000000000 0.00000000000000

0.00000000000000 9.22048505228412 0.00000000000000

0.00000000000000 0.00000000000000 13.49511189492950

PRIMCOORD
 96 1
Ni 0.8964726945170144 4.4130254272560565 4.630388212732345 0.05422045190646146 0.2953287361798398 -0.3174988445189758
Ni 4.5951945444854925 2.9999123752568155 10.661205778640179 0.24464046579635287 -0.6937746499668439 -1.0646177144349147
Ni 6.390238515848895 0.3683473012286946 9.904939775249897 -1.207878039919868 1.5819023303293982 0.41093041940726005
Ni 8.948609537825048 3.1887110210223644 10.840461222688237 -0.09941658882712555 0.7004939709685485 0.28634144507956494
Ni 5.43330894691522 5.636666738102911 10.631057559649186 0.3689412194596678 -0.75818978301812 -0.7415434327106907
Ni 7.010104044217743 7.683236312994268 10.963104734460885 -0.13152915309095414 0.2066696429795344 -0.568889998775601
Ni 4.143381571191996 8.953201339231146 5.47646450374473 0.5711980780834872 -0.35829196727593776 -1.4610329709451355
Ni 1.0357554930716748 0.5542147548918371 12.252683575860514 0.20319582549832102 3.3431177660022486 0.7980279980609805
Ni 1.6723654217487005 5.512393044626252 13.175317551762104 -0.883398393207685 -0.579439492156673 -0.8266945127577376
Ni 5.925572186812227 1.0350639567153348 12.48861918377114 -1.5201660296618658 1.537157936234172 -0.7589320605007833
Ni 5.043798789085573 4.7600291503826755 8.460894763055808 3.1881159837106514 -0.6671886719481993 -1.6423047426768551
Ni 8.893111440107582 5.544507993014678 11.125788201265612 1.1331263008292745 -0.5099549150022894 1.9226920270555143
Ni 3.9755226462964197 7.373907490561047 9.534066983247847 2.3554480269782982 1.5238121110548855 -1.2449721165586882
Ni 6.615955982558244 2.200090645998818 1.1283402245554133 1.2684311189125768 -0.03539252056668098 -0.04639812764856525
Ni 3.9474462702290194 6.909960359334972 6.617031091080233 0.4874888726892894 -0.5932422023677202 0.8125161643748265
Ni 3.2440339295295577 8.957295234460679 7.642740866015477 0.9836724449390994 -0.05109090513854427 0.27388856402819284
Ni 1.6954719565352048 6.410597346179542 6.03508111805679 -1.3094628400429063 0.5944033125553569 0.950392599840047
Ni 5.4814675387707315 3.4637396401811253 4.8094278974372235 1.4697181574239593 -1.0680521940377607 -0.7224985002640977
Ni 8.361559714685718 6.036798894365939 3.734893811647432 0.014973590590696792 0.4522249072806728 -0.6268146390065269
Ni 5.564627090741794 4.158623032485727 0.8721582762281029 0.5294973559105912 1.5828983756940804 -1.077612584032686
Ni 4.516294856469484 8.7013530187369 11.166948445194965 0.2824423671354749 1.4909734672583097 1.0859910379043682
Ni 7.320520883851605 4.470994614886844 8.351908633296636 1.2077489705411715 0.4706710298010023 -0.36092786223688805
Ni 3.3500510631988427 5.356262576334202 9.350559973681012 -2.375120565706561 -1.953644509572971 2.6678522305831858
Ni 2.4966122151126235 7.813632408345723 3.320445008711218 -0.8634366053737775 1.6516386184832714 0.6326538713961234
P 8.80803402730827 7.022745328811637 6.220341863823305 -1.484691748014656 0.763732052992588 0.3163562462741003
Ni 5.812814878789815 7.565924085504764 0.6499436716757343 0.5989415667453426 -3.458163319615883 -1.2396234506522652
P 4.066252216248217 1.1524683890523504 9.226108324848655 -0.8312595064206008 -0.7825430150515039 0.6035916639228444
Ni 1.9354442926699076 7.82222590013384 12.626930143233025 1.0341982216027932 -0.746704922306972 1.121410812164559
P 6.612267788657764 3.1059848318346077 9.756939008362979 0.6708908033901348 -0.6703457295199423 1.6552638739406846
P 7.241372242747314 2.8577786028170844 6.627300866996119 0.13417584668518184 -0.7473901212994547 0.014852748742116357
P 1.9304283489652552 4.640734518671664 2.787118339974747 0.8721724425848785 -0.32316966965150795 -1.1437436713338043
Ni 3.2990986644637172 1.466656406949453 12.23820372660723 -0.7416372779760775 -1.0744272443261689 -1.5142499212877472
Ni 5.460841314382299 6.496403177274199 4.994338264783193 -0.2913386411838401 -0.5194410001158538 -2.186580285337886
Ni 8.494491443343753 2.3142771291576656 3.637404704324531 0.7306537823813803 0.5022583176889801 -0.20658171125141842
Ni 2.132209437260492 0.4774348563201288 0.9968837734575704 0.7823519820866204 -0.7108750570925563 -0.3584539467750988
Ni 4.360450223204721 4.473511807223922 6.320678256837375 -1.2926138868063675 1.2309027829498156 0.2745930462943852
Ni 7.605203350544872 5.414821874989066 1.169831483887333 -0.05280788782965099 1.0898566915073618 -1.4042537571725622
Ni 6.168283006918035 0.9004577880264827 5.792196030789183 0.48456861371870097 0.9941039246850687 0.19634666378697152
Ni 2.1637250541400896 8.908140830252037 9.87831378143386 0.5370072911343913 -0.202272028132471 0.6302519468228501
Ni 6.646300597874439 6.3886341515021865 6.778054870629746 1.4181369429125577 -0.3484796091712063 1.5554235673125794
Ni 8.629165843619763 6.644447280439448 9.326012277127896 -1.3430337340198162 -0.4606324146180777 -2.362738904212757
Ni 1.2429582264006165 1.098261159200052 4.6085808442472835 0.8635209375574676 -1.368058795309244 0.5086266831091693
Ni 2.197536571722736 6.889878143546861 8.273218250284481 -2.2466438262886856 -0.1476319721900877 -0.019249849368547494
Ni 4.598430934633164 2.962172931170158 2.66674214540242 -0.3035603800610127 0.31222165528043644 0.7858332557670015
Ni 1.6551323357487095 2.149737578772521 2.5014806310612565 0.6273080337031778 1.518613340462765 0.6184513546434962
Ni 0.010973298902401809 3.845292519670487 1.771557552605148 0.4074360331007564 1.1298887677285832 0.536660963538566
Ni 0.2140102172207518 7.968213835199572 4.3118361394025 1.4003569932213173 -0.7096774372400294 1.1223492648184283
Ni 0.389299930777319 8.349019855424087 8.233772094470377 -0.37618735949911986 1.10383397962306 -1.1950639188743355
Ni 1.962506415414676 2.195000938416156 9.85635704109583 -0.21433101617953412 -1.7077853408781685 1.1007340005414978
Ni 3.147513895154008 3.2536416746403067 8.31896660742603 0.672136502871778 0.5774142341965282 -1.69413612552585
Ni 7.514077299748773 8.94101185839006 13.052309830841786 0.8919884488695412 -1.3129556836875131 0.22835535548308414
Ni 7.949929613937945 4.377231505451903 5.3196784589868695 -2.3069773330714205 0.14756460928726198 -0.409690633462888
Ni 2.734491501208804 2.898606909295393 4.553223819946511 0.8074130388203061 0.9393255433926081 -0.49034973917685226
Ni 6.819931546224266 5.95490254880579 12.315665941050527 0.34869275362327684 0.06679314636514949 2.6693239300327063
Ni 6.518984144429885 3.7017480130638223 12.032349028148914 0.3201815335574615 -1.1139551272174621 -0.09805493259290855
Ni 0.2336323308197782 0.233038531601801 2.703988293554888 0.22042735888525908 0.23958130610589065 -0.8750387083890802
P 2.0456014239924807 8.507722838961723 5.664653675468226 0.3500824348819519 0.849253629005176 -0.224828059056116
Ni 2.9242582978732283 5.9376325808667945 4.348057891699109 -0.933359041396528 -1.1542867369569734 1.7935005209588015
P 6.288951490856975 6.840760621277225 9.01199483819869 0.5011190618782143 -0.10885973651789639 -0.5859078734898361
Ni 5.335498044674502 0.2792949374531405 1.3528848456044096 -2.3331699323063884 3.1315494001695168 0.00899166197564903
P 1.8427138775271001 6.420463264863325 10.663634454323647 -1.2172057450786973 0.5552708653302696 0.038328206156237214
P 0.32325820874685685 0.7789677588962107 9.698680297511002 -1.176344488087961 0.40927051520633384 -0.6846266649189887
P 9.073998909956602 4.157341385105311 12.951649798812946 -0.11043299454228724 -0.1797972440687226 0.12524152031002944
Ni 1.7074032638032564 1.3585185617873923 7.779324828683462 -1.1537033536496777 -0.2455058991204417 -1.6405808180072132
Ni -0.007989550036913847 2.8481616372215837 8.431921233822116 -0.8291635431235204 -0.33101796205133316 -0.30699254567101325
Ni 3.7173675142323535 6.5566221631842785 11.811744320234105 -0.4848869162900682 -0.10268600360701671 1.3315249620492682
Ni 5.989396382260026 8.611646922592485 7.780444195532257 -1.1093703360602571 -0.33238578893313725 -0.5114703232055514
Ni 7.317994471029777 8.966626365028892 1.9619863800747084 1.8224354588255967 -0.6589387732345813 -0.09245327013541497
Ni 4.889779811801547 7.893712318409885 3.0590313573360777 -0.4299894929212401 1.0493075664404057 0.8406478896140361
Ni 0.7267862695437509 6.873327373418459 1.7847686631566657 1.0352716571726301 -0.22313833005851894 1.6814503025280658
Ni 3.8302815704955346 0.6421929321938765 3.1026608470818005 -1.2055146818940141 1.8356496435230258 0.4978550464149619
Ni 7.079211577427978 8.302401084522025 4.159908368060044 -0.41692391798653355 -0.01841192684828442 0.8185752260847128
Ni 6.955159175585349 4.358043676684658 2.9411382393072483 -1.6441343396864263 -1.8354370132915874 1.4928496012351
Ni 1.718246553870666 2.8010910625667136 0.09024549450235922 1.1323786240299725 1.2648377451343638 -0.6045257457013395
Ni 8.47379145507731 0.1762569424069679 5.981275901339644 0.20117622396513093 -0.31343547308287956 -0.04060286112302684
Ni 8.233874441851114 1.131768400785909 11.335691614578181 -1.511302665733965 -0.4579139872456501 -0.3335376431493933
Ni 5.624707769380606 2.1387006585253356 7.973438161859601 -0.07833354290458121 0.25992747386241044 0.6939811095506951
Ni 0.09489907315628932 2.531447206502653 5.949508565226338 -0.048987485642296276 0.06113954762379793 1.2065626635425544
Ni 3.364813059285512 7.304209846326734 1.2616767324940252 -0.5932504298978363 -0.5850475823720699 -0.9831363699299714
Ni 0.08208813164297357 5.099158579531771 7.1059048807827 0.3686607121047715 -0.49931800411373367 0.8802084255154776
Ni 4.233401163817951 2.255570302746782 0.5215235262064614 -0.036441016435853374 0.4291029765512288 0.7240712440678562
Ni 9.118275677731859 1.7858695890359588 0.7986470395006946 -1.8985995048826851 -1.8288786433477793 -0.6075251946492957
Ni 9.346252163205254 8.077190744473992 11.223816706946458 -0.7940656709791228 -1.2360035945114907 -1.7634281270534533
Ni 3.923519112299658 2.02413613549169 6.271043465373197 0.044026284982279014 -0.9105716111883673 0.1616938495997925
Ni 1.22245186831395 4.557206147310554 9.27102038402327 -0.47383142980685483 0.9718741667525908 0.39309159145362627
Ni 4.292486030103634 5.656712071952017 2.916131362613522 3.612838828916313 -2.011159573070304 -2.8799479296742985
Ni 8.83533588265657 6.802514050529251 13.33433034358738 -0.42808250570651435 -0.12328542502492316 -2.1601370035446927
Ni 3.38056164724056 4.834088083904305 0.956418754078459 -0.464760063633206 -0.9726102735876667 0.21987482881589876
P 3.9749048738180894 8.79188895850892 13.328662511610817 -0.3959421735285439 0.3929013298196911 -1.038892541754669
Ni 6.453896742571172 1.4278566071164078 3.3764502330900004 -1.323231097471592 -0.1779923296494999 0.49168928392388217
P 2.186361344204283 4.238269579766584 6.478867659374369 -0.2064413290188122 -0.7496917728494379 0.11837744620034454
Ni 2.3924945013020853 3.632603597914582 11.369645127625995 -0.7626984695217509 2.0971040955529237 1.5940695618195515
P 6.444464186670696 6.653935159248433 2.6393471631581327 1.5568734123852284 -1.4520955592461895 0.19537735789516675
P 0.08475469583302028 8.681916236881372 0.6393945150718877 1.0329435232600856 1.0181576232001626 0.537752653940848
P 4.1807153139496 4.502749964369973 12.215693757184129 1.1069799814512098 -0.6862312904019472 1.7166132235824438
Ni 7.770037956442055 0.9012747229754389 8.120980670654387 0.9854516483267094 0.4947414404866447 -0.2248997928343159
