# total energy = -381167.7840652619 ev
CRYSTAL
PRIMVEC
9.28614172044423 0.00000000000000 0.00000000000000
0.00000000000000 9.28614172044423 0.00000000000000
0.00000000000000 0.00000000000000 13.59120706546459
PRIMCOORD
 96 1
Ni 6.418423405911175 2.3325859798791755 6.3937928431776605 1.2537920288431634 -0.7859368712244013 1.647386270964821
Ni 6.603486927520363 4.686427938531166 5.878686838407209 -1.306151516281486 -0.4440020051502482 -1.1677791150164534
Ni 4.3843404568979425 5.577433252315181 11.380379531672713 -0.7472741645468808 0.7117461468435999 0.992597258232555
Ni 8.961043342926013 4.899749189893818 10.103839608056141 -0.3404099447891944 -0.2565261614903453 0.20110243330440203
Ni 0.7572848706522821 1.3110825141972258 12.912761021725261 -1.5103858103466503 -2.440258435856475 -0.4186948938440273
Ni 7.952791201712744 3.0892301067414514 3.3181437189417755 -0.7193157316607419 -0.37897186422279244 -0.5001461564419838
Ni 4.755526120291112 1.7311690007523202 -0.23758408287755375 -0.5172995282928187 -0.006514918300382328 1.2161968441982087
Ni 4.967993046600422 8.925867437468861 9.365700904740596 -1.713426598324346 -0.9706966015047217 0.4859055873625696
Ni 7.105050022966974 2.024620370433286 13.44459879694257 0.3213025345357821 0.03133017757184928 -0.1332502495471189
Ni 7.67969505504183 2.7208581443391777 10.991182467481048 -0.30046014386913417 0.30473717397793326 1.0470982174939127
Ni 2.7727769636134503 5.291540802127912 3.0211487575178193 1.6489973242056826 0.9614414014550411 0.5156684204472991
Ni 4.982451569514041 2.203620041392126 9.681655382049419 0.36686068278155526 -0.7038508032559233 0.4667452123840348
Ni 4.958205453054529 -0.19903173623132425 11.966092716259286 -0.33126504506513277 3.1053583435964454 -0.34432727756572956
Ni 1.4454715595446177 5.1597983072175015 4.8775850264447325 0.7942878142922579 0.2656222102543426 1.5602472139534678
Ni 2.971955420886544 8.302163717820049 7.902417596447993 0.04999947184657841 -0.06600793145969278 -0.3539637722142291
Ni 7.591801722108367 4.830697438843292 7.824036987260652 1.4736280340013266 0.24210124431426688 0.32856435830451797
Ni 5.332186245154828 6.627621610277265 2.4960796511198646 -0.6811235368617365 0.15074146435334684 -1.1928771956356616
Ni 6.020456509324122 8.926861054650464 2.824008608388296 0.3091293895083579 -0.14768622246679083 0.5628083113578953
Ni 0.8137966157024541 7.624934676351009 2.037199378229553 0.8948804257053556 -0.48800360754217886 1.0596187185584267
Ni 7.604663028617914 2.6915417944109223 8.711542354168532 1.6218541881319877 -0.44027596244891265 -1.0061210037506028
Ni 4.408781582337021 0.9275778549805447 4.311416384681727 -0.01780668916411772 -0.3711654808044963 -0.1916387167883409
Ni 8.359468499387129 0.3695643030201978 6.672807048071341 0.7440266041438606 -0.14711826577846274 1.2257515777661794
Ni 6.135790391525242 8.85239548288148 5.755903613186625 1.4135876329789785 1.2147014905996047 -2.4984417290654264
Ni 1.7520256754241168 5.760017374041302 8.724943185521546 -0.57951739658246 -1.2387168796775956 0.916473578495099
P 6.373469193050014 0.7228583568451797 10.573184434235698 0.5598299454558616 0.7883133418763778 -0.6127177945938287
Ni 3.153443777870336 7.702631825495676 11.844302179606116 -0.13200377873452748 -1.6790730605451405 -0.3054673672757385
P 1.9933910752768955 3.2125129263954024 9.111667350129462 -2.2982031864232164 0.969265268374834 0.7627041259487057
Ni 5.820934464801314 2.697624217345039 4.362260797340003 -0.33531427543384185 1.5133873161771356 -1.2078788112508165
P 8.815362349047497 5.089167912046672 12.732569010148497 0.6281112463307634 -0.6467116350407701 -2.0618910379869004
P 2.9751219952690384 4.014854157469571 12.834570778446546 1.6709000378160448 4.339429239861597 -2.0255289544180983
P 2.1590279880644463 7.2147286447606485 4.059381207804061 -0.720895931663668 0.2823721760191718 1.2326344209289417
Ni 8.362765079756 8.76797516701269 9.47167157007993 -0.08876013755454391 0.7776553479418994 0.2972156687899075
Ni 4.705093083718303 0.7505022726201004 7.099693776328197 -1.2848843793725935 -3.7075307585742596 -0.6149826793686053
Ni 4.5937429563854835 8.74764780242829 0.5544978186430084 1.0021005697373 -1.3771394174542733 1.0114077060708386
Ni 0.49152477606984607 1.5111245826655455 10.170151018636654 0.29708788496279154 0.2617187614348783 -0.2258873535585658
Ni 0.7764756114700627 3.1949806905181304 11.95269188490627 -0.8707349388074036 3.3260628674024915 -1.783342606589193
Ni 8.89486100971769 6.866182595281031 8.371232183925967 1.0070298887181173 -0.7136459349694741 0.9210743104919041
Ni 7.598432027413649 1.1324542889137519 4.678365710147349 -4.177117039951515 -0.09502257352448797 -1.5702428917135989
Ni 8.58826046312877 3.3600418625088637 5.7637318307949625 0.3631035297319682 0.008862078376320222 1.3237581736196558
Ni 3.8288434493881995 8.153083996011935 5.546952420194653 -1.2735291022607744 -0.14439289642749972 -0.13263292767809415
Ni 2.851922750892045 6.029083335134496 6.813326804290648 1.0474679421285056 2.3477709700490146 -1.1653836182010833
Ni 7.712716575581861 7.0057254493741254 6.506328810829087 -0.4489421227643429 -0.15185783734597716 -2.330848226151747
Ni 4.47249380180416 2.712834917751274 7.460200376554597 -1.2760868356856219 4.201420392583571 0.9082586467844744
Ni 7.129574723683009 8.745549134362472 -0.09414662087824767 -0.5441554721433983 -0.07457047631772318 0.7647329834532766
Ni 5.442839911846338 6.495832684657434 4.920519503446092 0.20311406441779212 0.03175800913788724 0.034059917798186505
Ni 3.970977137066971 6.721810947408179 9.404123245400447 0.2060317522852194 0.18835567516169496 -0.28282134774144835
Ni 8.441140117258211 6.818711837969265 0.4297013578619413 0.5725008560553108 0.13367448156873107 0.287555262882008
Ni 8.97057092449915 8.580980127891598 4.31446038199135 0.688524457311498 -0.20778370197931958 -1.2634861162024755
Ni 0.6995250681328805 7.868974485066421 6.186160282333238 1.8758370143751886 -1.2071648159029273 0.4117824829949101
Ni 0.2987927584927279 1.4949574096452434 4.812524459176014 3.3340937081267676 1.0698964463353509 -0.7738974235613639
Ni 2.3857584283078075 2.4190771053881313 0.11144020290909677 0.7982719957509865 -2.06236592074079 2.853277619471964
Ni 2.269551648769578 9.026232058952733 0.5355847334675639 0.2958149317876389 0.33418144738097927 -0.2424095195833051
Ni 2.923398184974334 2.4056400580817687 11.205379402023373 -0.14201642577552318 -0.11702144639308233 -0.2904822067208158
Ni 8.103356706222321 0.4756445448337643 11.670783189587302 0.6167616256458991 -0.4804746461549855 0.389998040129967
Ni 6.639675022442889 0.7366965654809372 8.322874600064265 0.4481473947771895 -0.45559819462827994 -0.5188321628872613
Ni 6.264245592208662 4.168966968178894 9.64754181122381 -1.3837785200373458 0.7312207106284438 0.3772569384142148
P 4.791602781511028 4.363808797192091 3.4578202934780022 -0.19595379922392703 0.7854059384215958 -0.39608204154051785
Ni 2.031027808333348 0.9876554785142295 6.371572034263082 1.485039618272378 -0.9882927173199303 0.12426630088095372
P 7.33304337850658 7.400460768585495 3.953029810647478 -1.9900243337535855 -1.013885221077054 0.20675088983943102
Ni 1.3427296857384026 7.734455433732651 9.885782424332573 0.6611512075048678 -0.06405697838090903 -0.23570511097993602
P 0.3129086227708215 5.426765600244877 6.808311359059019 -0.16963393038247557 -0.04109574159904535 -0.25246536115741036
P 8.900729851388471 4.961307024443836 2.0928010813750784 0.13004742633910504 0.3192741912518437 0.12405624175267667
P 2.0948421753612143 2.7531832042378976 4.961171446772327 0.37962543864639137 0.5070277140531655 0.06186408449464829
Ni 0.6615447478267146 2.2762469570680484 7.619584001397362 -1.6983604480198429 -0.7035625825915431 1.1640047355756855
Ni 4.5871869402152745 4.497092791655269 1.1049719520076153 0.42096826325923625 0.9467020383623374 -0.7745659103832984
Ni 2.728008473589972 1.3014620712052483 9.007668132712134 0.8001507008309381 -2.0489802434625037 -0.9962947616888003
Ni 3.2530655080034774 2.9807586833927164 2.3318300879298057 0.1471671167385272 -0.6637513641318763 0.9067450383534256
Ni 5.079723905750493 5.304643548326445 7.705820686618693 0.11192192038298789 -0.5194643971546214 0.062261834153699215
Ni 6.669585685451731 6.455057235644139 9.334141951547318 -0.1575443462077932 0.8724676052277942 0.2969685857761079
Ni 4.966210107358665 3.4159351505095517 11.884641179950856 0.8346322795475756 0.2524000551371137 -0.19293969498795158
Ni 6.646769634842379 5.152425110561489 11.702913240506454 1.9421347091611585 -0.15671465121764622 0.7302169519542778
Ni 0.8499809961682258 3.501506947971977 3.1810217620378793 1.5053595607766526 -0.17892538298673055 0.26995374775016084
Ni 3.681936684780976 4.330007240733791 9.46508026657056 0.750309866049411 -0.05039002241677773 0.05533065425150471
Ni 8.66233601693862 7.030714457184367 11.448226870120864 -0.7571155761173347 -0.7413634554894006 -0.4354728846333145
Ni 6.855438529121072 5.167422229704388 3.0154266368888067 -0.06393690786327698 -0.746655042905643 0.09715813181025203
Ni 8.106931870847719 0.9546525302579671 2.1309513380777245 0.5636799153295712 -0.4304718318742974 -0.47878414582643997
Ni 9.292456460629378 3.0184882778680104 0.5162918450890576 -1.299153487697098 1.265038291180944 2.078015197242273
Ni 1.5926940529759026 5.667536687017071 11.918265371099169 0.03345776543781334 0.025707432068433147 0.10020720304922097
Ni 2.2027935747644367 3.894403611090285 7.019953675969017 -0.1349245519257483 -0.6773902950715496 -0.25653875989583563
Ni 0.9734291091477146 8.610575062076379 11.933650650972824 0.400543162635665 -0.19061001841351044 0.41769782003808065
Ni 6.173408552297926 7.449268730328578 11.51194280404476 0.9869269473206552 -1.5620541852552197 -0.1905997340008653
Ni 2.770065410183279 6.697156240705766 0.32955867516909915 0.9870583306921968 -0.12339366846801328 0.5615528416842394
Ni 5.670721833683334 7.508941478076113 7.288447610722145 -2.1480319927510427 -0.5639683931042675 2.523236676621919
Ni 8.452153481532811 5.3340527596735425 4.612773975562856 0.5411092291179068 1.5770460306783614 -0.43753568069961424
Ni 5.91647029250543 1.9534513790331745 2.0104246453349885 -0.5090745692798653 0.3920598077550022 -0.10842624852490358
Ni 2.187118567263995 0.2594975204957666 4.001387394509179 -0.3061006299843631 -1.2820659360871922 0.45929749785673807
Ni 4.066791549027612 4.35939787979712 5.64976951175013 0.48199751055741513 -0.3084940699172042 -1.4353085695958379
Ni 7.297551744225365 4.720786663502514 0.5941190002201032 -1.3544748859772222 -0.8105150747843977 -0.005165603361339491
P 3.0710199825066367 0.26884866537310376 10.939454014115402 -0.585097718883715 0.12325842844172964 -0.6427750189905252
Ni 1.7101916062360294 4.784313160131971 1.1444408408578102 -0.853813994682349 -0.6400936155036202 -1.2945303871027898
P 3.886306095367308 0.9050422458560939 2.0318579894177913 -0.15975703758839582 -0.28390275373108526 0.23296020124494718
Ni 1.3742282790094333 1.3228944866738621 2.169537114834737 -0.694994638416874 0.11825686146208018 -0.6821445219270833
P 0.9031246575570173 -0.324812528052111 8.081929862438837 -0.7527709259953939 1.010204172681041 0.19174078958384397
P 5.548813363028237 6.6320882445235405 13.898368905954037 0.21225536459742797 -0.0727377939843586 -0.6855005828835098
P 9.3679527941475 9.032992370244393 0.5701013228509425 -1.5317635046914782 -0.4503801407624502 0.4590581281524223
Ni 3.5215092975904323 7.973452867404973 2.6207656068125105 -0.7792244922012321 0.8313273835440587 -0.20841722179826042
