# total energy = -340864.81037448475 ev
CRYSTAL
PRIMVEC
9.29369883713989 0.00000000000000 0.00000000000000

0.00000000000000 9.29369883713989 0.00000000000000

0.00000000000000 0.00000000000000 13.60226766962813

PRIMCOORD
 96 1
Ni 5.218662657085191 7.088787144726867 7.311409328796527 0.058048824513616155 -0.4626404461870419 -0.1954174671044828
Ni 5.744853280721897 2.2163426391542385 9.280799810487158 -1.2006372991970549 -2.591346742026279 -1.3069295320980912
Ni 2.700349165142018 6.620951654189437 11.215532231602246 0.7233657333603993 0.09119702913081067 -0.8058801471155476
Ni 7.939996993518524 3.0263349349445745 11.889265895696175 0.9343021220360876 1.4029021282406742 2.090326153399142
Ni 8.840528500433745 8.565081863262797 8.55836995418105 0.8645725187504336 -0.18735911557638055 -1.2106067517049408
Ni 2.0940840349304777 4.731988839617958 5.827266081848057 1.6717549296171723 -1.0563349056008324 -0.2501218006258982
Ni 2.4321887876222616 1.5002166985642058 13.606619637454871 -0.4404986199826801 0.0020193444228739418 -0.577061993063432
Ni 0.8164802267373982 0.5641711814383982 9.91284287232435 0.2812928269120639 -1.1829378250347626 0.033229965697723414
Ni 3.3970791568901664 1.9222249616271114 9.72208413368085 -1.2681544682124224 1.0935788775539554 -1.509211587532891
Ni 3.0507959494878607 2.6987413552955175 4.559670657606977 0.010290840403046793 -0.22780231119309152 1.6559768408473095
Ni 6.569985011425233 0.7728109960626276 6.401852711234275 1.1719144773410655 0.6690002712356413 0.6185562556524767
Ni 2.867607857670716 3.0455914783084386 7.37279606635782 1.2768167718731107 0.35919956669187164 0.2510512544187031
Ni 4.060119491450087 5.696126419304552 0.3854886746708673 -0.0881322741625579 -0.6071367009616253 0.594481731201776
Ni 5.522278494514764 7.0082479532253 2.5331090600103896 -0.07951316503497918 -1.7722004739294448 -0.3431368568020542
Ni 9.37018567362389 5.556237668960498 5.320894270336562 -2.872822888593743 -0.6377240868301791 -0.41885738756382057
Ni 7.092653323317295 7.0341773721370675 9.26069568181693 0.6493776119087075 0.9914559455392602 -0.47281738672004375
Ni 6.136805722723638 8.47404079241704 4.612923550210714 1.4805563856900437 0.7045051490104706 -0.3212014901815436
Ni 8.296735611772348 0.44632150779949126 1.96351407610715 1.123983972208374 -0.10226562824014646 -1.222829776133694
Ni 1.132344229465831 1.5627911707982294 7.911323145429465 -0.5591434609117983 1.370460462772201 -0.1071311838625639
Ni 0.4720381010148138 4.306737075766447 11.233037842162176 1.1570283042578524 0.5002418014795837 -0.6778332961462391
Ni 0.5706340193994169 5.763291978614711 2.092409310454528 -1.362522695982363 0.037421378071251676 -1.6028668483962072
Ni 6.15407341460108 3.1862794867264763 3.5702820990016475 -0.5392235820594197 -1.1923609181208754 2.820758306688019
Ni 8.076465662801816 2.5736388793201432 9.72598841643527 2.4740753844059196 1.7126773788631475 -2.278544274541708
Ni 2.124093387498971 8.68230328288076 7.768050559448932 0.43362323301908545 0.19573242724174034 -0.7330168832969183
P 5.278699949619246 4.482099873417389 2.2970965150919564 -0.8146866896635842 2.9351662267176546 -0.9329790323492899
P 4.584609368254948 1.3381996520090693 7.537696018198415 -0.25542624355794724 1.4832650428704584 1.9907594121473977
P 9.010194260882926 4.407006789257147 -0.35784456837945133 -0.4377655373222331 0.3519359431509229 1.0754168619329478
P 1.2654950483722407 1.3170750752397338 1.724508960260549 -1.0561114767361166 0.032204095536370346 1.063794447202671
P 6.510691214773953 4.000268072886725 10.092039320620847 -0.4394002447121787 1.9636532999592247 1.708096444360684
P 1.5574751752363905 5.345317180715857 3.8425177633288623 0.8212558582406695 -0.7905658853559805 0.5815915055026694
P 8.504905165250722 8.041688642885031 4.221109584317142 -1.471117608874647 1.3299717586295354 1.055566402865924
P 6.322856273689466 8.585258482781596 1.1651863013476953 -0.12464193905281759 0.38782597217931275 -0.1656273803262438
Ni 4.198344669756434 4.255631027524223 9.697763453985438 -0.38084542709642155 0.1414440982118209 -0.3786728449251349
Ni 3.3190120891988255 8.528864320073136 4.067186419815861 0.7105161310912408 0.7792419757027289 -0.10301844724577096
Ni 3.7297563896376946 6.5297340030715185 9.073079142648009 0.8226591663460993 0.4485896245209306 -0.9395016639591561
Ni 1.2092309974432671 7.630433189026753 4.370952815161696 -0.031545121796132766 -1.3235447720572688 1.7854169726197187
Ni 3.087645464177881 4.172879935771402 2.567890726776442 -0.0780095839062592 1.025958093081188 1.6211304225920855
Ni 7.323025522595029 5.247119961998392 3.2613744296264255 -0.1371668109927057 0.1951762976279542 -0.14285383407515398
Ni 1.4901237419555395 3.6999050299442917 0.7535860512737814 0.895923008037257 0.7814670083785058 -0.5304232101589703
Ni 7.340692843509462 3.0482030075966846 1.539517890927675 1.3381923467671146 0.6307720809923781 -1.3720964557137272
Ni 0.960503743559534 6.313748449125476 12.7154942828266 0.35504440687291755 -1.36794746654236 0.17057495413950624
Ni 1.0123347002874636 0.7432653990510154 3.938005868923468 0.8120623646668595 0.5801066934270268 0.11097138354426049
Ni 0.5857307032991568 7.0913522055224405 6.872137091335594 -0.9741534497050707 0.5603261683659898 0.4500852352298506
Ni 7.498564900518129 3.1171901318196396 5.759091226877033 -0.2820343330637788 1.5343189241234803 -3.2188681772918435
Ni 3.4472744226759913 1.4195195141875492 2.582268078409597 -0.6025508813631558 0.12558193436858373 -0.5779495378747079
Ni 2.77500544547113 6.540356700496662 2.6014196029800196 1.677307998224918 0.624599633633079 -0.5340667204488286
Ni 5.271106997916409 2.7121800433766694 6.032509979027713 -1.8183798006989846 1.4072172106762604 -0.37202217237783675
Ni 0.19943905307489285 8.262228109113067 -0.04978262557088534 -0.2782483836587853 1.7232150451696773 1.6214207001389946
Ni 2.841650557663345 6.935153014250015 6.031952357115632 1.8892406893756044 0.3934798280309804 0.19806981712566535
Ni 5.9763128427281895 1.2626325892235581 2.2058797933438923 -1.184867695067624 -1.2763930540721307 0.29453915039900885
Ni 0.03403817088327812 0.19646042269452682 6.281322734937966 -1.0461705634733207 -0.5073583579197068 -1.0146346976485687
Ni 4.6585035653042155 4.848020665823481 4.6576476156691715 -1.8099465823299665 -1.0409399112020008 -0.38434032762355747
Ni 1.1101973458576802 3.1413909228039554 3.153127934683407 -0.6182775480697933 -0.03862336879915283 -1.0019079941105198
Ni 4.405250280234092 3.4573487918875885 12.054968823090167 -0.595549253234342 1.3836016281398493 0.1611994264618772
Ni 5.526349134472956 6.262939799236362 10.610597959020874 -1.2781282915956826 -0.5154341929493059 1.660711013098185
Ni 7.787784798917479 5.963292371081098 11.401120885750899 -1.6383357307267785 -2.370155765502118 -0.06304910594168496
P 4.943810816620463 1.468060501634201 4.292032585944871 0.022832424513483256 -1.631994104779467 -0.5179253348022758
P 5.969221750746226 6.424073944430703 12.775236035747254 -0.4477722708259578 0.33862097120957163 0.15900550413435197
P 2.315645807997331 7.636232456912396 0.3688390137459819 0.27507589946807465 -0.13666801697941625 0.19579027706286928
P 5.40070762398257 8.37931012325301 9.530292865130148 0.21831416919699823 -0.6024302966248916 -0.39822017092944323
P 2.134716084924114 0.6511025787921201 5.954188263996523 0.34380277252082725 0.7438646246446996 -1.0151453187364001
P 8.248966001304074 3.292915383713434 3.3826795003805277 2.0723821673262113 -0.3086879310955652 2.4172581183065596
P 1.5504584328427045 3.8554164875251495 9.406253588267143 0.530412668636009 -1.8041562009004348 -0.918674957021792
P 4.168465428967426 5.024275658533751 7.246186152480119 -0.8046727570710077 0.16864585543759342 -0.17052018964217083
Ni 7.413508971528707 7.8876270022755826 6.871416829699156 0.25590164053246894 -0.7874180837556182 -1.399878768033318
Ni 0.6457001518339087 2.842384759847585 5.373521697028914 -0.3267285906473599 -0.825004012429192 0.8023230258919086
Ni 4.650260054703951 0.9227313646050201 0.04136718154772948 0.6417020976413206 0.04618883985123658 -0.18656438758922708
Ni 5.984063787306115 4.0230376342967 7.963977523847568 0.9436686508526522 1.472950805428644 -1.376474787287081
Ni 9.235445632268048 2.0606638949997564 0.06188952665201747 -0.08853568024856366 -0.6487654322460052 0.9907591765825519
Ni 6.143227668411104 2.016788344217516 11.470247415451876 -1.9137944674555687 -1.2565217690695005 0.025535168156626993
Ni 4.120835223977174 7.729411078421132 12.798304854250045 -0.0860504519328647 0.16048054601798167 0.5888481870650827
Ni 7.503945951969711 0.5399787547827637 9.927288067956807 -1.097145254748975 -2.8050990028842073 1.306049186375667
Ni 0.9852993312500695 1.9068345968536757 11.595524612959702 0.1882021803029662 0.7426664905715403 0.2308233574076025
Ni 7.828677072470086 0.9459312242571504 4.106129804785745 -0.47042266123562204 0.9005507366172554 1.5414221108271646
Ni 4.438242910032217 9.085055002579802 6.214481525706669 -1.5946457460379957 -0.8538199082196198 -0.9766397064620342
Ni 1.3246122647513618 8.359198559623955 2.23436312061299 -0.37532321172661165 0.8719263880123435 -1.6914269541248033
Ni 1.8773642788001945 8.85071439402776 11.863244469168915 0.3172502188432794 0.2268846844748286 0.38696336706870127
Ni 5.527241329532285 8.969868902940934 11.61883878510381 0.7551072874380543 0.23867422091058896 -1.0896800567201814
Ni 7.043712706833652 1.0206246793804012 13.513186368606284 1.2455161619876163 -1.685372263290291 -0.47077155993460856
Ni 1.7764718875076713 5.482798863139429 8.04302042988505 0.7124529431026375 -0.6500689815487772 0.32123080075758226
Ni 3.9978331238706386 8.551903398740617 1.7042282513181628 -0.34021402672830436 0.13765197815924035 -0.6924908981584138
Ni -0.08499644931880092 3.877535490037696 7.46983436086801 0.6189905149764179 2.331896722020919 1.1627767767058554
Ni 4.113985768157113 3.265433917146375 0.9177229904646792 0.5474685956770313 -1.3602938066518444 -1.6007945392482108
Ni 3.349290959024824 8.957545458683944 9.74543919809851 3.239589983220227e-05 -0.718504548613356 1.2194935126716093
Ni 8.074160825565215 6.436713374437873 -0.02701585227047131 -1.299743298762297 -0.7309669427464249 1.9649229107002675
Ni 7.892394669623875 7.363165006566326 2.3341486324100322 0.2884844595644967 0.0301685531635803 -0.938429771051216
Ni 6.592038958048037 5.218634775989587 5.73730029192276 0.9299546437006693 1.5232037880469251 1.2503616630053755
Ni -0.11815357758099104 7.263917599914442 10.469515897784964 2.1648981723787615 1.6485936610093608 0.31078080906885186
P 1.7541855984215002 7.233778135566463 9.292701320830673 -1.5793811065694412 0.7632813386084144 0.8738619144721596
P 6.011898414417492 2.8843736898272847 13.546443868812649 -0.6682788196885845 -0.05951975263218782 -1.4334861716751184
P 8.622628444589557 -0.042369971619621825 11.936261341076507 0.25081317026596806 1.226974651540003 -1.5628460850288954
P 4.820213919807707 6.910998691758373 4.553032168743654 -1.3853350658911883 0.12975689168187976 1.1158238049950848
P 2.5951909662220745 4.769172927455226 12.277433943654591 0.16265389952021667 -0.8046164499117755 0.5702575685470889
P 8.031456280798343 5.960857422065011 7.763099806239506 0.7838866735635919 -1.0493443332156123 -1.883331265869705
P 3.6484551148562843 1.463711050719969 11.711987666777235 -0.42500926609782935 -1.7272352220726641 0.6092565755181056
P 8.367971811040697 2.0572624013360623 7.119358766056709 0.7640513840052195 -3.9549336176070984 2.4315082004676705
