# total energy = -340897.3620053594 ev
CRYSTAL
PRIMVEC
9.04634352927972 0.00000000000000 0.00000000000000

0.00000000000000 9.04634352927972 0.00000000000000

0.00000000000000 0.00000000000000 13.24023817352493

PRIMCOORD
 96 1
Ni 6.33390605892622 1.9349676738726522 11.40500858336775 -0.08582882284036186 0.3584686020631181 0.7268927726770513
Ni 4.6292673405900295 0.28139285150742444 6.049677178686197 -0.00323547621816217 -0.4527249868455429 -0.6576367665937061
Ni 2.8734715489433382 1.6391703293798496 4.932346087082412 -0.10173495254765706 -0.3158294272363528 -0.31820538366769713
Ni 3.2890515296349663 4.229400858809162 4.902608946253715 0.6202886649625511 0.2624849501769415 -0.5436026849637219
Ni 5.210377317291484 4.56704658900212 2.7240331890086176 0.015699155902811672 -0.4300869377310529 -0.4305175975105683
Ni 7.370327557606609 6.139626782813693 2.5591264860759075 0.23256579402000593 -0.6892163411722001 -0.8090816847719807
Ni 4.996069436349699 4.652064126574551 11.506336678531486 -0.5179862699471983 -0.8464480412355809 -0.6508207721131373
Ni 5.685898370972571 7.760107366223694 12.417940346140439 -0.9357673937277045 -0.053751482689842915 0.3669331878907035
Ni 1.8289173873264069 6.656019217081313 0.27364556281014524 1.0316574574588104 -0.037591070879896556 0.6770519378955243
Ni 2.6452865768506584 1.5534471770031357 0.4027296495444011 0.43841834041488364 -0.09045449453783132 0.17254313360947057
Ni 0.7588371578473636 -0.052947344717778566 4.6634634242011765 -0.22339929702938943 0.36573865336197015 0.20918212498874297
Ni 8.64844926578479 2.3941329382442094 1.482403526458597 0.08215703041572948 0.09354778875117438 -0.508332291797202
Ni 6.754922892148283 0.7606210968140888 4.801665320694875 0.7303383080234905 -0.6027977072666393 0.11333422734948222
Ni 0.7112000168489953 7.375040702645473 2.4413810864658574 -0.026770069004992608 -0.5681911729363635 0.3565526159873279
Ni 7.7271786753571625 3.8327277363348546 3.681236761027162 -0.23849218680676992 0.2434407890612969 0.3812372632182015
Ni 7.859834258562326 3.809939996693978 12.525358439845755 -1.1130151319016959 0.13296999930253875 0.4633127896637182
Ni 7.887787460424299 8.752762654351262 6.958526234655353 -0.05242042258324521 1.0042883214172382 0.14499607722913738
Ni 6.791126359414178 0.6715236582579199 0.4832466311536184 -0.29157981066036887 0.5391443920820521 -0.9455380999612232
Ni 1.781885446717866 6.699758288603201 9.235516259776245 0.08633661571471582 -0.34117073421461885 -0.3804178526406997
Ni 0.46502639041892657 4.904710411882368 1.340560476647925 -1.5414239105993777 -0.5534327836802663 -0.0166589487129197
Ni 6.293794571205837 2.0269237570205307 6.985139673023553 0.769912727882003 -0.12341809394804551 0.3736674212907436
Ni 3.4403968588099794 4.350612817303841 0.5387468540479174 0.3677328009738635 -0.2301952369053003 -0.6276451053276223
Ni 6.12425704496143 5.906475368060099 4.667938650402185 -0.16695664066062857 -1.415666112774562 0.8067324678135138
Ni 5.270852124555978 2.8170404572880043 9.238071851855858 0.03935124810411287 -0.3398319607985373 0.0687574691803719
P 0.3845636868715771 5.475887503261996 12.414709896824935 -1.0789199899901998 0.17445294903767375 -0.74512909317942
P 3.9480052933986434 6.226788303829906 12.716282427100483 -0.20709696032494007 -0.2027494819895218 -0.4251463058963259
P 2.349534464076079 8.481100954702388 1.4475153975586355 0.006340083285414887 0.45594503644473733 -0.5872404762583306
P 6.3105483996357306 7.697488575515417 5.845088689356226 0.052605542010857785 0.8275825717896458 -0.23262775760619292
P 4.784511643875889 1.0293291652629835 12.69873885287041 -0.15541907233467428 -0.5725489356844269 0.47943283515403234
P 3.8604819186366437 6.11962531701537 8.391226435227143 0.3988979137227581 0.43828104350607094 0.10985063967625597
P 4.752514726404757 0.9824691051836907 3.786337181490719 -0.3628523329531106 -0.2840739892016269 0.3911066998131135
P 0.36594812091961404 5.526411332517371 3.6724717586698596 -0.4812169236376487 0.3180572881256071 -0.49854333073123824
Ni 1.6068748825684451 1.167521110778674 2.6971031286128553 -0.3470426196143636 -0.3264987340247409 -0.884231944852574
Ni 1.980425550687024 6.447690969288642 4.934081175793457 -0.32559601970481344 -0.31351646283246004 -1.016412358374282
Ni 5.928286102587354 5.564813061288916 9.168110144011221 -0.6939340583628436 0.9734399685778139 0.377531275121524
Ni 8.399955252209867 2.5648374428187757 10.448388500514284 1.5022019889842773 -0.7694291033773651 -1.2821613240144756
Ni 2.401342874128996 5.21141764681062 7.1155553815423005 -1.3883304010740862 0.09613586119332476 -0.23795456913574503
Ni 0.7241579994855936 0.11748034174126182 8.972843007172697 -0.6829914433084109 -0.4783874246086536 0.46116771829625736
Ni 1.3954346925620145 1.1557789567279169 11.323144601189842 -0.49003812147370435 -0.2707775292030369 -0.001741665281455065
Ni 4.030779337747202 6.791397749723517 1.6768763943251201 0.6057776158305697 0.3812647740220272 -0.386650720924289
Ni 5.49388972711485 7.826797011572061 7.985783787223712 0.19674672743886762 0.02623630798870965 0.544704659778649
Ni 5.301926314975353 2.9771788324856185 4.781593293416123 0.10584254695812739 -0.2417862841770094 0.10402066325804021
Ni 0.7090777446299601 7.37316810951103 6.797115038906936 0.33537083970339016 0.0942720685117086 0.4266010360649814
Ni 4.922965933357274 4.722173289820597 6.967185394792013 0.7382560202086704 -0.716266917532089 -0.07764860102241465
Ni 8.248248069289067 7.403989002308357 9.14737592437768 -0.4457572972784581 -0.9723336228875125 0.14124226661366
Ni 4.709282250126969 0.2501748242240979 10.627330605611672 -0.4068760468322283 0.31095770096634834 -1.169008359437864
Ni 8.126936601014297 7.42155700166627 4.490334499529842 -0.2514739437784185 -0.36049463135421145 0.6182310111025741
Ni 7.191752734061197 6.058598682788553 7.079092284213805 0.02929772052285277 0.17041066064750005 -0.30256562024791117
Ni 2.45713167538556 5.174454286678575 2.611702930704255 -0.37010747185362713 -0.119234137773685 0.9319696172481691
Ni 2.3010098767661704 5.261425834478251 11.361249609889843 0.36686633920851014 -0.20754536071626836 0.3704697402890523
Ni 1.0892521455651525 3.2474473952132157 3.793619488124663 0.31318453341433805 1.1794706924217688 0.4035840063445178
Ni 3.6515747048507157 2.6028954105318234 2.71938608227836 0.23725934284093333 0.6661774570748656 -0.25519818670754113
Ni 1.1173048572072155 3.242055774401004 8.202208512578345 -1.1442576348557456 0.30790528729326966 0.1390699415526895
Ni 3.704613417639305 2.653220220227017 7.158334636003492 -0.30042311998361165 -0.09072214637692118 -0.49259431223665484
Ni 4.047144173400375 6.783699311281919 6.09125146017392 0.8082262787502209 0.6266842840762498 -0.08530997422241436
Ni 0.9738479396903381 7.589547603147441 11.428682864685802 -0.4793888692899744 -0.40293454568597703 -0.4841389823804501
P 0.14975769586537702 5.572629102197895 8.034467590181766 0.3358552355389764 0.7831742208775996 0.09963179016172519
P 8.411751684322493 1.631281917721714 8.16115077731273 -0.2607697672580476 0.5184642380248813 -0.7346927283374444
P 1.7502413366488763 3.3032000110952007 10.453869680128578 -0.12192454012165453 -1.0655592524125777 -0.197221353082441
P 4.044674521585385 6.049072882930735 3.887863391580274 0.041072344560277654 0.8482138748867522 -0.2516243533133537
P 6.780949222813945 3.998013481066275 10.380453173646048 0.1844591683207662 -0.0674804022401612 0.8480413538646299
P 6.242167088025813 7.637212787811108 10.192123677748608 0.4583227926482945 -0.3583048227917442 0.05785804865904875
P 2.550010485585193 8.446833404976449 5.790208141001585 -0.8996392805465796 0.6200888902469192 0.6052783075966478
P 6.981759959037911 3.9222593993859665 1.443688794196948 0.7658771243600487 0.49206903586080414 1.1121327292967427
Ni 5.445781271612597 2.8749641956447056 0.40619711306339584 -0.9246928810810979 0.3040301206085796 -0.1341056555688787
Ni 1.390079257124381 1.09799995986953 6.92140094497207 0.26791666271547404 0.0591320302754659 -0.3745462243512711
Ni 6.833698452605906 0.6342436760983127 9.388123553889688 -0.09133381181899108 -0.002471858579260259 -1.0701070196842601
Ni 2.691124400098106 1.5906638347572304 9.217496847870466 0.92583702198787 0.17014120903619728 -0.04637524483042981
Ni 6.329853296973416 1.956289905843095 2.701736665827646 0.5343001766158733 0.49367571822629175 -0.9992029364745306
Ni 3.9689475789360107 6.93445662812003 10.550576902958628 0.49294938158322854 -0.22171419601748268 -0.7268174393544257
Ni 8.237600522819314 7.026874074793786 0.29817562823698124 0.17060452182586103 0.16039004318670444 0.1661518853711461
Ni 7.565782858392942 3.9249190244174934 8.276062862093276 0.5333825498976105 -0.9716671929481073 -0.43720272284022765
Ni 3.1296278155852795 8.473538211415459 12.408499581912881 0.3937281965963606 -0.08251827040989014 0.5797408254471758
Ni 0.18457797718800367 4.873934750803264 10.082017915346466 -0.3353338158178677 0.12594908790001536 0.5530422331100668
Ni 8.646178633529981 2.3265386585313763 5.7780661385617345 -0.3184702072933096 0.4929712359600994 0.3518734653441037
Ni 3.5672537357389222 2.3963311997498593 11.528328339931635 0.41253298800768956 1.280770614314536 -0.4979419497018133
Ni 1.0792921212123916 3.1446176070044665 12.570255443354158 0.4097968200234491 0.8435077276603343 0.6979778894149141
Ni 3.0444564901708895 8.483851043170361 7.991609632530867 0.1210429088476496 -0.642746479745435 -0.10290403315509375
Ni 5.695795070919819 7.8909355880126375 3.3595777293230307 -0.38534254363582665 0.6304967158438045 0.1419392926806846
Ni 2.920747740830285 8.287337320177604 3.5480528713531503 1.3788581999175928 -0.08550692072456888 0.38512554252901415
Ni 3.269176712647668 4.079973354486814 9.18477984144522 0.6754784227608173 1.1453171864685114 0.2562145437871975
Ni 7.365695829660549 6.022286659398922 11.40230824978982 -0.05183112573867848 -0.1483606228259961 -0.423753025093225
Ni 0.5862627740414476 0.03864778931867854 0.2170724435595905 0.04989559927886246 -0.6215058251991038 0.8872902720629235
Ni 4.396731077204273 0.31764155049154147 1.6297937941921687 0.6565679590095596 -0.23656643053896675 -0.1258022779095059
Ni 5.989086578223053 5.467582959796205 0.2773979861539465 0.18083622685619824 0.8286107559438439 0.8310988124730203
Ni 7.800797819937334 8.54883092956989 11.513353927296642 0.5056244059477357 0.7968599458948082 -0.13001965842496319
Ni 0.03853290075439147 5.043617018545985 5.861321448392188 -0.0986822817642623 -1.0538553337120882 -0.4543031299659402
Ni 8.018507126089508 9.02713825709353 2.3579801305027255 0.23306458803329538 -0.4488775880749947 0.7769562649923458
P 8.648964907372534 1.6249404308268136 3.6110235648292024 -1.0498693524811467 -0.18319135735193612 0.8553474006077398
P 1.8394744703597148 3.210574498517618 1.5566948143715655 0.09174441699384844 -0.34893366598948933 0.3351486963902551
P 4.664267644151185 0.9301812389176072 8.13782116168754 0.7918100421757267 0.8042798925079633 1.0050110585158756
P 8.472307908679786 1.4639697920138914 12.419754138041192 -0.7432593869605328 1.059489906290046 -0.29459288645507975
P 6.399383494226205 7.718367536647273 1.2604207275686898 -0.21833293825007563 -0.7112339830938719 0.9615776699225892
P 1.798295514089263 3.349996746768981 6.092376825323315 -0.8734880760725086 -1.429460338345177 -0.27577498241762827
P 6.835480582303902 3.981476764883853 5.980337859284311 0.5171486045372513 0.6204899823400798 -0.13320371257989963
P 2.490856444492819 8.698529824201577 10.198677753719158 0.04326395289495775 -1.025420475410163 0.5953384227751166
