# total energy = -340890.3783598836 ev
CRYSTAL
PRIMVEC
9.09470275364667 0.00000000000000 0.00000000000000

0.00000000000000 9.09470275364667 0.00000000000000

0.00000000000000 0.00000000000000 13.31101678660291

PRIMCOORD
 96 1
Ni 6.4648965172321535 2.1342265524678026 11.378776103168276 0.13816979833592333 -0.7331109856726213 -0.7465457710212885
Ni 4.678560524941105 0.39502931272438924 6.097777027551538 0.038258786370882494 -0.5263320708087322 0.8782767557104036
Ni 2.8347823916358252 1.5041455630020093 4.86762574794211 -1.0761419130244305 0.3893935737767487 0.7092858582285656
Ni 3.663809998373043 4.278666455847414 4.704339459188231 -1.7595172220348214 1.0415811443304257 0.7992731833219913
Ni 4.627893937292232 4.585176119631712 2.603009355147054 1.7397768061831007 -0.8280199164373805 -1.141361030034241
Ni 7.125753979970931 5.916877028458477 2.6961600266020986 0.24403702788439904 0.06733050692585824 -0.7094810049585072
Ni 5.084238824827237 4.498831014060288 11.619439211354548 -0.058789302224066496 0.1184761765617379 -0.6623377716138013
Ni 5.6940295330069715 8.065764241362464 12.567396423793934 1.3271278614228368 -0.611844905070572 0.31421271756853625
Ni 1.843987311462868 6.74546808947551 0.5214102081879518 0.6466697260592411 -0.7353650718141206 -2.507416421760211
Ni 2.7974941113700957 1.3210419174922687 0.3408776350760459 0.9796322134314547 0.9524985904394564 2.236245513773497
Ni 0.4306578097831688 9.150180189109914 4.830421138939417 -0.2913129301522273 -1.0062264189802155 1.5447609453924107
Ni 8.43525471998583 2.3892874841878977 1.4494363800901806 2.044959552338885 0.11221194081958094 0.5539758006679298
Ni 6.896003605319012 0.782308119975009 4.888217973351297 -0.4514024113793775 0.5644695011104022 -0.9313044728603446
Ni 0.6248106093648202 7.316215239806275 2.3289223057889332 -0.6916982270537895 0.35642148972610227 2.4294826853972094
Ni 7.789740020371026 3.7290281100280542 3.848347878467638 0.24355314626944508 0.03973254270293157 -0.2704268307318375
Ni 7.587582973115748 3.602266146529581 12.732453451125313 1.8781571778679331 1.48014089541918 0.011311568358077293
Ni 7.8380328906663985 9.251586122027692 7.013827295196715 0.42239728239627905 -0.7474258596333967 0.15678587077521383
Ni 6.833559377927671 0.7999773079994628 0.7274870722223833 0.057559543582023455 -0.5079754226784156 -3.034720112453593
Ni 1.6904687331981079 6.274762666686947 9.232574555913672 0.8725149135259619 1.4908868210817743 -0.6770917899945242
Ni 0.10181519453044975 4.9696546679814 1.3142681830674112 -0.6109126230642897 -0.8298942506419579 -0.6407613309946062
Ni 6.2653951231079965 2.2860444213643456 6.9853154028471875 0.22052068993001378 -1.0342357597089478 0.7879824408995203
Ni 3.332198955678156 4.416651282235621 0.20579674719731336 0.0311712833964818 -1.1961013589999143 1.4782603905670153
Ni 6.049877957874583 5.862718075048131 4.866640791660945 0.09723115114003254 -2.3264650094823867 0.20604255091849677
Ni 5.26111259912185 3.1012026067832124 9.18965938320882 0.14832617004363485 -0.7739935828195961 0.32745389884915865
P 0.23484795540531833 5.52559564263592 12.401381724288902 0.3611507768809716 0.043526976748357295 0.6256098200651483
P 4.168911586031115 6.187489901460132 12.74745425343514 -0.3352739091142097 0.8578339144750194 -0.6648183719438099
P 2.4697028437268203 8.479309458914415 1.598773214143677 0.2517549653539471 0.7840352833263142 -0.7345070946891995
P 6.525330815370148 7.9269972705589264 5.7915429332531065 -0.208746323002905 -0.9957514875908205 0.6278132554743704
P 4.971291714432091 1.2048479983032536 12.737564673932468 -1.0548140980809317 -1.1199637953053874 -0.04085560056378125
P 4.066696224590496 6.258437675692561 8.22540992070406 -0.4653179930192051 0.15951072590554466 -0.6595285842997803
P 4.677332740103087 0.9474770121471839 3.9876214242006394 1.977970487912845 0.3746398125063419 -1.2707638808108115
P 0.48978519917136115 5.370367260300437 3.435240116106123 -1.5410984089391588 0.9098033655637752 1.2467466919606076
Ni 1.2415178387987222 0.8431353092611684 2.8534556348167026 1.8951118034444008 0.3615521260844483 -1.8258586255745328
Ni 1.7117412423545812 6.780610019950334 4.766248918072346 0.3540578745899322 -1.3275050422565977 -0.8102271112303335
Ni 6.0738152148646805 5.740648978041637 9.168627883668696 0.17758840934286188 -2.035853476272558 1.9772104698183692
Ni 9.017497574281444 2.266536284493616 10.36586088756549 -0.06675226582488504 0.02567683594081384 0.3289749634793753
Ni 2.504990289441706 5.451064555616979 6.825064016318837 -0.800224491491667 -0.7086369117906569 0.3133318576254797
Ni 0.9501872334933272 -0.14336616185972761 8.73579371157636 -1.8457826181919694 -0.5316959062238069 0.8209290710288701
Ni 1.557667887237087 0.7242275308450083 11.994477458505253 -1.668039428438798 -0.5648695647622981 -2.612035380723882
Ni 4.34553070865562 6.92544315732393 1.646146610015911 -0.6004559465073401 0.2946137123906862 -0.42012776963581194
Ni 5.691055565288216 7.709561123097203 8.421067893550095 -0.6900347233084374 3.898790494756627 -2.574844630606198
Ni 5.387474395710154 2.9794700137693604 4.865150169920566 1.0753458994856966 -1.1563065956004794 -0.5619940429867161
Ni 0.5404890751005 7.49044245567227 6.747314314083789 -0.4230973937870972 -0.5610926142183692 0.7355345075124493
Ni 5.355597463434207 4.6440279395340385 7.144369017055783 -1.2977375811861778 0.47323956185912686 -0.25576125829986274
Ni 8.292558837700636 7.431481499339898 8.99404051758355 -0.7818400754472083 -0.8225295827467706 0.33758301686336056
Ni 4.76642444583067 9.678400510532738 10.496428984061817 -0.27965657686022155 -0.8923802849913213 -0.18655230340436904
Ni 8.21526296112053 6.979965898834431 4.517612484200961 0.41829071642707316 0.8001766689728671 0.5381015526398346
Ni 7.329257043196776 6.085574665202141 6.976343478827152 0.6520803555518512 1.5898694076952748 -0.49041324542493603
Ni 2.3092904809641515 5.2721080944489875 2.353347948303487 0.7501946806277855 0.11176174065603979 0.6527053907303597
Ni 2.3555916114111835 5.0903777490173265 11.53464839044103 -0.901133605703919 0.9026844951308067 -0.3441997508489298
Ni 1.4177276998105546 3.2765393763546764 3.7193377045102163 -0.7661231789325837 0.17170212576541397 0.30371644602290276
Ni 3.557401979078156 2.255086054041286 2.6786954693839817 0.022072663529323275 1.1567997331868143 -0.7002222053644006
Ni 0.9201383364206515 3.4758679711312612 7.936800450387811 1.1695914856348437 0.43050782731855536 0.5367517234801594
Ni 3.8296337091254937 2.865795327173908 7.096954695022282 -0.8134152791503282 -0.73924692336703 0.1465539086345605
Ni 4.245016056583219 6.976391680750423 5.913352831238241 -0.5824561674958098 0.7913320740980436 0.812983076708916
Ni 0.6594586974936862 7.32668324238819 11.112382262658151 -0.04224733870498531 -0.31769347702828515 0.8033226708010165
P 9.357175618097235 5.528669652082216 7.833213607809615 -0.608839542585345 1.4378513906223496 0.3293531727544005
P 8.849327430283003 1.70069117881242 8.223838356111397 -0.6128694896803445 -0.6312605905930224 -0.11481364010848613
P 1.8699163083013062 3.398990450866331 10.263898358854474 -1.2620223871727556 -0.4497131966024126 1.157632770611071
P 3.9901824924257197 6.241921695945594 3.794198929230046 -0.7066306799939056 -0.16727365768041516 0.10120864773054182
P 6.873794341804643 4.09422588906961 10.38625302951959 0.832028009155509 -0.4243024698387918 0.6206370494409054
P 6.290387365588539 7.67629270133817 10.418039924240748 1.0937506272451292 0.7430788955186106 0.7459857847527603
P 2.318030490070339 8.498963111025205 5.9172926563629025 0.5782575560334299 1.067500949519981 0.6644093094308493
P 6.979602110734278 4.011073024077032 1.6869454454481216 -0.3446193548848517 0.36522726094319036 -0.38461954942687304
Ni 5.461705357546467 3.073954878081718 0.3408103342775175 -1.1500156203854452 0.03007445078787724 0.2513752134170251
Ni 1.579376942113745 1.3149484668146982 6.969661600897584 0.5304471214183702 -0.16711373506378316 -0.44573055780558074
Ni 7.210434754984152 0.7075041918809538 9.283289345485816 -0.939007240821241 -0.07825615269942651 0.4163778156750765
Ni 2.4253025061030904 1.4912856536615844 9.449384078372882 1.1955753112931151 0.4045772234957226 -0.14529715340932395
Ni 6.22901631309265 2.1593279313783915 2.4695127644444903 -0.959699993283902 -0.15729674897336138 2.354191785973694
Ni 4.066668940482985 6.853849659213729 10.497307532323687 -0.09907591765825519 0.4967672126674219 -0.1922113014623593
Ni 8.16034005269986 7.15405669416287 0.4796809846895988 -0.5058208382292578 -0.24594992863639578 -0.7327600300911058
Ni 7.587010006858007 4.091261016053359 8.198667857461778 0.7049028986695216 -1.310686170927046 0.6511025650196142
Ni 3.4293394731216336 8.311412155991087 12.5101852882233 -1.0916734330011262 -0.0593757708551558 0.058858722009421216
Ni 0.0224129848504547 4.82829570696427 10.217722735301997 -0.27911510253445476 -0.3801633134277324 0.17091022599173789
Ni 8.599896119412783 2.3658777199430223 5.997491561982233 -0.08035854375441 0.5492092325172219 -0.20494700386147285
Ni 3.460661628544847 2.5842960952751604 11.581981769622248 0.4520235899031441 0.1302690554316079 -0.21417417888669568
Ni 1.1439862491475796 3.0076635915312537 12.716040241516637 -0.2916237765244268 1.0238125074930948 0.007684256018135153
Ni 3.105495306365023 8.411508451748313 8.1354269341311 1.3726654408433199 -0.4579736368389919 -0.3964738776622978
Ni 5.571114628667621 7.766648570713786 3.6995176193436055 0.34804277874410383 2.022217373546362 -0.2174271386063546
Ni 3.091380328079069 8.396811412502114 3.760921412768508 0.8324100750852761 0.013634817174615227 -0.5638043567225773
Ni 3.2540663664676965 4.506625174106076 9.207429522431065 1.5069981248213402 -0.5792998812550153 -0.6298670526796055
Ni 7.330803142622428 6.041920093183725 11.58640088556886 -0.31267751187093246 0.0363307161102342 -0.32163754927769767
Ni 0.4244170249250362 0.0017134419517227989 0.741873072642952 -0.09432837567094077 0.5718531951689828 -1.0329766904908662
Ni 4.658852304615292 0.30629230039445643 1.595098954332127 -0.3213053627492595 -0.5634120063801652 0.5334689389638295
Ni 6.044311999942234 5.5577090371769655 0.4458614239588323 0.16029928324511103 0.5155434648336605 -0.21444774426305646
Ni 7.947624055837628 8.79816063399642 11.585150363974584 -0.4216326363161126 -0.13060612705605248 0.00454596749946959
Ni 0.1654917541110611 4.8712317974848816 5.608955866845584 0.35765664768478406 -0.34428228326040705 0.45350634509625765
Ni 7.815750869531998 0.024938583735770098 2.6394681985444337 1.8412165960878422 -0.06318023220291054 1.9017372791807183
P 8.752596174452197 1.7522490473066692 3.8017729974752412 -1.6776201301486977 0.48366641361940566 0.25533496939572153
P 1.8221054572386375 3.217087306087097 1.5462476693030196 0.42407929808439226 -0.48242971299882725 -1.0594014603412978
P 4.699887602312602 1.0469639628366516 8.292244160994002 0.3286222081256469 0.6556385052167547 0.02700146828950834
P 8.590555859941343 1.4786894906937709 12.589066371449826 -0.3808112314243764 0.7174429401180611 0.17448791604066724
P 6.483968108382699 7.857195428841981 1.7051412167475473 -1.1100485930742043 -0.9788457129744175 -1.7545015139877849
P 2.023171140193455 3.3664496053076043 5.899708958541985 -0.3192772765756372 -0.254953931907219 0.5567057980045832
P 7.044756559471762 4.107613291155257 5.92188457165709 0.20260241488869624 -0.08170528759029154 -0.3993370581427058
P 2.349479971328605 8.517952849853215 10.432708769909187 0.6762440972822482 -0.37729884739574376 -0.1791498402927108
