# total energy = -381166.92157065385 ev
CRYSTAL
PRIMVEC
9.32177091111406 0.00000000000000 0.00000000000000

0.00000000000000 9.32177091111406 0.00000000000000

0.00000000000000 0.00000000000000 13.64335398746461

PRIMCOORD
 96 1
Ni 2.9279682259981907 5.618837210263608 7.974636073272476 -0.076813506715629 0.06552996338200971 -0.3597744653587352
Ni 1.082583858409105 0.450809228209729 12.926832433802481 -0.7358021593515393 0.7575341517119921 2.079599768120573
Ni 2.992642672199959 5.120038573507998 0.20838725531794636 0.9985748159722286 1.1251060016279593 1.1018215771787219
Ni 0.5868856426403365 6.2767305102255575 6.477946527223668 -0.19536604504125707 -3.910994750132303 2.134229025429679
Ni 8.645019614004928 8.142930392137005 7.387412050350052 -0.6256532717085741 -3.0493208930859033 2.125676507873978
Ni 6.098721973951563 3.3649262348923807 3.1845229356853753 -0.7213435607240479 0.6478205518342327 -0.645152003863134
Ni 5.893018456463178 5.366385011930329 5.017466467889498 2.3265629685128317 -0.34553235361742424 2.0643418135202385
Ni 1.272216642941041 4.469257784709489 5.008652733544762 1.5376253627888938 1.6579375641181058 -1.4853864600888353
Ni 1.9832160714719549 2.1157902965918094 11.363972297329452 -0.21612307508295037 1.1239011826865806 0.3679572582798437
Ni 6.505095252665875 4.229800134950045 11.870809097094542 0.7062943797004094 -0.882614463853809 0.15861958154984296
Ni 7.3934879805942595 7.098714942572881 1.3605916915452305 0.8498982045677105 0.8467493745260837 -0.5435340365093155
Ni 8.33093186676907 4.929277854702437 4.5295798960984 -0.18688063327806523 2.073591871363597 3.3243204307900878
Ni 6.8091527744602365 0.4517740314933674 8.448032884444372 0.2584388051320259 0.284774100592445 -0.0848489754255958
Ni 2.8819652868218104 6.285660766705997 10.497674030684928 0.6618160947823764 1.0644611342523926 -0.2056877386822393
Ni 1.4612341905964545 2.7512833811858073 3.25194823646687 -2.3376017428254965 1.0384174018904633 0.6281729528066342
Ni 2.7542383825472885 8.521888342762617 6.591363581056516 0.8481028032301845 0.2657741624511745 -1.169581972553147
Ni 8.263815116602924 6.290060642550223 11.204386376798979 2.5569219846895064 -0.38461852098560856 -1.3524984789771417
Ni 2.0743084162807874 9.130879632811842 11.078648738425214 0.08249975846712888 -1.2637936201405655 -1.3049286996179785
Ni 3.553067536087292 2.592943781418837 3.687920934181538 2.123926872172723 -0.26629609639291557 0.35007317891057127
Ni 2.8663513206373246 3.223132778395538 6.158827820256606 1.413513328097617 -0.39805022101048215 -0.5408482621470363
Ni 1.107901788055113 4.060367627863948 7.28765232299893 -0.32297837957630826 0.3759847565700105 1.4575640385599284
Ni 6.989743441261456 7.543745605028723 9.04514823842253 -0.2911347527031502 -0.15325111814907802 1.813522472606683
Ni 1.6716918112216093 1.1132245192141226 5.618428916700097 1.8754366936129767 0.06318871684334279 -1.3377056369386833
Ni 8.12446396407046 2.6432720222725914 8.15909434280202 1.6724689249650617 0.6491305288949079 1.2036917697526623
P 7.924446726804482 3.5750109846832796 10.251984777107973 0.9744923211017281 0.6452281085167082 -0.14534831836223355
Ni 8.351971103591985 0.7222778390900834 6.692310902014745 -0.9981950640353068 1.908713453388235 -2.5462184822290728
P 4.980407767849842 3.450928892813614 5.309720763425473 -0.7099381471005838 -0.2858855884890689 0.04331280385502218
Ni 1.1550140179634059 7.349629048714854 0.9828614181414085 0.42499126837570034 -0.1914757088479154 1.1764475893247286
P 4.602232845976169 2.4365337882191436 1.7357622066718823 0.4681166388102647 0.2760364636091311 -0.6953779898982219
P 2.7460072588810793 6.476551990303549 5.776937240519569 -0.032377387889441014 -0.5747228034072941 0.36271092227923984
P 8.542191159687876 3.2338714584221213 3.426719321722433 0.7770997325487455 -1.993282435679567 -1.1670347806512613
Ni 7.8649831505114465 1.7616282564442474 13.063607048870232 0.33288689693927187 -1.812962229227839 -2.0990424502262175
Ni 6.655725747934595 2.7005822694977963 6.547145760999138 -1.3259001596633229 0.2249483866840642 -0.770004773375177
Ni 9.279077145887038 5.213852875406903 0.6219578733104912 0.4730806676837594 0.6292309617575034 0.03223392033304126
Ni 8.89336091139053 4.231487375475055 12.249384855115041 -0.2997345785570193 -1.9055471398451118 -0.2344920645084413
Ni 2.7846459990808965 7.805892445052668 13.035979184406008 1.074927066780723 -0.08566144402456215 -1.0505591794593199
Ni 8.003858892730234 5.0938443974014875 2.4128275927542093 -1.3497204020113722 -0.3454763035685082 -0.5080019050409766
Ni -0.027015424118960064 8.860566921517684 9.488993171625438 -1.4641337213576462 2.071624977445213 0.0674955717488128
Ni 7.247742093254298 1.827747577128759 4.453258829388633 0.8871208363645948 -1.252373551229082 0.11862710031730538
Ni 8.43291203993819 1.6723256916398452 10.700700335583354 1.0017385584121907 -0.8472042026753152 0.08690971460936645
Ni 9.214700996352676 2.824664361367462 5.776528014778973 -1.4072994859774215 -0.8309188352517303 -0.5139236698420504
Ni 8.954642233000566 5.709603293092466 8.764531241623697 0.07866212988859356 -0.08549946452540114 -0.08043002042229375
Ni 2.4871230386568777 2.7032203306501605 0.6653553775325051 -0.19197013198583068 -0.22183838030017278 1.3754350331686571
Ni 4.378827285631462 3.0765106445950745 12.88449667928101 0.7595529819142338 0.7711319450010848 -0.11890503656904039
Ni 6.552720179971271 5.917152521210421 7.518320475017866 1.3099233246190924 0.6854067376181229 -2.914507927037355
Ni 3.7923201068878956 0.9153037482137527 13.445429579680019 0.14229410491694203 -1.6672776105721094 0.017362659648163643
Ni 0.9901118915135239 1.3829499589443284 7.636922297801048 -0.6944454507816235 0.2870700957154734 0.3845362456844474
Ni 0.21065244563605384 0.6290554696405612 4.085242773394276 -1.4732876199427725 -0.37385434049056904 -1.4119105023868717
Ni 4.271002362135374 8.327380272072778 10.89016626041696 1.0830779780226316 -0.2475445268170253 -0.029355313233665574
Ni 1.6351225041519155 0.8754224159587765 2.061551572863791 0.7035828943065173 -1.746717756277308 -0.640283105806607
Ni 4.353322920568325 4.1170999252960545 10.329301408945204 -0.7864971146032455 -0.7200713788798437 -1.8980541739021763
Ni 2.1364286972679 8.174270185756255 8.697802277125176 0.5637722179330613 -0.1329787410532871 0.4389402743566247
Ni 6.784067889085639 0.0752238942799669 10.981794607050036 -0.09572911267320933 -0.871177682771777 -0.5877027606067298
Ni 8.864043942047124 9.137554020745032 1.4467956997169622 -0.4102863580653579 0.31604514279158474 0.12114292476062363
Ni 4.386769434401122 1.2814451960888866 5.81711686944195 -0.03653897546629836 0.005485705704919585 -0.009156212577971327
Ni 6.3486200070701875 6.974949790912334 11.777994089031447 -1.428557109804617 0.7501602278454241 -0.5983283586413759
P 2.1873348879147514 1.0616285175238966 9.234162989546688 1.4890837064347644 -0.4329912558620414 2.041478792879136
Ni 5.9528735471321825 2.6989696031396377 9.151525490904618 0.308695644405049 -1.450036876944948 0.9537784855931444
P 3.0493097172360715 8.702740019147816 1.337754285124113 -0.002334047449815335 0.6908567049891006 0.39126456554721645
Ni 8.967935078241807 7.852230967979879 12.936055393887811 0.22002909500557588 -0.016391039763513707 -0.32675558723055337
P 0.8143247332346123 7.156612461362041 10.149318521603824 0.6029617436483292 -2.3605933186246633 1.4071393062504733
P 5.964507117160982 9.094198464491871 6.358430238719472 -0.22033531339208504 -0.08265762420123184 0.7371550738350079
P 8.133692517218304 4.733315587758998 6.791866482584111 1.1046248509554717 -0.9564609175213141 -0.4857137830667377
Ni 6.054872363843015 6.910377884189986 3.2652093876871984 0.26631280856346395 -0.8280055182596773 -0.980528242883163
Ni 6.929161252465651 8.712313477817348 13.348862558847218 -1.3278912219514227 1.825194766738289 -0.1185725929302861
Ni 1.2202664139582717 4.755203105729847 10.66155821975729 0.0059238216836027015 -0.3412836056433994 -1.0749247527878778
Ni 6.651997039592031 5.072180601931192 9.476400391375513 0.7484370745067305 -0.9984714576251448 1.5636279575002425
Ni 5.4321314617805845 5.056510705121568 1.4314334213455995 -0.5192124290448155 -0.860984030068227 0.6298863359533151
Ni 1.5205206532432183 5.2116902245682155 2.5226016985363717 0.1437784027719524 -0.0921575932718671 -0.03893832893641036
Ni 5.277483283272753 8.751884395102806 1.7971842870218497 -0.460011236094311 0.2292884088203148 -0.45564550292644757
Ni 4.609326713597897 5.328650483503584 12.059796815083216 -1.3141910987565109 2.5477349188735996 2.114660102158816
Ni 5.139315995639053 7.002952390564988 0.10071054797847581 -0.8322660933082441 0.49296660797440905 0.46560132858757874
Ni 4.910475842885059 7.375021552527713 7.425640632632187 -0.9616907984616857 1.0913872692192752 0.26135392189629186
Ni 2.197113425543125 7.238140669272196 3.7562877338195304 -0.4987729302435409 -0.019951760531578544 0.9607531171387648
Ni 5.064946907746618 4.225036710042419 7.805376018947222 -1.2990359882826275 0.3742885998145102 -1.4644360830894134
Ni 3.276677030194753 2.809628344976073 8.47205881664968 -0.41299527235608874 0.08398971274909406 0.4805800613845982
Ni 1.2430767872439055 6.060017981355752 12.465523162900093 -0.07248171210949451 1.7697126745105844 0.40240104178001024
Ni 4.287324782904947 1.6798203954083986 10.807882989067433 -0.09866916913813974 -0.6658247017211372 -0.9049154413438545
Ni 9.124382358524924 7.120966009607131 3.103317261046851 -0.019668424963204836 0.24737997621470295 0.7938227017303813
Ni 0.896608004584138 3.048340253067005 9.361973789758915 -0.4719591524848065 -1.0513708767273378 0.0005286188099603799
Ni 7.509422844735424 7.857357941950903 5.239784177575261 -0.6334714822014123 -0.2080035312996095 -0.10265849280319093
Ni 3.277189727591856 0.09998717856001844 3.5975612805620196 -0.05092866852906713 -0.22221504691330116 0.21546512978397733
Ni 4.606893731404374 7.344008020888439 4.888304943080175 -1.7743494019516475 0.4851422268339838 1.54759147286267
Ni 5.618501626512777 -0.011870343008551722 4.108927528786241 0.5226037141145515 0.84064763250372 0.36587492182951825
Ni 7.512657499222597 3.474065528079222 0.6903479773756244 -1.0917683067077777 2.247032319976356 0.4814740339537773
Ni 6.8897301617430395 1.3242973767158006 1.4218422513114397 -1.1610862763773102 -0.2139507500219799 1.6952062186615773
Ni 3.504985842009932 6.742781765962602 1.9619139607108884 0.8865091709225248 -0.5436674767633862 -0.30742191989894796
Ni 0.1548961376126123 2.3176159574039294 1.1997911442721685 -0.915045844909637 0.5778410373213017 -0.1239557116190704
P 5.057918292520886 6.323441903987025 9.885183347856206 -1.6934946352871094 1.7007176353981097 0.20987066641533533
Ni 0.5898900493873572 8.038181653023534 5.600965511177701 1.0396386758920741 4.4984072331921245 -3.541959685407248
P 1.768451792711139 3.9176792813648884 12.741405632280955 -1.2109813614355402 -0.705565729064501 -1.4731611216672371
Ni 4.501063666871557 0.6993900951063414 8.295418716337407 -0.9112915200735273 -0.3822914155143287 0.12136558229439097
P 7.3884821896443675 8.619487283629223 3.1050231451135737 1.2071450184085857 1.0397111810012223 -0.4594216821394282
P 6.929953602988446 5.630302988416991 13.628168914663641 0.345769666439211 -1.4292981017356996 -1.6009778589036106
P 5.7143853615418045 1.3022793539529616 12.332200399580469 0.673904136295162 0.0067031230517884555 0.7996339090955196
Ni 4.162692706554753 5.201948974023267 3.7464514012118473 -2.1645788413661298 -0.6508701372938338 -1.1666881959451196
