# total energy = -340889.8724885566 ev
CRYSTAL
PRIMVEC
9.03143050218373 0.00000000000000 0.00000000000000

0.00000000000000 9.03143050218373 0.00000000000000

0.00000000000000 0.00000000000000 13.21841145093455

PRIMCOORD
 96 1
Ni 6.566960746790802 2.061712988309953 11.302310385160835 0.24751007403466407 -0.8084270819071174 0.21312671145878778
Ni 4.60361809809883 0.3241470675017414 5.91350785875851 0.639127652045925 1.7388776914075987 -1.1158052930523237
Ni 2.725369586377169 1.7041315655689748 4.450374593823217 1.2633277362477404 0.13923963436133438 -0.5509611822113221
Ni 3.200648609733418 4.220811890327278 4.158512180474285 -0.12999600427587935 0.025473975901388383 0.20854114897063442
Ni 3.8013832323949726 2.6487469310963254 2.328859086158286 -1.0075708488232518 0.837496488469248 -0.6058591198007824
Ni 5.315430282912565 4.375267412558889 2.8693206519424503 -0.6982805082569974 0.848221845306552 -0.8155577794146278
Ni 5.133609526652081 4.535412735925218 11.271246780394396 1.264722816823054 1.373321329259764 -0.1873136070504258
Ni 5.520633412407621 7.982059446146569 12.71884779137495 0.5720737958202212 0.4548134939434554 -0.8981349280869113
Ni 1.9652844062220731 6.394731369585982 0.18098896152317145 0.2520922940887078 0.5035821787067262 -0.684725395280382
Ni 2.820055102403144 1.717154888166214 0.18411112700296728 -0.5347529478825759 0.3573972233758103 0.4819178063594151
Ni 8.265510888389532 8.875809795815632 6.80688701663926 -0.819071448994841 -0.5815282563649017 -0.5765917382952328
Ni 8.74715707015844 2.624488509115615 1.117197871659738 -0.032451949881118304 -0.01642086456018462 1.122080584538074
Ni 6.801407647832225 0.8728552323590955 4.727723498563436 -0.06956710956586083 0.8241174960591807 1.0504753614962619
Ni 0.6963007031488536 7.395133880524669 2.272244661724823 -0.564919444163627 0.39290827179822657 0.0296666738264973
Ni 7.525168415028864 4.022084296409351 3.601263895056633 1.1622625560735984 -2.0232684405186965 0.2747892214655913
Ni 7.636598202965574 3.8223090565682063 12.340285452735467 1.404971352064877 1.0132419310661 -0.08344078222415953
Ni 8.095440023043755 7.459455727638079 8.936637382517898 1.0754595422454252 -0.4733079532032172 -1.349757425896895
Ni 7.235494317259204 0.7579664065896923 0.42201525959100805 -1.1780463012704163 -0.26767266502546805 0.0060420924290218525
Ni 2.129819004749468 6.648324903017243 9.067090072248343 0.4236193277288381 0.2534691198315764 0.23230791237292894
Ni -0.05091197929622514 5.101791797449533 1.1680674032332121 1.1820695634971965 -0.7997154130657324 0.1014819559965865
Ni 6.536055192055884 2.1363396974784603 6.974337864033957 -0.8451555476764026 0.006650672547298224 -0.42699312929707756
Ni 3.364298128084302 4.232570812672358 0.42823791511770554 -0.5612378815469818 0.49368497419767227 -0.16992857880475898
Ni 6.443835256521619 5.706635720930604 4.523670973297845 -1.4380802188037038 2.412609306680638 1.3527962127232185
Ni 5.322303201426087 2.746358630563011 9.347056285510531 0.6209450675996273 0.4271198846829289 -0.623481717978552
P 0.1834418980123602 5.618434771912131 12.332737886373113 0.9264157773094754 -0.2698303347984192 -0.4019955788114754
P 4.102310492408848 6.119408214678328 12.6766014695212 0.23722540427920433 -0.02657775048852842 -0.9071990951717085
P 2.2635293314152976 8.592421573585279 1.300733696547973 0.0019226709440095919 0.05322183543861801 -1.8893070238371656
P 6.353502889935221 7.9829354948927085 5.77240079061755 0.8628005144516754 -0.4084701307922255 0.11722070688808199
P 4.8385436649499995 1.301149142345111 12.561019933042223 -0.021171234760976442 -0.586957654910589 -0.12035488164168949
P 4.135500999028026 6.196292781439977 8.1714106090517 -1.2205024135520979 -1.0359486286349966 -0.47836994110715686
P 4.846825486601642 1.31103855860307 3.6001530291208077 -0.15036582618148298 -0.8305822778479179 1.4553372061119387
P -0.040802196137175534 5.606504252389972 3.4732831078191593 1.6161080296768295 1.1334384327530544 1.2482438453314246
Ni 0.7173041976232915 0.2090821288400731 4.567252140560659 -0.07790931088296905 -0.29837960719102163 -0.12748197960477398
Ni 1.997743366981073 6.542124313266248 4.405366460561538 -1.036823317930466 -0.25147934309505726 1.2213655328833417
Ni 6.146249625745593 5.54495505440094 8.926261172162857 0.44119204650527893 -0.11066722204028036 0.9392584376000986
Ni 8.748159558929794 2.2372839947526226 9.97860524546024 0.13437947805555567 1.5840743982800527 -0.8475533584846178
Ni 2.5787172199874537 5.255145485175691 6.699289264609629 0.11346638205197233 0.6980995025944429 0.7210962205999323
Ni 1.0317686686226055 9.209439865208566 8.645554381610117 -0.8719906655913756 -0.737433267197059 0.6608334191541329
Ni 1.6605639454517198 1.3583632537553123 11.147972271524065 -0.16024220475493048 -0.9056417779869178 0.42626679265401424
Ni 4.1206352646347835 7.396786632282848 1.34049185933408 0.12770103759411555 -1.9421537353245517 0.39087864296270747
Ni 5.550265535460008 7.667287003371552 7.8287364652836775 0.5109625303311974 2.1804592600418125 0.9983791550216548
Ni 5.191320366732773 3.012677449389217 4.939086063572582 0.18419254492294082 -0.3303972977481987 0.12179572785327411
Ni 1.1935306180256227 7.461018165092532 6.769544761477815 -0.6451502040909212 -0.3530687712037855 -0.043578141701266886
Ni 5.082130373528458 4.330245732151652 7.095180208704955 -0.5896575703402555 1.104903558538155 0.32539804476139444
Ni 0.987695288404487 7.431891802141009 11.459291998467652 -0.10064686168980087 0.7383853466976831 -1.1942180259342723
Ni 4.96648290760776 0.4827145999819822 10.47596069721919 -1.2531744498638224 -1.0468164245874358 -0.11926550523225266
Ni 8.373210695582374 7.480914406203293 4.81105199089591 -0.6199472224627323 -1.890665594747589 0.47361288603814566
Ni 7.221929108839611 6.360827379967372 6.894392545519046 0.8538409912655425 -0.9890005420202321 -0.38106088554133727
Ni 2.425950575235512 5.73309781192222 2.288886878472349 0.23361737521297188 -1.6046596786305718 -0.16675892282752572
Ni 2.553393089222781 5.136346050054968 11.071159956205397 0.662325173208311 1.2274451634185184 1.4140144361037519
Ni 0.8220516302273411 3.4339665819782708 3.7592633505664397 0.8058600925108895 0.36138628993054533 -0.20065660401623506
Ni 1.3462701684864473 1.1657138124781217 2.399155224463148 -0.06583978131294467 0.9933238519859344 -0.14624563336552232
Ni 1.2038354800807198 3.4715283008977695 7.977853509022067 1.0390614632323654 -0.520299234351091 -0.19698558292255106
Ni 3.6850042206140956 2.562632242493915 6.945019131615498 0.32015376564331954 0.03432345587221831 -0.6009439418873522
Ni 4.258527143563111 6.967053112295445 5.635220588402581 -0.042805268090984346 -0.8583885014269087 0.5597494699269134
Ni 0.5253998493518376 0.10020462312664932 0.15532434583345264 0.8605220028301438 0.5662327636584119 -0.5578303985273296
P 0.47367233189296987 5.686703354098353 7.954271541176261 -0.48443234525115286 0.3530260908913081 0.018273344387891112
P 8.641426114786817 1.664528743385276 7.694569148240996 0.47046791265126064 1.0090957701082104 1.7203197258997531
P 1.8947399035819656 3.269431983450876 10.145143918387308 0.04944231379152775 -0.9730350198299115 -0.313906242071711
P 4.099050146044353 6.114296425087456 3.610675548647883 1.0382451379786568 0.7294849588842599 -0.23419381654173213
P 7.021133317366366 3.971156060538455 10.15795229294168 0.6704727420161098 0.10746388461163427 -0.21134905073307472
P 6.5173962569061645 7.882063449061526 10.287717690820774 -1.1423287932641488 1.110807582727416 -0.06634757418729864
P 2.5411735639287 8.439925871744512 5.349808422625735 0.6781279445685224 0.7383619496589156 1.0834844694324306
P 6.906181271584355 4.097677368627722 1.3516881235669491 0.7869848528729414 -0.6431717402083117 0.8536838968623879
Ni 5.4255685763059995 3.2854176152103163 0.07283487338259016 -0.28791573154522027 -1.210935081578637 0.48622877502994327
Ni 1.700573182002184 1.2439440623652822 6.473756385345928 -0.5794148095663247 -0.32886954824976267 1.7738043280814548
Ni 6.982542015384395 0.8604288873094829 8.964620366384255 -0.9278296269378665 -0.6631016463630193 -0.47692729512335924
Ni 2.943171561241954 1.5177589684007173 8.843778021713256 -0.9774727438862907 0.6541369809705637 2.3694006325036487
Ni 6.537229278004317 2.1218352203001203 2.4740772614048376 0.522454590131197 -0.22793909388127198 -0.3480792884089941
Ni 4.671173197285619 6.808587634978415 10.40505764679329 -1.4652819760294764 0.6154125678171724 0.3307819347811271
Ni 8.098357175054094 7.383952969723432 13.416687450259289 -0.2413553672871779 -0.5123563253549305 0.010336348929001553
Ni 7.973091235786613 4.009991211140486 7.8543405703899 -0.8654358951919934 0.24358914171370308 0.7963657798672091
Ni 3.0334407078157444 8.538512965691435 12.40895503043023 0.5410866034100875 -0.21092996091778513 -0.321196347975221
Ni 0.38202950475951236 4.742413120064414 10.11644654837848 -1.5035027100735718 0.6601011689737988 -0.33707599531995497
Ni 8.760044921300091 2.5618284451907565 5.7802391690379 -0.3161413020498168 0.7303066834546068 -0.8379955395928534
Ni 3.704783053130014 2.8469507020526432 11.225788881900163 -0.28429870361792325 -1.3729032678857387 0.8213584452568048
Ni 1.1427017278888252 3.5694561004274954 12.527842070425567 0.2643045198841836 -0.07089225613518758 -0.29086530109184744
Ni 3.2444058898884975 8.575288950168522 7.5460870140577985 -0.7818655293685051 -1.1212454902312883 1.1874362271257486
Ni 5.481202187401001 8.088801921719918 3.7952969514669004 -0.9260733063683922 -0.7122485404013152 -1.269791489595213
Ni 3.0625851336280125 8.48089243991447 3.187408532807238 0.5774576858399538 0.12923341507824196 1.8565809943590543
Ni 3.5907793075371224 4.1767746358306495 9.073791393584786 -0.49858086883739294 0.9379317483688749 -0.8034082885362873
Ni 7.734679536811633 6.349438746267568 11.029825808819277 -0.8687415625264587 -1.100468405584937 0.3268316918841274
Ni 7.751369620140134 8.64922023919834 2.981637326341747 1.1818355931095195 1.135025060513884 -1.4947403904999095
Ni 4.663866770114214 0.6758002593461676 1.5074405592000613 0.6839684625096994 -0.710276504276609 -0.8210355146997473
Ni 6.399951536341325 5.674131603019741 13.237181449603293 -1.3825729297650189 0.768013196866445 -0.259528695762095
Ni 8.242011106560117 9.102236786686218 10.688697845931038 1.2473696702565873 -0.6352789677237962 2.2641869773787717
Ni 0.037894075557209514 5.322772835805461 5.752229994023463 0.4335144753553631 -1.4435484410071269 -0.15949067130088662
Ni 7.3064994228483116 6.145364545569081 2.298456582095119 -1.6935799959120639 1.2088380898402924 0.09187245793128047
P 8.51067809728319 1.646285254032694 3.594694432603629 -0.6674200712327151 1.3959498652925573 -0.7594714779440211
P 1.790101751285424 3.4899795131489206 1.7984043452269234 0.19932940056437928 -0.3434019375379828 -1.1333335317440738
P 4.864942535929008 1.0020823569879833 8.200213646795884 1.375656919371476 -0.8712193346429898 -1.6593046196689616
P 8.67044410057387 1.7767894229162626 12.241160988681376 0.07453988019010388 -0.1779319087252097 -0.035829350993783454
P 6.271416219278975 8.03652800272351 1.6864841506209824 0.0015799428926101824 -0.3741335622938847 -2.3269180378594054
P 2.050640454673188 3.418522836041184 5.789307628274992 -1.2533279447225512 -1.0617979855979327 -0.3676135017871798
P 6.8172307138449595 4.200608580583849 5.997417975206977 1.4969008884863382 -0.5779533945294498 -0.8807786961966507
P 2.673745930367586 8.557939572422823 10.179908603320422 -0.4507406094256625 0.007099072938626483 -0.2600873964790424
