# total energy = -381170.5845826566 ev
CRYSTAL
PRIMVEC
9.25677203793936 0.00000000000000 0.00000000000000

0.00000000000000 9.25677203793936 0.00000000000000

0.00000000000000 0.00000000000000 13.54822156637886

PRIMCOORD
 96 1
Ni 2.4372062483493804 2.562681793079224 1.1834144310182142 1.1915551343901285 1.1153198687754726 -0.13011864589667266
Ni 7.5339478954222745 7.874698930247083 0.5031481404332548 0.6847400505684014 -0.9475854694085551 -0.08094424105455093
Ni 3.0467739426322975 7.965785566922971 2.3240209198303674 -0.665078567583732 0.9273801981052738 1.0187235230059615
Ni 3.770403581744513 5.16620446431028 4.863472843525634 -1.1468945582579602 -2.711801382470626 -3.317700611480725
Ni 6.7388930034044545 5.301816174401922 3.8986496783399156 -0.5112497225543131 0.1777861271759648 -0.29634097949443805
Ni 7.351191445433245 6.917733838829064 11.344210211807308 -0.024043928323081172 -0.4627183506128289 -0.5843125039782581
Ni 0.45421499218162065 4.114190837791852 0.7762330974697429 1.4420448598784068 -0.12472370013334651 -1.1048683344248453
Ni 6.87016328741876 6.746150312668061 8.805774681679827 2.12942800449661 -0.0007201659954761792 0.48842861089473943
Ni 6.925278108025289 1.0489681485238784 4.721825718077013 1.3900504690889868 -2.2130711325395627 -0.6197119665234747
Ni 3.0069235390865963 4.377758907514672 10.996305543565514 0.6171825152334016 -0.5796528937190598 -0.8926165693718433
Ni 0.2180238257076753 2.084523234390911 7.659067054429353 1.2076538397242038 0.09764227053552216 -0.7140557688133832
Ni 0.6343462216258053 2.464143454927311 2.883061449719823 1.233036798573683 1.1162889175569612 2.6464881630851136
Ni 4.829868909738966 3.917262269840343 6.760345572560589 -0.561172318416369 -0.10493571887314186 -1.1733740926057277
Ni 4.700329642092384 4.139397028002059 2.2362963427521096 -0.004773510129243392 1.2674970371340817 0.8592521349787846
Ni 0.28128368001452 1.7666364264552734 0.8458264351926081 -0.3659816226107116 -0.5581903529699096 -1.5018546329471876
Ni 5.557386393099542 1.8173357668083059 2.830074761000671 -0.20783820936633882 0.6504194229096605 -0.21322467048923277
Ni 6.419238152013015 5.881114224179742 1.5785304879159388 -0.0912826468660815 1.216309458516673 -0.032906778030349776
Ni 6.661950714374985 4.487673818479052 10.7742642788012 0.7366560227114023 2.3224443183587677 -1.3738388923261307
Ni 4.737958420353307 0.18678222014048804 0.8969210397108905 0.44462292656369873 0.8052970209185679 0.8901521669917508
Ni 8.526736694557336 5.652712631360549 5.327160290515226 0.7801048379236565 0.3833702504008043 0.36896847315317743
Ni 6.991871325936502 4.633727167409151 7.376749392980209 0.2968459441553146 2.06625702826508 -0.8804953606282773
Ni 2.767330508895335 2.763563002683233 6.226166880962202 -0.31135185108097346 -0.10040954886801418 0.32498846802780157
Ni 2.6768640759447813 6.955908766639162 11.149481978564932 -0.42145831552177737 0.7522685324376787 -0.012074671776346947
Ni 4.982161323010482 3.596237416189957 11.876967063223438 -0.1904503529071946 -0.5486698150739842 -0.07010447012656958
P 1.2036673225205696 7.192447062063854 6.176769968432371 -0.41596566783832234 1.7146838677702145 -2.8211447434931607
Ni 7.38263669998487 1.1432761418626942 0.2803246784332576 -0.6310063084903713 -0.8265266197213055 0.8161092810427235
P 7.974135175284928 1.6966552299847741 2.460411124448884 -1.9048871376636096 -0.5880300620391614 -0.5871764557896146
Ni 6.866062537413941 2.4661799447716906 6.575480429905425 -0.021913512243639677 -0.6712417589716504 0.6414717267980694
P 1.783354156723226 4.431087171121359 4.058992706237144 -1.2024728097438968 1.6019901022182088 -0.7620700919091327
P 0.33115824198057864 7.792369199902028 10.90963808985193 0.6231924688729074 -0.8652566893016518 0.18193177391322213
P 4.2627897990274235 6.3295492879121324 1.3068358980368409 1.35647006203038 -1.0617979855979327 0.5273304301662596
Ni 0.8914252941626717 9.090936949170688 2.1003939700190424 -1.2125062827204989 -0.5718853339584989 0.74155011757891
Ni 1.4979678753494832 5.344332528289357 12.282181332717679 -2.0424103035544694 0.0932665100653297 1.597283440771159
Ni 0.5105739229476245 3.6143992028930145 5.5871376583715255 -0.7488839322361619 -1.7017589321784303 -1.760178252657588
Ni 3.1675192768599687 0.428010921947667 6.777972317840897 2.2904263706912746 -0.9437951491281874 -0.568010424384125
Ni 5.937562019957137 8.668087603301322 12.700590205049096 -0.37553969861279196 0.04812308075947196 -1.7056433548345011
Ni 7.360596325805471 8.757554304873725 6.713618313081299 0.9733548650631754 1.3984644041842946 1.2502431351496401
Ni 1.597987297024582 5.423144685266847 9.423248584944947 1.297787717697823 0.5470446207657353 0.12296686534323986
Ni 5.469863613651319 6.397207034605636 12.886810539127975 -0.16227594735550763 -0.7066903295872474 -0.14962843379482618
Ni 1.4097600947717865 2.809504362218033 10.258794449132246 -0.08779623097937783 0.48700627662591617 -0.7971538229861432
Ni 1.1757859251966087 7.062269077147897 3.7274142068068614 1.7032306316279504 -2.097756898645574 -0.7747597715616593
Ni 8.64219641196164 1.488516711117158 10.318705203322287 0.4080078464438264 0.36276131590120103 -0.5952363499796136
Ni 9.256327694850372 6.592136139800845 7.6576989035248095 -1.779155307980723 0.4121956592729288 1.546267097624292
Ni 9.12459457223507 8.506195917445162 4.54148621126238 -0.35623945562228326 2.597318643338998 1.7366953390442994
Ni 2.5042715616336086 0.2561524696576736 0.49540392496140034 -0.3388384865370164 1.3220743581593295 -1.4202791860665411
Ni 5.612019861561037 8.618591643310877 10.162317594109165 0.8098453024108827 -0.23737761358635245 0.4449420004660144
Ni 0.8053632333391892 1.4266444469360975 12.214331045166162 0.38244619592463813 -0.8952748329302969 0.05457012193639635
Ni 2.5898967028177515 6.810873662631254 7.76796742318035 1.278804748837417 2.299942023491194 1.8423311693082596
Ni 0.5283413711626346 4.378943774333221 7.615427854095903 -1.350989241421467 -0.6455286704762625 2.775254665829266
Ni 3.17537827630487 3.824925968941767 8.519514561027405 -0.8136819025481535 -0.24281112589709794 -0.1878054590851798
Ni 7.7294046366226175 3.065916947169466 4.220162363875751 0.1432415564318759 1.5465925992845106 -0.46689356503644114
Ni 5.525589381211161 3.5692076418918273 8.914174259064547 -0.5015224679642201 -0.11647585830225747 0.4622959183634296
Ni 4.953659721961188 6.28081238322732 6.109990689403557 1.0905624593251348 1.8503571249365294 1.7796255627489224
Ni 8.75307402721609 5.269806256757082 9.903912951819047 -1.0407527348918593 0.48058854602503037 0.5003176490228416
Ni 7.137063795068748 7.73928161236786 4.635537792016244 -1.5690799817537493 -2.273797760995658 -1.7207141331246945
Ni 5.321310936275847 1.0451821287677363 8.384167594615532 1.0349728949852885 0.9021803018008785 -0.8999398425061339
P 3.2041112966546623 0.9331011331506984 2.4707481617635145 0.4092764287436048 0.25012488594969184 0.7118029682234644
Ni 5.6167685856072485 2.8839473228021277 0.559861605567621 -1.110611664666526 -0.2783232027607787 0.09767543776630276
P 5.487886548774079 1.5052529549291505 12.497028234268122 -1.008355035287444 -0.44192789623003886 -0.3920932320960989
Ni 3.3955043149382664 8.358207903162903 9.449559108057128 0.7418419377877159 0.292877960646502 -1.4891469555725323
P 6.95709363345771 6.639114257801873 6.547475917513599 1.116607991459277 0.12858266886812048 0.3955775911002736
P 0.2897656602163611 3.471474642905646 12.13747206708487 -0.6370329743004255 0.8862823996236994 -0.007668829399167438
P 0.12927915235282375 1.3908114824470361 5.306214992465781 -0.8275779438039553 0.5319355330384387 0.5739126488011729
Ni 3.686120672503257 9.151068940212006 11.705256719285764 -0.05484343020244103 0.3722260608585267 0.7826736270920972
Ni 8.676742685139933 8.592783762919375 9.067255349312159 -0.26024191977903566 -0.3611644037277264 0.04554760672281188
Ni 1.8158917103732006 0.42061383542655906 4.408754282946131 2.2772463816658908 0.672798561935809 -0.5617263911476262
Ni 0.3286052242574882 6.807902238812863 0.9025824814782659 0.18100874787832053 -1.4859636727485441 1.1834286486282521
Ni 7.505400010512881 3.9270003940052853 1.325774327912369 0.18014639987802525 -1.5063736038634639 1.1068370281154423
Ni 3.887224044635744 1.9365815039687522 9.986123269805047 -0.6758203794812684 -0.21724304762000649 0.5688956552025557
Ni 1.5911095154137909 0.29828651886068575 10.120697295753258 -0.24829194650601114 0.27212864391429264 0.38735417474921674
Ni 4.743021874648195 6.191678925447633 8.729756218497943 -1.6717294756958758 -2.4235778898770004 1.2521786616094566
Ni 0.8172480029355482 8.353311070764372 13.101766670588253 -0.6322651205981369 1.173825064100217 -2.4741347768889455
Ni 4.764173598713684 6.913994102933022 3.3698760159239507 1.3254090789595174 -0.2626582425300122 0.7647412109833926
Ni 9.196714083042169 5.31396105929204 2.648677205144163 -1.0688165830076108 -0.9893406989684704 1.9662447148354847
Ni 6.409564825252212 1.8857062849473416 10.54220996374295 -1.30079308018305 -0.5936060134650422 -0.8442263509939137
Ni 7.314312465705934 3.0373320351719926 12.354690553626815 1.8501678917438587 -0.011430096213812573 0.8808537724089603
Ni 5.312479975768855 8.131963138224348 7.815928610369894 -0.83898001499331 0.37944880385921104 -1.3632390053230974
Ni 3.0507173275127784 7.4630225082057455 5.148717496287472 0.8046840699249175 0.8586877778348825 0.12745498302158048
Ni 8.077403723939014 9.02163149705764 11.777211459550905 -0.20637962254294134 1.2412910681626752 0.4047541153932191
Ni 3.6144454867531146 4.544491885137243 13.529281429555652 -0.3412576375014703 0.17562382941732335 0.2447494805703914
Ni 4.675253046690455 1.6049298760395125 5.083428557553864 -0.6022549473892918 1.0009381739980827 0.6864477772881276
Ni 8.069507697406033 5.389996184663559 13.085766340151842 -0.29821865613312515 0.05918088123553033 -0.546098197692066
Ni 1.016541676138143 9.221364866931182 7.125740911533997 -1.2791598181839907 -1.276859452185588 -0.1362792661814298
Ni 5.307879360074962 8.698699748371155 5.36002831092631 -2.055459937649576 -0.36015370307502487 0.7796505239950573
Ni 3.073683378894168 2.223282246969322 12.235602181590707 -0.05447961910511907 -0.2979638598098417 0.825993630035971
Ni 2.818909242590259 7.220661703180531 0.12295307435441906 -0.0438121120889439 -0.3241150642839128 -2.0858341790660595
Ni 3.1375643626035488 2.9277040841402293 3.611413893916595 0.7188459911131748 -1.4479177737194158 -0.011910378284340778
Ni 6.622988960943195 8.935321354744024 2.412179639516359 0.6643694573318494 0.03228020018994441 0.7938119030971039
P 8.3663446057684 7.383904877751598 2.7334081421511827 -0.40075836397026465 0.0019054445528289762 -0.635548419335099
Ni 2.237519162335939 5.54271440944799 1.7815102077368608 0.08960063117796827 -0.9369927814943734 1.037589249562213
P 4.505252428544856 5.8639521688548335 10.993514626801511 1.5976966170491775 -0.09836063675878545 -0.49614320593017774
Ni 7.879299545940977 3.327494810908007 8.871606067253802 0.47129863608267214 -0.5664831891063211 1.5518289079827854
P 5.466688540848491 3.6755124117684432 4.524455602100154 -0.1721466695020003 -0.8151877976697187 -0.17133908599904038
P 2.3749914836035835 1.5341988810354006 8.383517769219734 -0.08438591974624822 0.873207311607296 0.17190678557705233
P 7.687267810388 1.150487167266202 8.315044500911277 -1.9007687446198622 -0.2745524228644368 0.4344547277814453
Ni 2.076358761469353 5.279127826181129 6.4002339990561445 0.8574701033776976 -1.9975363258599148 -1.9639885718114563
