# total energy = -381176.02180777234 ev
CRYSTAL
PRIMVEC
9.15961169913355 0.00000000000000 0.00000000000000

0.00000000000000 9.15961169913355 0.00000000000000

0.00000000000000 0.00000000000000 13.40601758942117

PRIMCOORD
 96 1
Ni 5.846103981944584 3.5253880701338023 5.928932520518819 0.826819468371376 -0.8905812841093694 -0.11964834249296814
Ni 5.990523582919941 2.1340521807093147 13.145700063769585 -0.4540239081626245 0.08870820127068595 -1.5738110686808313
Ni 4.462269814673887 4.732011225793523 12.557175763406244 0.17032170047811956 -0.40691641315186045 0.48004655747863134
Ni 5.680534837070442 0.2593315121846148 3.2502351602980974 -0.722333435441143 -0.09871442055377838 1.948594348743573
Ni 8.97415724706094 1.8958198345579806 1.5361282866045574 -1.2203653737536013 -0.869709839976999 1.233293137558863
Ni 0.9097940242404442 4.92647894624179 10.89862376786554 0.9718417708527585 -0.569591909938632 0.27593001993825383
Ni 2.1539376981646012 6.980485278474943 3.1321421158727096 -0.9380839576760232 0.9472599677483364 -1.5144664081739272
Ni 2.7754265258286472 8.318823653391698 8.375717666805684 -0.3137041533632339 1.3771463594328088 -0.0632337111486653
Ni 4.866034667251723 3.366368047774876 10.799338154573702 -0.12253260601929865 -0.4700483086153389 -0.9273663141482029
Ni 2.5714144897707953 4.7362063280480236 3.5658799665016443 0.1703301851185518 -1.4891963207532288 -2.2834152294807644
Ni 8.276002467715298 5.308279049460909 9.504679220969257 -1.0275534625927658 -1.0654250408275585 -1.519883979645073
Ni 8.3342392802352 2.559158929036031 12.729067788381437 1.7027871163326287 -0.6783570298601931 0.6704719706851614
Ni 0.25443661558023656 9.112760494473836 4.083647180826135 3.9668378252438523 -1.4011198395292708 -1.7096529902145265
Ni 1.985153529510265 2.341810498038107 3.0365835486668034 -1.0915376787542104 0.7912210024414761 -0.6148389547018895
Ni 7.717293620078213 0.8311679156102373 11.037979019416195 0.7124349453805086 -0.2162796552654727 0.6404764527643356
Ni 3.3327431124555043 7.7757594228958515 1.235761713065874 0.022037696526329788 1.6930351791521874 -1.2666789121081605
Ni 5.777864873219625 5.618084603072219 10.319269154984688 0.1681745722281297 -0.09874810200519121 0.1884124965415594
Ni 3.3992876929772247 0.9707997874405568 3.9523084216185778 1.7554350815456476 -1.3264740298889222 1.314657496869968
Ni 2.83533038771606 4.5352444427559995 7.815962791488548 0.2697724849772903 -1.1700848803314945 0.4338260930585109
Ni 0.33443483407447017 2.3256437830180334 10.10320398561527 -1.0605486865718639 1.0355061417809392 0.7561192736423366
Ni 4.532395803452179 3.0227635262179153 2.7772309693747967 -0.5409732177606748 -0.4764552405829472 0.7063792261047319
Ni 0.2936269310957542 9.32091267511473 9.392980501617814 -0.08611035863652267 -2.0775788810358025 -0.5836615006578206
Ni 5.303543530103754 7.989709637875393 10.154682836468426 -0.3002976501493409 -0.4162428327591089 -0.057876560601810005
Ni 6.902472863842665 3.0007163403520125 3.780845982441936 0.3457465265107594 0.5895565259860168 1.6220668183634257
P 5.344596910681642 3.802402213109495 1.0496814492430357 0.2112868300365716 0.12231329091964097 -0.3126147769537971
Ni 3.7681452645683753 5.534100121475019 1.1722581236980705 -1.828171847088742 -1.2922786149541359 1.4220691880874283
P 1.2989520437063762 3.1223468268968073 12.107685212215541 0.3291976210131427 -0.8594832771529842 0.41831205658331183
Ni 0.6961579839493961 3.58837872123468 8.149946972657077 -0.6707162254854836 1.021257602281725 -0.5941302613996283
P 2.1352429302575353 8.158869350618014 12.609713465396126 -0.049317615288205385 0.3729763087609899 0.04480018703382607
P 3.0415590498559846 5.635139800447504 5.302133865830899 2.047535283485861 1.0302562062359097 1.8992782761172642
P 1.211074727047685 5.299302629789707 1.8721101791305237 -0.6340890611807531 0.8012153946500266 0.32379701882286166
Ni 6.533422940401417 1.763985540346125 1.9385906423688788 0.8049393804688331 0.2723014220467311 -1.4754648300997493
Ni 0.17085332498466757 4.868608518198261 13.257962099253456 0.5420816203335052 -0.12277274705456276 0.5962719903329795
Ni 0.873075887979271 6.6889897890705035 9.280396047794735 0.6468458466257893 1.2645605802135769 -0.9626135673862712
Ni 1.687466142455078 1.4554348535664012 0.5552923123948816 1.331894429573545 -2.401390040926051 -0.9900546943163594
Ni 1.1900350984918153 1.632911493922749 5.603702180452094 0.5884018435562834 1.618533865509503 -0.5536595549790917
Ni 7.783251985437734 6.848678463098816 0.6018084855155296 -1.3262156340212128 0.0318474835279 -1.708709909574967
Ni 0.8080664584135638 0.5833720186643088 11.618325618266834 1.3821139878507294 -0.2892066824425019 1.4454520857877429
Ni 2.1331087406826477 3.648969554015297 0.9770667939089617 0.6891062979568972 0.49019932964191704 -0.8617340208603741
Ni 1.6658677775727355 4.047971408400251 5.8751738422614155 -1.3858731977828453 0.10819613479196849 0.34406013994727197
Ni 4.000826885902619 6.342005370718978 8.518465638607578 1.0271870803922827 0.34623375055982303 0.5111569057301907
Ni 6.513784732467685 1.1239393389536543 6.75397906749001 -2.3939626381137287 0.6582512602492534 0.959761699759773
Ni 5.435212951301241 1.0273695505929519 10.97576143956047 -0.9254536705065223 1.131648173621851 -1.0468477920460035
Ni 1.876071711281335 1.5961539713303654 8.366830095370004 0.7049815744262569 -0.8970355243751453 -1.8828712955141507
Ni 8.882011551252473 5.934549194541657 6.973099883392401 -0.24665029713753003 -1.9760997532526934 0.2021812681908776
Ni 0.761834233262107 7.361635049248495 1.1040309224685945 1.3225698097385095 0.41468088758862776 -0.14072393221634474
Ni 2.2933195125897945 5.958941241056364 12.766684482570922 0.628062395370699 0.32702760994501745 -0.5649081313097174
Ni 7.8226566358719305 8.772993850306909 2.4800464450134356 0.5517379124763465 -0.5883979869015414 -0.06438093737923106
Ni 0.2677391199562442 7.186842175181598 11.73357735107793 0.8296019162125196 0.9655140288625177 0.641548859892908
Ni 2.8538236441611193 7.877000613330344 5.087597435689158 1.3477614785127885 -0.6399889716049558 -0.4479949283597252
Ni 6.704277181347276 6.640599559353195 7.901681187620196 0.7919936189414425 -0.41375760444341003 0.9510903972380201
Ni 3.318142691071936 0.5173028220006851 6.455895985200337 1.1393774239453087 0.4245541808382818 -0.08278797913150904
Ni 7.915095439261497 3.9065744793549917 1.8727540998477539 -0.19069023683214256 0.011070655991864804 -0.6325808520663427
Ni 5.292350484350479 6.809685995200541 13.14517704992956 0.03324899186111693 0.5217076846628435 -1.7510006999233783
Ni 0.26191452274306287 4.297891419347967 3.7740751973185147 -0.5350437396501173 0.5770234265160127 0.24956798500495728
Ni 7.2926448523469665 5.355084666317893 5.114744693466209 0.6167716529482281 -0.007204231057923075 -0.8135433200877602
P 3.5266795754130262 5.18266413173553 10.66432639099048 -0.5538446744067042 0.463398407398989 -0.8374031574244933
Ni 7.01086771117839 4.606139838934681 13.215102443207035 -1.6439222236756206 0.10281353032381649 -0.31167760985150844
P 9.079529422466567 2.246871120597276 3.6601516082342807 -1.2582750043151814 -1.2462905782597955 1.155741724235945
Ni 8.708858247717359 1.2225608803820607 7.349942804646158 0.7667140184390473 -0.07790931088296905 0.29669939127512124
P 5.748151092185562 2.5643799078243834 9.017048961749044 1.2142410060234183 -1.426423865511698 -0.12013093855634148
P 5.177598866349636 8.043549836678789 7.61046231849542 -0.6645532912078813 0.2990390951518915 0.38188106744978745
P 7.991312569959535 5.583900931426374 11.573455427406303 -0.9872622191728867 0.41048330456751236 0.09113917930968175
Ni 5.937901612500494 8.45658421650893 1.1611236994610157 -0.6146476646266898 0.6613093303492869 -0.3604753480805018
Ni 7.783508454571196 0.8647223219179071 5.00864890871974 -1.5343160959100028 2.308704343064856 -0.3147251384285805
Ni 7.266301808495559 3.4739751684863944 10.949673032920145 -0.47678974110423045 0.03326184737692336 -1.2717519557556936
Ni 4.158537083758502 9.118155505888467 12.608641790802729 -0.7205508896194236 -0.5293564594573529 -0.05518615825384045
Ni 3.0012659170665756 7.421190845883351 10.428394023389593 -0.945897540183171 -0.5149965911912551 2.3099469572227056
Ni 7.441854930350935 3.779054362352459 7.953307508225093 0.0561660056686065 -0.7190910172444455 0.3963900596992399
Ni 1.0050750552054957 6.34555930013982 4.983848343513874 -1.8900421022309772 0.10587982795396603 -0.13027368341729822
Ni 5.25718673423033 8.344406449454626 5.519686556174403 0.6537230333615967 0.11196794312957492 -0.3947322123808428
Ni 1.9970427057686537 6.561808577708619 7.107763581723067 0.37813934101916813 -0.44063874510497014 -0.05868851498014408
Ni 3.9747586304084934 2.497459783214378 7.1786543980957935 0.3557486320287938 0.8830726344371501 1.545377753040803
Ni 5.297800453436566 5.728723555325746 6.273185542598964 -1.979150367153559 1.7013439561281989 -0.8783729149686357
Ni 4.144825144730144 1.4027579254754972 1.2172821960386788 -0.6310818989233131 -1.0706114701245046 0.3479324784184846
Ni 1.317601013553895 8.700046701060524 6.4006094836764476 -3.184370143514974 -0.3092862268011964 1.317438402049215
Ni 5.810060909081132 5.879893790278324 1.801098455880593 2.3861693673215547 0.17777198610857772 1.420898564818095
Ni 4.932112107566065 4.877035361154901 3.972859842859677 0.8432426469244058 1.6684397492010103 0.5931259885048302
Ni 8.180586790455179 6.070193887307819 2.658051594976955 0.9060071317461366 0.5379200327566479 1.13921595866678
Ni 3.4728393766096297 2.388561157223635 12.48375048241819 -0.7246266023506939 -0.032833244479937004 -0.4590133909574159
Ni 7.951486577377506 7.750533851697391 5.430925336966455 0.07756786838315029 -0.5248452018505606 0.46665008156706733
Ni 7.596881361917368 7.44674616311055 10.229314438344948 0.1759832696392711 0.46405198182258783 0.0234605450157854
Ni 8.562725799314943 -0.10164238143612303 13.492218257874924 -0.8763252884109874 0.9306159314337521 -0.5228032317198674
Ni 8.478026867988811 3.3272015472503225 5.962648135996094 0.0435629721926153 -0.32807970535861564 -0.7924798145492415
Ni 3.584256895875454 3.1734483017392963 5.056749694700713 0.11182010469780096 -0.840140096739682 -0.6718135723147204
Ni 4.484811619582896 7.370089371040862 3.4025008848350393 0.6685567559403195 -0.5809119629371415 -0.5123534971414531
Ni 6.944836068923596 0.27044761719785093 8.89790897368241 0.6601677605456758 -0.37143158998168935 -0.27756498443851546
Ni 2.4425479098175824 3.28487498061703 9.895960438475786 1.3561185922282322 1.0998130313891252 0.7519877679724662
P 2.1644346134127628 9.247818972077797 2.520050134066507 -0.6855694884482322 -0.7913122766037017 -1.4194145240734006
Ni 4.655913170050308 0.6788536451301758 8.608406615829455 -0.9376941784367722 0.7931634708798275 0.5068479939421916
P 6.672731477931336 7.1155987137503605 3.733347898924601 -0.9642295057231393 0.41596695338990297 0.27637533500578854
Ni 5.2519932342777045 4.353169677221138 8.0780907331891 -0.7856478792290728 0.4343719382596519 1.005821727342629
P 5.255721196324827 1.575700557936697 5.010485410907574 0.48742922309594766 0.12582130407289943 -0.06880426325790731
P 6.462664938401377 9.007031094203743 12.522507548290394 -0.03098462130697244 -0.6403586962395487 0.2328352456313087
P 8.707658338557227 7.883119234085817 7.6989423376177495 -0.06052376841666996 1.4751334149022595 1.1595898943374416
Ni 2.9201941920565617 0.9192952896740548 10.328586312218922 0.4239592275667602 -0.5844906814273353 0.8798423004253105
