# total energy = -381175.17546148796 ev
CRYSTAL
PRIMVEC
9.15624385800250 0.00000000000000 0.00000000000000
0.00000000000000 9.15624385800250 0.00000000000000
0.00000000000000 0.00000000000000 13.40108841349889
PRIMCOORD
 96 1
Ni 8.879505386977414 5.55218136514632 1.8348498899376566 -0.34832174343710337 0.1394134409350373 -0.24483329853344932
Ni 7.408307618561439 6.639677585218476 6.90730909471976 0.33025203041958606 0.644785878772967 -0.11866438131314402
Ni 3.0017371522287 3.0003728719179277 4.867838217526742 1.0394137043654614 0.47144236074938806 -1.169200420844012
Ni 5.058980298436546 1.401683566272456 5.688346612029474 -0.9438013197757746 -0.2607036899068026 -0.3611893434283909
Ni 3.870499866636142 2.671178442299131 8.731666845005643 -0.4580592545742627 0.39888043022126146 1.6591084444977555
Ni 1.2797590252104054 3.745855921196243 1.3287687352200728 1.7212728338416419 1.5410323315879138 -0.3137275504020016
Ni 1.9410870386745636 6.486521096907802 1.6364606421421055 0.10755335900164702 -0.13534544151325076 0.9954645524780211
Ni 1.6142732324168456 1.4855456022883258 2.3616333116529344 0.27467737847807533 0.30721366054288385 -0.09785824320107017
Ni 4.231100212133795 7.124738751282098 8.557358518131782 -1.1460671772606583 1.5519096406220498 1.577385416295651
Ni 6.28774820250137 0.4244761327728912 3.7534437003474985 -0.7819871425480339 0.38294370438634695 -0.0805943139142999
Ni 8.248246477812426 7.697873825461961 4.818428379667539 -0.6921599971815563 0.21759066076741237 0.925220985670426
Ni 4.775557931056348 6.404700903236242 2.2345373241511237 0.0575420600805267 0.8986170099296523 0.3370844799603872
Ni 3.0719746976242392 2.4209291458312046 13.473051843338066 0.5597378999626876 0.554900112254412 0.05977172074199384
Ni 1.6398283085736634 0.7513732608482471 12.789918235510791 -1.3422798865729269 -1.435572879000818 0.3846596586361891
Ni 4.782937863475693 6.151512452541754 6.666800210296127 0.6878863095068669 0.10145007431738658 -0.6951141947138738
Ni 2.4788057622365227 1.4713076433403318 10.835771646451969 -0.05993010069672904 1.7112185349294338 -1.3118871332136826
Ni 0.3497327998543251 1.9752856088808388 6.755367639947607 -0.5735295544301413 1.786907184012 0.29417662485326757
Ni 3.4011325022682506 5.069812134729457 8.351049119538793 -1.0201031769623077 -0.5237609676474463 0.48038799997845
Ni 5.996039434575876 6.815514089165278 4.459118148906718 -0.35898667935011724 -0.10906722454301217 -0.16009796586758235
Ni 6.245730200178318 8.21544881289171 8.659770188252306 1.062862422306705 -0.5896552563474103 0.941470871870385
Ni 4.11244445007138 8.604982888470174 6.492384755371015 -1.3424200116952172 -1.5381953763597511 0.8188025116041705
Ni 1.2575642904901883 3.257690788519521 12.023751231722175 -0.6921394283562661 -0.19295203628312577 0.6345937687313136
Ni 8.434951443026927 4.257543443929169 13.254051890981785 0.30706325100794857 0.1240233316322122 -0.8369115625000554
Ni 7.898267375002667 5.526305820460126 9.013625129018777 -0.04931915795010216 -0.28712357466122806 0.925629019742122
P 6.055481768653289 4.511794018892448 7.743564397131663 0.8484288191110356 0.32868777125625975 0.19108078740234188
Ni 6.594766209887343 1.969901737587321 1.891925335019535 0.24466900504144312 0.661679312094196 -1.104601196806388
P 1.0870475641310287 2.241887956590641 4.732299257712426 -1.4233454836966906 -0.3226842453746571 -1.2807716427558007
Ni 4.3112631256962946 3.7347402413487414 6.640386278480582 1.285933132352082 -0.823362363060711 -0.26670670156777293
P 1.374507834981365 8.663015161018333 10.5610358074666 -0.08966156632289074 -0.3176438547372723 0.31792564764374925
P 2.3022459150377004 5.062102577537038 12.22805083482379 -0.06461336510501131 0.4544298853517916 0.5442490602984691
P 5.538465312089024 2.8131643133001236 4.290934433441416 0.37631231511275837 1.002386219298519 -1.427085410355097
Ni 1.5824003481094713 4.119925101171387 9.780462369845974 1.5098415078074063 -0.13099873450878086 0.667989827693256
Ni 4.308964908528484 2.3475601650914766 2.166875430107399 -0.8302794018955185 -0.24265480282489174 0.7094072142977782
Ni 8.59219161602622 3.194366207114809 2.4855667325819883 -0.46307393418003473 -0.09798654124881834 0.4931309014664153
Ni 1.0211867032223978 4.646454894936273 4.030122494245254 0.48065050961121736 -0.5208088269976578 -0.18299543929104614
Ni 0.4370091991446045 8.435711411253733 1.2122225717053223 -0.1815257967240551 -0.34642349797312594 -1.2152987578639713
Ni 0.9366837301477757 9.221436151577986 5.832649012685671 -0.997907614701875 -1.7437859273424938 1.3303026596063927
Ni 2.150819956785658 8.195781201431716 7.662340274924742 -0.7383017858449414 -1.4049469265848449 -0.6435247526723562
Ni 8.355072373019016 0.6458521303684029 2.5930573710809406 -1.287064417743048 2.1142024457961073 -0.9186875554272823
Ni 2.9959687186999315 1.354565536210477 6.9355451190309 -1.3324834693077956 1.295665786258814 0.7399313510285643
Ni 8.956518552708332 3.3033438195900664 8.578666012837811 1.0366950198827176 -0.526773529221525 -0.9512354074563166
Ni 5.364972806528516 5.232903147450788 9.738624745523744 0.12292624191329152 0.06273594557664035 0.18207164192519612
Ni 5.669362971973604 4.418427801919654 2.699582025869917 0.9000686547745144 -1.1259986886455575 0.6569749646399912
Ni 7.148673172304642 7.75368113079188 2.4241631311047938 0.6519669699024385 -1.5410505864203587 -0.3319538436020412
Ni 5.072513226619912 5.866570148707943 12.256112890504697 0.7702739678761638 -0.6174622512573494 0.17979235897271617
Ni 3.0117266141015375 4.501749619557432 2.7932961801031766 0.4532854873347032 -0.5394015023981806 -0.09294435083922056
Ni 7.332951732939581 2.292412109307703 12.558776188388636 0.42866974566855204 -2.2432430281372526 0.10892504253819305
Ni 3.7051747304528746 3.5054678991894033 11.308092815036337 0.7401028436094221 0.7729183474775463 0.053430609015314434
Ni 6.3441964448900405 3.946569939266325 11.57792365427351 -0.032564564199582625 1.116606191687064 -0.5212340874605346
Ni 3.4982802478876827 4.818876119984297 0.5924932046029173 0.12579070794528013 -0.18899305163537775 -0.41651999767989556
Ni 9.21475209367957 2.1417919005009494 0.45199613882696893 -0.5576288240394848 -2.2818602262888183 0.1172901266734367
Ni 2.3547386601495006 4.94200928521428 6.085689132232278 -1.1410062177979832 0.4687370460030831 1.1988776361934708
Ni 3.512563988054159 0.2285526614047966 9.135213635937168 -0.22189160213561138 -0.7405170483287052 -0.7216857745548152
Ni 6.856424186001057 2.545069497867798 6.532119190516169 -0.09058613501968915 0.25235994592779765 1.6730032002019768
Ni 5.490449970144792 1.1029794281628678 8.081566217562084 -0.6091102797482284 0.5406248332823206 -1.1679387805227692
Ni 7.146851079809047 0.30306708823095113 10.87881606369339 -2.212945919815608 1.102458182321456 -1.8506348040779483
P 8.290722292320302 8.864718053407632 7.244950159148541 0.10253816517524275 -0.9331492393785672 -1.052677511353903
Ni 6.25759669200893 8.511790640127613 6.144144423239213 1.6905795185228434 0.3094687751256477 0.31153517073637316
P 6.834421732398466 5.248212386911268 0.8777092801232518 -1.7283899045023976 -0.49540478510225644 1.0811923309641445
Ni 1.5022740595217567 7.210615160911188 12.787693268292552 0.302725285754227 -0.07827697863503293 -0.6984903102749583
P 7.34911250306383 -0.009246890509054142 0.5706106977927495 1.489798730223918 1.1549773352660946 1.0020717733818933
P 5.097738678003657 7.5246560072123465 10.684741237927613 -0.29881618050780795 0.11565259107001373 -0.9812095852209036
P 4.61713660262021 8.467337076981304 4.423351114155239 -0.6881120523644277 -0.2686756523686857 -0.04271913613508127
Ni 3.845100446622164 7.155430480152629 0.3024453792839616 -0.5081836820344796 2.1857012251670422 -0.1842550227297601
Ni 5.347456912337188 9.038448621304248 1.6485349807046263 -0.4079098874133814 0.19239899199313318 -1.3379663467992378
Ni 7.938857003309071 5.480973257918958 4.014162245857956 -0.9913492447580668 -0.382774011577702 -0.07612599373030114
Ni 7.762159812454801 1.2326409951484263 8.53944158046655 0.2911527504252792 -0.8313662072017941 0.5915136497123877
Ni 7.943416812669907 0.8542326712855304 5.145307195255502 1.00197638545461 0.8338349804572607 0.614134215325381
Ni 1.120650978497034 0.840328915232457 8.708657204596442 0.012449281506946302 -0.08883932753191152 0.48868572121086806
Ni 8.690840985611871 7.79001310577943 9.392166218415271 0.18113293216101062 1.4457747592344843 -0.24128620461213932
Ni 5.985665410467788 8.21118200332916 12.734088955196 -0.8241642901367162 -1.8230463529367185 -0.24831122977972073
Ni 3.53503341008527 8.7476554777484 11.60624025352918 0.3828210627655536 -0.6385216430308099 0.4988860587826376
Ni 6.32953729873201 4.643927771676051 5.451991915370924 -1.0665745810509697 -0.18457203974954664 -0.7725182838256501
Ni 4.050136211716975 5.3840452621482395 4.552804834408888 0.3673149967101545 0.02369117296935275 -0.23119179649061475
Ni 8.730341020918397 8.80465309475886 12.061716680585173 1.9710447073272894 -1.123350195279117 1.3117835177562829
Ni 7.964879047894408 6.649548015923258 13.256999285827677 0.5754892492596734 1.545595525478564 -0.28212046501968185
Ni 6.893726722820432 3.2102065087096836 9.47861672452413 -2.292100158849272 -0.5850930908980246 -0.4910678482897993
Ni 0.7188713425989258 8.716689061566976 3.51995673921468 2.909115809487506 0.18253829714896952 1.0490576552131288
Ni 0.21413340883161264 5.93996659817876 11.196193445197538 -0.3667568102138393 -0.7992320456714107 0.1272652356082776
Ni 2.664549321862894 0.6379081733373551 4.643195272180333 1.4847226012525916 -0.24450188333595954 -1.177211721184263
Ni 9.10120551559978 1.7868958948261908 10.568392849276705 -0.22480646178956126 -0.3182136111978132 0.7738750549638608
Ni 5.265215531455593 1.1455468051077065 12.753815166615652 -1.0098138792211577 1.7316130394253857 0.5633315308512169
Ni 5.470718264978923 3.573553727316274 0.31009358964361394 0.06400144255262526 0.06772260015795434 0.18355953932463226
Ni 2.1147992940837876 7.186296177653393 5.093271346704155 0.06221426874521544 -0.3195513561726303 -0.20074170753087364
Ni 3.1852191196620465 6.362252557459458 10.83397610706309 0.018321681127323287 -0.06760844317759324 -0.6263412989145342
Ni 8.217747030059522 3.279583367197755 4.785582186655231 0.9364456507416518 -0.8934341801771322 -0.2704885372077084
Ni 3.362081122902852 8.584720121169909 2.6985372984641507 -1.868079739027273 -0.938945791455686 0.09778573809192193
Ni 7.0685285712295345 6.980115882096524 11.033451285361043 0.8942564189681115 -0.6832048448707976 -0.8809666438377409
P 0.7795735758089717 6.232316303163006 7.162599818966956 0.034678010998159634 -0.02719610079881768 -0.3605403969904823
Ni 5.046619369446326 1.267388939976489 10.394661365755718 0.48980029443128553 1.115170230571486 0.8502779565046323
P 3.181465059746498 0.3426669265937675 0.7759577751732399 1.1308920121821169 0.09524703083046822 -0.024315436816912964
Ni 8.269543900650392 4.543969059241805 6.800489608883757 1.1758593209214265 0.09730365624918082 -0.5125638133800463
P 2.0003279353906547 3.3333854551581488 7.701967582018647 -0.17666718308017315 -0.15216765527691212 -0.14273762021226385
P 0.4442517879085037 6.708816381370439 3.499118044185909 1.5333213360969014 -0.9129056586381826 -0.43287401355788674
P 8.646240922566419 3.911913556875227 10.612026928612181 -0.6621909616232918 0.972682778696815 1.5704722341155857
Ni 1.498712280723834 6.444045282399928 9.21118390551106 -0.029519092505039483 0.5438094016578893 -0.5609488895516533
