# total energy = -340861.5137156015 ev
CRYSTAL
PRIMVEC
9.30350561222792 0.00000000000000 0.00000000000000

0.00000000000000 9.30350561222792 0.00000000000000

0.00000000000000 0.00000000000000 13.61662087625520

PRIMCOORD
 96 1
Ni 7.016378433470961 1.8473785349061038 3.0994973722077455 -1.415318756737472 -2.132549837955043 2.376162119597198
Ni 5.6925546861028335 5.616945094662209 3.650847313601759 -2.134865630572414 1.527126520140099 -0.5987137670052527
Ni 9.023386520479713 3.703614007310851 5.073294734648319 1.3695667473133382 -0.3426072095508293 0.2957275142801552
Ni 3.988543175203131 1.4623901623941709 7.376545982923408 -0.7822951607067559 -0.3270520354250497 0.1662567863801266
Ni 5.829362738537236 4.069176659762734 12.116110010132036 -0.5262623939130614 -1.2425375389752664 -1.5119873505058152
Ni 7.9679410042285665 6.393471507752299 3.8320442527940672 -2.13375877066148 -1.3536156233007204 -0.9982305452589324
Ni 9.241600248453116 2.2627149432589766 2.8462959500629688 0.8378057921795506 1.3620323866095059 0.01650391119229416
Ni 8.74382547542012 4.692316173125794 2.235522656577217 0.9058628928587883 -0.05220496413832945 -0.44740383174294557
Ni 8.531659026201043 2.759922202439644 9.77918472270113 -0.5849876756684119 0.4812058678940551 -1.7086098936619927
Ni 3.5935070164532417 7.212319568616893 10.576438416309315 -0.40822124800621307 0.20709181811861754 -1.6455556455139855
Ni 0.06644842930310958 0.658898468163254 9.215443441964213 0.8045511438914789 0.1766550988953151 1.1066861043598748
Ni 2.2931932281807783 1.9678682382096018 3.4017450161018377 -0.34409510695026546 0.6766058514970411 -0.3049678019315005
Ni 8.241157058349007 3.8868744640842507 7.389590428371777 -0.760353109218026 -0.20435796412722226 0.12312807351145247
Ni 2.568269983456396 6.622356356850643 6.788307641128006 -1.6886023401918144 -0.33857263447013947 1.2368356034944827
Ni 2.5571336870426604 0.05564426804557334 11.439227865303994 -1.070372357530505 0.3672664028604062 -0.055003352819073016
Ni 4.468883178412118 0.46708529853008246 9.704266381739654 1.2345817744632994 -0.9171929731596268 -0.028731563606737613
Ni 2.437723190409165 3.9975117547710854 10.593159607240315 0.725274520347338 -1.9155052794990886 0.6360688106149432
Ni 6.549528513637008 1.9248395239961293 12.68222089379007 -1.9929255665607806 -2.21167065264761 1.3279243891822035
Ni 6.833145887214888 8.29508017782604 3.3647077596080357 -1.5632551475418561 2.3250676149142278 1.5214670078614765
Ni 2.73955682829623 5.636175441100966 4.776656174386509 2.601153700814372 -0.040006879410240774 -1.2218201039222572
Ni 6.510416575355184 5.845429893012191 13.263078764453462 1.1815031494707653 0.4249370180989972 -1.4447368048882734
Ni 3.594586223123245 7.492522555575023 1.7113231360889714 -0.24639498659361436 0.03455536937736629 -3.095505619172082
Ni 7.032501408980571 2.3480839122585047 5.537607588457187 1.469561834351753 -0.710186515665964 1.6309191265477332
Ni 1.2218387170528662 5.753120508703851 10.907444126907249 -0.7979197546178904 3.485274574010378 1.063042142417679
P 5.647134970904959 0.8681538504250564 4.604187784313137 1.6694136830785058 -3.416371837501394 -1.6253285198338332
P 7.2447701967631835 8.947014041565467 12.781241827165134 0.6704166919671938 -0.29110981300248573 -1.2115572885436683
P 5.959937442101793 8.226662196350176 9.031931790534866 0.16913693614139902 -0.020143050606778214 -1.0533313428878182
P 4.529058253770549 5.770815776689585 11.928881608145224 0.07767636893655654 0.5322749186557284 -0.20603278072648387
P 1.3161390515972453 7.506775526423681 12.507479657255649 -0.6914963954556285 0.32013448236960995 -0.3913751229831518
P 9.023544680077904 1.7402207553794504 6.853885262290493 -1.282112215944095 0.6458320606492942 0.57911759004088
P 7.372730615204716 3.92997760634393 3.843182409908958 -0.7794844307308382 -0.2507118688014134 -1.835904439846309
P 3.3368698096254303 8.638472576013989 7.03354340162747 1.0045564874769604 0.5714821849828093 -0.21637272919991124
Ni 0.5791311399913862 6.165349546127578 4.666933418317444 1.3171123861683638 0.2624301856796061 1.106762723234081
Ni 8.311714846153325 7.090359911400806 12.50359823464595 0.47986940847081866 0.5097407421089544 -1.0358061895198614
Ni 2.4756070659285725 3.405883215470952 5.708250630697331 0.27587011323459587 -0.9129100295135567 -0.2448168434732171
Ni 7.811688624722564 0.3319295487214782 1.0073277843782658 0.6992626696646087 0.1204654390776248 0.9763702548507314
Ni 8.341634920728573 7.659846106954331 10.008951544147028 0.6740728006625424 -0.875840378354769 -1.340771934568833
Ni 8.968784245081041 0.07007772690628267 3.1097098304979354 -0.3605532525062887 -0.9380901283236103 0.024000990900287695
Ni 0.48485964631491235 1.1588818934674465 13.227444476630664 0.3751314074307798 -0.4213660129182872 -1.0459800447290697
Ni 3.5243354510095304 0.30474563519491726 4.325428701451424 1.771245309105027 -0.1530847677745428 0.10297910936740329
Ni 6.201651825665084 6.8548602696958065 10.64276496968676 -0.1315353237385412 -0.7007402826513996 0.9679972002956876
Ni 1.000536225161869 4.420979427172082 12.741289782311748 -1.967416880766715 -1.6592925354841035 -0.6428914899637315
Ni 7.08779214380666 6.36502138708964 7.712904000394207 0.4696449025293331 1.0610027433901468 -0.04972282114642405
Ni 6.499931524345761 4.7880771580769865 5.579410100609398 2.460737786756749 0.6904700110736431 2.342122513513986
Ni 5.243102322069788 9.04980847688323 12.22447166330609 -0.547515903975199 0.8947840093368075 -0.6677422304588242
Ni 2.3979786137345807 1.4721402364472993 9.559657339712171 -1.5451622945958872 0.5004847707283251 -0.6685246171508035
Ni 4.794505880568123 2.5823554912010867 5.0229804450617515 -2.841726167188938 1.9206863094793951 0.1512006633779525
Ni 2.7418361872113226 2.8702803879532026 13.288011229582258 -0.1852094162232294 -0.4551209978815452 1.0219492290321108
Ni 8.473270223951584 2.4525343716043757 11.9721550045606 1.4083875768352776 1.5691920818515814 -0.03228148574152505
Ni 0.17747367618079868 7.602852830571254 7.540789143540319 -0.4138486214953195 -0.9461734195523769 -1.519668521200157
Ni 3.8177680231809705 2.0562143290574135 11.383359382769225 1.644163136041833 0.3095147978722347 0.4167390556692371
Ni 5.504819243051234 9.253387790271164 1.4672047266331918 0.7142241760704474 -0.6916797151110281 -0.4643939385430389
Ni 2.886784807199624 5.717041513304966 13.412562843507507 0.3915520148806482 0.06263567255335019 -0.7851375152515574
Ni 0.43020806233562603 5.487393776732999 8.879861336875123 -2.3818617410851366 0.43045383415216837 -1.149951085696097
Ni 4.589438006256048 7.336205051528589 5.609353433949087 0.761184861090702 0.3710865479374448 -0.8491029623599248
Ni 8.043020295839966 4.753858863833278 10.986243890478423 0.36834523774688177 1.2084480534907251 1.4054130675879861
P 5.879322564553743 2.3738453197519327 10.643445055958978 -0.11069936082979645 -0.37729499074100187 -1.2648616563937638
P 1.9906339168431941 4.42399376304347 1.0680126918532142 -0.7214523183877704 -0.8735618667332374 2.998304549939036
P 3.8172191163401936 7.431026382396419 3.6380345254472086 -0.5149698517183777 -0.22779639765582058 2.877103518246968
P 5.500279132232601 6.472997875124571 1.2626690128514964 -1.06462799884756 1.7657315783756493 2.203153873425851
P 1.4323398387380597 7.689496379862079 9.181360978904834 0.44606942920223824 -0.4213017353392551 1.5181094042431533
P 4.883149683600764 2.095419302396997 0.5331681000561997 -0.0003905505701993274 -0.13883391428248348 -1.077502283707067
P 4.520517635468285 4.569956465161342 5.692877517753257 -2.5157455104511963 1.207955687235339 0.5633181611147782
P 0.9566515884170155 0.8725376623466539 4.7604792385433985 1.5593511845017596 0.33785555379845683 -0.6101446345500138
Ni 8.616367446290484 9.127930014883344 5.599889907873855 -0.9343147204415779 -0.17511912186676293 0.2166529794444914
Ni 9.190254200076003 9.262254031275583 11.429274044474376 -0.27499233861533284 -0.5498255259449821 0.46670895982946076
Ni 5.8897983120573905 0.17350759166853857 6.627590509200156 -0.5657897625837224 -0.8337619611274802 -0.5007598787665827
Ni 4.668108451096939 6.663980241691957 7.809186912019428 0.5012453030434335 0.3562348276365929 1.5822340026372042
Ni 7.34230815131757 2.718112247482813 1.2478885332253464 0.9104284007422837 -1.0235260866009277 -2.9119396520895466
Ni 4.567463125613405 1.8167234833745598 2.6135882904413132 -0.10305110025591929 0.7944600782040641 1.1331563827362614
Ni 7.722775020022422 7.034687732837905 1.7321025162394124 -0.002513767560789219 0.2226757885998036 -2.9215792320618394
Ni 0.47298279084141653 6.2964545495213615 0.5482611774764193 0.6868915496937654 -0.4773970356709263 1.2730688747949044
Ni 3.3627521626939445 0.543162856311234 0.7476697292250242 -1.2054894850830333 0.2163004812010791 -0.6786807317481989
Ni 6.458847242839449 1.727474952466487 8.393012601025326 -0.053043915099857036 0.7569086023128512 0.2623067727278644
Ni 1.2691842579463495 8.568696282694845 1.1030338786453813 -0.1515585609380035 -2.0421992159849283 -0.7381706595837157
Ni 7.822992384240265 9.188663300588326 7.907444027570291 -1.1298293752455575 -0.6491161307172046 -0.2546207169375163
Ni 1.3748627800546367 0.39000482282629045 7.367626711936066 1.336387432347892 0.2525072701389393 -0.9361954824040587
Ni 1.407452960787565 4.177385735442063 3.3661925991298673 0.2647716893285892 0.27883485228987465 -0.5137452352826573
Ni 3.6277904352373813 4.336317524611521 2.7881397354579063 -0.17589328102862611 -0.4094265811682239 1.2064896442127737
Ni 4.697721509981583 4.955363495433191 9.790336835074685 0.7272447566998314 -0.47945906040627745 0.2579978609398653
Ni 6.509197816098543 4.62984313184072 1.7833825097255178 1.718899448513459 1.0859673837552848 1.5034379182739075
Ni 2.674162486197529 5.304747351340808 8.597275722087788 0.6597401860899541 0.0010919475125981193 0.383943606405771
Ni 3.414963437108216 7.78019625767119 12.802455681035308 0.6553649398403939 0.3411540220440705 1.671960360759759
Ni 4.681328732804473 4.233150949062723 0.865298604502437 -2.506025712060271 -0.589074958363908 -2.860581352222228
Ni 6.949086176193979 0.4243598786049042 10.32729518338398 0.48728935508397364 -0.23987286920438045 1.3332293463348843
Ni 5.17980126877066 3.5232283338222 7.724259859544254 0.3160132611123848 1.8280998562002255 -0.8662352511648372
Ni 1.0985672655223784 3.3499133247232225 8.22435771796949 0.5668434006592172 -1.4101264139032552 -0.9678460194298041
Ni 2.0376631385402972 8.169948025140377 5.209365019074694 -1.4103938086320291 0.45982765932859515 -0.584420233200716
P 1.342802899150934 2.2488341126413545 11.500992909799523 0.7035065325426271 -0.15491282212221708 -0.5329866000107724
P 7.99050200573509 4.146200384081293 13.439577433228948 0.6823517528418829 1.0815486858622987 -0.8798798385314653
P 1.0693635608918728 4.887987506604224 6.369705702247798 -0.07624555002730095 0.33462727666914627 1.794059478786065
P 7.157782417758651 4.766074366917016 9.103201296531038 -0.5050628770173108 -0.7951411634314887 -0.1701977733057456
P 1.2528938193327732 1.2657326573034957 1.3809975117632558 1.8052034112180264 2.0627572426419376 3.9585856125373886
P 0.5149834676666533 7.45598768839312 2.8133568878634447 -0.10323981922795768 -1.65507026987264 -0.40389510982703347
P 3.2206876294961675 3.207988344112083 8.632229923638368 1.0912975377189462 0.05306396970451506 -0.05030851844656497
P 7.875008285033243 6.9960781838679775 5.748270591142882 0.052115489748316694 0.556973192733357 2.023317548589077
