# total energy = -340891.4479875457 ev
CRYSTAL
PRIMVEC
9.08885570509122 0.00000000000000 0.00000000000000
0.00000000000000 9.08885570509122 0.00000000000000
0.00000000000000 0.00000000000000 13.30245904001401
PRIMCOORD
 96 1
Ni 5.828101425463634 2.151777480330315 11.177816388426063 1.682684946266115 -1.3759541388969205 0.5332203132881332
Ni 4.688122619859766 0.28465477820059715 6.173178915858309 -0.5351887498684137 0.2960954391425352 -0.9937897358787596
Ni 3.0537009794078127 1.8519088666992622 4.799660147202503 -0.6943914576152364 -2.681235336758311 -0.09187554325507404
Ni 3.2391954338556093 4.135456575878818 4.6406687957568025 -0.6562686826015859 2.386513380924535 -0.5825060468971387
Ni 4.951644899846998 4.654557476037153 2.5376566613961185 1.0444229846545947 0.5334722813979392 0.37804163909903926
Ni 7.149675566452233 6.294596029265271 2.1698570319392894 1.809884361633464 -1.2543309320657687 3.122920520849925
Ni 5.158979874361337 4.573639394409012 11.827176040743224 -1.0611153577086112 -0.2707469330754176 0.1962646455961265
Ni 5.713118312953512 7.955011796804329 12.258109588027029 -0.42622102701774334 0.21736388946858695 0.5932010647171397
Ni 1.7679460184367926 6.238181502401757 0.5713781799414127 0.8462927466046393 0.7282973663340617 -0.863939256041809
Ni 2.6798854364128877 1.4649053941926635 0.5867565236586783 0.8808653423731861 0.6930488275444129 -1.3750421686056127
Ni 0.4216274680095086 9.031795789248534 4.908793672232464 1.4474428909655266 0.28066753462323923 0.1531783559296136
Ni 8.632767760750244 2.203420357990778 1.3022348739900187 0.5904301868402219 0.10623721129338476 1.817660663144773
Ni 7.047925827731909 0.34276982995152355 4.824575427126936 -1.058583335315377 1.5941806334761188 -0.476218956202425
Ni 0.3987026474669207 7.135215197153079 2.3113686962472566 -0.10307475440500312 0.8007284277112791 0.26700932040985625
Ni 7.607726623378373 3.7825544896766994 3.847443465524835 0.37570913431112074 0.5132842364858387 0.2511566696483158
Ni 7.665486300874368 3.5926519402508448 12.782080297029163 -0.3919482218778024 0.6987368790681256 -1.051343108813196
Ni 7.926572767554137 8.99938493009028 7.20900125377239 0.28124140484883825 -0.3898422312783931 -0.2904202431346289
Ni 6.881699747208819 0.8582006502085393 0.29895700141187903 -0.633198945266316 -0.6728065323556089 -0.6954013869369895
Ni 1.8699593339702372 6.583285350477744 9.173269280362877 1.2967788168173344 0.048254978351645925 0.828336933457167
Ni 0.024354497532378647 4.631408160760631 1.495395778157386 -0.37226694139879113 0.29020812712382277 0.36639505599904637
Ni 6.388329397324467 1.9937041033027254 6.702018524818683 0.7659190333415777 -0.9099504326646006 0.7050677063821599
Ni 3.542545079190984 4.3618327029272415 0.5627901202614812 -0.4165742479565987 0.5103529217716566 -0.2021352454442906
Ni 6.36677972063792 5.6741180334672325 4.658334804434846 -1.6521142725681095 -0.24303198365865242 0.7820974428736531
Ni 5.506237781220417 3.053810045675311 8.875879197660725 -0.9505859467977757 0.21026173120616692 -0.24648574653520774
P 0.10228052788881545 5.509382525266618 12.69218242604366 -0.6588385002112911 0.1596225688930606 -0.47963029587681905
P 4.021909502557425 6.285134530559791 12.66136029884863 0.2978412181890483 -0.21128554448499093 1.7175748161647646
P 2.276867400295283 8.2913721657692 1.7895265972324637 -0.5898845987493969 0.1431284278927793 -0.9413274043139853
P 6.401926325339259 7.779896815480123 5.955643518676189 -0.037387953730154966 -1.3833152072476822 0.6925441199938525
P 4.705509600670126 0.8778198539603652 12.584897574247794 -0.3563106751798509 0.2780390958614567 1.0150455599337422
P 3.9961062414384427 6.217486178143947 8.196243658371587 -0.7216546642065635 -0.08851793963675078 0.7111414233800656
P 4.890204235822934 0.9454227620980844 3.9632545727823816 1.8484534801559132 1.43055459985062 -0.5316971917753875
P 0.019165669856145262 5.602125208062704 3.868275122617017 0.3330794725660522 -1.5469229860407359 -1.8539610402377038
Ni 1.7183390444362991 1.1481951310887426 2.6620349239656598 -0.8190711918845247 -0.4834026184350579 1.0445253145604139
Ni 1.676248554037566 6.821077080190994 4.7431510962404895 0.7329636614614795 -0.3230675968560049 0.39093906388699773
Ni 6.0079244340015165 5.533995146298744 9.359397228047726 -0.7093632484337202 1.60066906941394 -1.2131868537272912
Ni 8.29618017039475 2.5649841236033897 10.186690315818364 0.7537399747768825 -1.0608775306661924 1.17571431070313
Ni 2.428923954899214 5.173776531318611 6.916533695276662 0.20009790329928764 0.22704692108430577 0.1386418528763354
Ni 0.501747548113787 0.11170294451510927 9.30596111917248 0.5472428528194704 0.19553830895306326 -0.487152058175161
Ni 1.6005747421049699 1.3317445704328188 11.498219453570364 -1.1486989584565506 -1.2606057093308871 0.06136657603293947
Ni 4.02610855385611 6.981395404557924 1.619108736495187 0.1709019984616218 -0.7573423474161602 0.011775652478689398
Ni 5.549873377075376 7.76929012096591 8.04843977931453 0.5662998694509215 0.2891879133894245 0.6833074318869329
Ni 5.186564551182792 3.0779227796480684 4.843678383879269 1.7069677300728796 -0.37099655932679976 -0.5401139550841729
Ni 0.8608964047868732 7.545168030112452 7.1414519698828585 -0.28317924530149935 0.1795391053113295 -0.5546805400444383
Ni 5.170731764684283 4.879633896731222 6.95030879166421 -0.823198326679021 -0.1740379729874422 0.012911308745029377
Ni 8.399447748004427 7.043063289972609 9.363081850118045 -0.44315302688639163 0.9047328930194031 -0.5098803530106122
Ni 4.657647686949606 0.060788993075760606 10.325847057633927 -1.2784067420680498 0.09232008699166036 -0.02108921657013142
Ni 8.101978592258337 7.2242678045654705 4.636931458323859 -0.048602077278419524 0.7452514776898972 0.12013222410792213
Ni 7.430802959784821 6.061666837311323 7.14722521097577 -0.21296010397393644 0.5551932180147987 -0.30960427226224746
Ni 2.0436019206832143 5.391291024132795 2.7930644110814744 1.061994417879455 -0.7760036712710894 0.06400864164147686
Ni 2.4754861622653794 5.200715899390701 11.657210805016065 -0.6430213306733764 0.14714629080292077 -0.5906389604169183
Ni 0.8576907654079846 3.2384228811274958 3.6127619422064132 0.5532183536766151 0.5623018040351219 0.6362349038791624
Ni 3.8254357105147956 2.6484016405283675 2.6083997691522276 0.10732735903377 -0.742374156142102 -0.07321370517951262
Ni 1.3389156775208344 3.4228630283228085 8.393931721525698 -0.9013642336574863 0.2812432046210511 -0.3768141944498414
Ni 3.7548425688764966 2.9033985739394796 6.993754430436611 -0.22748940793836306 -0.46752091420779485 0.4362380449341132
Ni 4.16520440033899 7.058777921347994 6.083413742164929 -0.05157144431938859 -1.0428939496045782 -1.191550249294122
Ni 0.8065032394143277 7.270357391439142 11.639345750399839 0.712104044403651 0.29602087715085795 -0.649566587991062
P 0.38326522618809356 5.582974989261122 8.066052163744384 -0.9778401545280385 -0.834153540138944 -0.503223766926043
P 8.686464719781926 1.8186345662566448 8.03429933773337 -0.5874667333365237 -0.41216506314530954 0.6149333141879088
P 1.8610068111797486 3.3366552327209984 10.574723555667259 -0.3244629345416348 -0.35320015457532716 -0.831494248139226
P 4.029226031335438 6.106656672654387 3.90483049994021 -0.2286014100556192 0.3962051973819435 0.09472895354346911
P 6.6140783933347755 3.9175058179946416 10.502916142917478 2.4804177816841797 0.8844916262718638 -0.08391592208836515
P 6.483716937107387 7.8324485787030715 10.252963524378165 0.5648358833108854 -0.6588613830294265 -0.7664522801372284
P 2.4666517945980138 8.531872374458658 5.829949189812169 -0.5096389264237675 1.0377507148407419 0.6957400012233308
P 6.885371644881262 4.082750302110247 1.52137536307549 -0.010766751598200812 0.026737415994844273 0.5871499734270533
Ni 5.328932385690621 2.850519611914036 0.48325718023056885 -0.039230663365848566 -0.7782014502533566 -0.40777593293867836
Ni 1.5606383104893287 1.1068953711293723 7.314929139423463 -0.1642325568612462 0.5468394467334646 -2.0912314388222306
Ni 6.680527016808137 0.6823412916086583 9.213974629164383 1.2079148066950745 0.581318968567573 -0.22761410644168542
Ni 2.8049571786666054 1.614598846334131 9.246446383655323 0.8990080747204839 -0.04292559571893252 0.5815105157530888
Ni 6.44453488050861 2.10192510722795 2.6788493068716535 -0.35923967590118777 -0.5956135308133742 -0.10906182522637346
Ni 3.948516993386669 6.625330396598353 10.561952804628765 0.8886411296638631 1.5198976064918275 -1.157445080080297
Ni 7.992003439197514 7.343522679219277 0.034328607695101564 0.6973487404713474 0.5797025160100725 0.07209039020834682
Ni 7.645754395312794 3.8388690391283404 8.289347168735981 1.1705659337329712 0.30662462080863323 -0.9987972163956799
Ni 3.106625385711381 8.317784380215047 12.890960242987191 -0.09490301722748816 -0.025299140886420945 -0.6621441675457564
Ni 0.3068942990290705 4.994344343572598 10.224895320437467 0.21061834321463727 -1.1334291767816735 0.725720349635505
Ni 8.831368345009091 2.1407708761686077 5.650405209141969 -0.09276797316235635 0.950826344943356 1.0427291418919395
Ni 3.6471759851443886 2.4870108311977037 11.484291691210826 -0.32516921658003994 0.9532503810038163 0.793868210256336
Ni 1.2036280615447723 3.612956443716785 12.716312428842105 -0.7239290620630371 -1.4210176068944624 0.8319441911924511
Ni 3.0750507012706123 8.494544444407351 8.128254473869813 0.9255634566115092 -0.25003618289062746 -0.3265534985220763
Ni 5.631536744864756 7.752812025718037 3.4772761891777293 0.3107658966705164 -0.11962983055020686 0.8985810144853944
Ni 3.3993774253881672 8.525846463179374 3.6795532155368322 -1.6565897918409598 -0.7442101809095764 1.224163150233137
Ni 3.4990094607478976 4.371294201632723 9.414788349767882 0.17537700351383992 0.04576229383677925 -0.17173400744461392
Ni 7.400500715131534 5.973895758542036 11.29568975702489 -0.14892935084527256 -0.17419763849375808 1.1646418549390523
Ni 0.6306484252422591 -0.034396774112288024 0.4374529834235173 -0.06145605042295222 -0.2643024630016545 -0.14255558610844482
Ni 4.683414592646088 0.348145888053629 1.7759851112369827 -0.2520835523379594 0.6033967743032189 -0.8581105651751738
Ni 6.115372885198629 5.919299002803494 0.2740217260050718 -1.9285839670599174 -1.4979087609255621 -1.1604594414265883
Ni 8.327045924096781 8.988232904238574 11.228379510038293 -1.1878152077317221 0.4845511302172043 0.8743542807275457
Ni 0.20025384709700908 4.970486097557336 5.93727312368722 -0.33555338802784146 -1.381479439590524 -0.3145497891929808
Ni 7.748385753028729 8.897280726000586 2.424066870453288 0.5575884577198525 -0.2364761848180056 -0.17208290614360042
P 8.606164680336274 1.443019429847997 3.562850491542487 -0.11234126730859363 0.7276494483374177 -0.3689463616659904
P 1.9757081691654996 3.29457383117789 1.7012510869759971 -0.7963344124086414 0.06601615898980888 -0.5450641000005968
P 4.832253692358819 1.2116353433502753 8.09961458091031 -1.0651951842049396 -1.137632416229744 1.1590237374213264
P 8.737135089890527 1.6780027031731641 12.554993421470876 0.24256147178013712 -0.889912540177119 -1.2941578342547195
P 6.133841439828347 7.894343685508378 1.2845361454317261 0.44604654638410285 0.7119857736582319 -0.7186958386885558
P 1.8151989788304472 3.1291839253722866 5.90395065230979 -1.4321707952978044 0.8237387725635232 1.4233565394402843
P 6.848452713333075 3.9354472189981182 6.122004114262528 1.580322387436788 1.191823814670483 -1.3337209412593225
P 2.4569630745019113 8.422651596414697 10.304191041336571 -0.6504911566878604 1.0039062554874711 0.7478642327223959
