# total energy = -340864.7626888475 ev
CRYSTAL
PRIMVEC
9.32445949772206 0.00000000000000 0.00000000000000

0.00000000000000 9.32445949772206 0.00000000000000

0.00000000000000 0.00000000000000 13.64728900572558

PRIMCOORD
 96 1
Ni 2.6200519312563393 6.242753679465288 2.850359556398 -1.258486348995039 2.077002439707042 -1.1384752238460134
Ni 9.256950518259007 7.642224523862144 11.882162605461199 -0.15171102735546774 0.6835853681386679 0.9248507468152006
Ni 4.026338955625038 7.277106659077636 12.829052153971094 -0.16983344798779137 -0.6559123277034318 -2.4072678398630667
Ni 6.269197846907352 5.749480441858596 6.708625127628402 -1.2895144219454373 -0.7144105810496406 -1.392502530173905
Ni 4.397638937128194 3.879254929803069 8.020539296326747 0.4031019245017768 -0.5686148907373433 0.47443152528469906
Ni 7.60726712479998 2.7564967486680847 2.572336806561514 0.31460172547683884 0.2601349618875262 -0.6418975014815783
Ni 3.1817480534504288 4.173851906588873 2.8304611595992117 0.18747095856389648 -2.0068421766418725 -0.8074145814822031
Ni 8.395295855005775 7.044591934347281 7.841705485547012 0.5627476333232889 -0.3043255403618114 0.6501692545720674
Ni 3.5227062433962963 6.711652779662407 6.822743458960007 0.2951395029871691 -0.43252820018269383 -1.0966973685782788
Ni 4.88667887007385 8.915031908973743 8.568791412661186 -1.1099092392828627 0.9054528019045631 -0.5051081284329494
Ni 3.427792569068807 1.7020402341456222 7.097600554760323 0.36617137002401456 -0.6153912276609338 -0.43146093526044405
Ni 3.8670771855578874 8.748515709333276 2.820253673668737 0.2719522662374284 -1.40201381209845 -0.7544441999327588
Ni 0.3731089266666827 3.8863974658611156 1.408850318314334 -0.9471668938138977 1.1724806342571807 0.45959111783775686
Ni 5.684666123138646 8.530351327936256 4.709898305299315 -0.9082023396252423 -2.2528959778459847 -0.5391996708000197
Ni 2.323897769716366 6.240888787544128 11.338195078315627 -0.2592373897739213 -0.3214526869604012 0.1100110765135202
Ni 7.092445061044272 4.10813311528716 4.726738279347398 -0.25396611407265296 0.7736197444199451 0.16893896119798002
Ni 3.4441942935154173 6.012616691934415 8.851618124086583 0.6139593803104136 0.8991803386322901 1.1529685323661822
Ni 5.451629228670367 6.0110128848822155 10.752357930202109 -0.751693376660499 -1.5175118798684706 4.019516643694807
Ni 4.015699747214814 7.832835127124009 10.402837089000231 -0.38573180865444534 -0.1129588462879345 -0.050259410376184414
Ni 4.359613790855721 0.9171417250294956 4.495594250179097 -1.1654047012470057 1.3345210685631146 0.6032895593013933
Ni 2.439558366666771 8.537214130206129 0.6641784603836111 -2.4992781089237925 0.08017239588553289 -0.0374853985399677
Ni 2.5972163296817232 0.4561768075109574 9.75583335076455 -0.1356909977781276 0.446480805708044 0.2063156020742253
Ni 8.898425046415804 6.116761581271651 5.682103761638971 -0.4483291717706924 -0.5350316554652592 -0.25177784817208254
Ni 7.2740668852461425 5.354943907017773 2.056182277528137 1.0625122380561378 -1.2118434523255195 -0.22741767416016317
P 9.280699916874992 8.989552990143336 0.5637922607134744 -0.7174406261252161 -0.7870056788085478 -2.0667339679014987
P 1.688799501505379 9.236222244555302 3.0119431169069952 -0.15250884066641476 -0.6389052516224739 0.3204013628777514
P 8.394624493914158 0.76721933370352 10.359630340524811 0.7429518830224431 2.005770797954565 4.034493833829929
P 7.0144739298205305 6.534441424854082 4.5405623890740525 0.14090030989320895 0.4574010521649736 -0.06958279329514468
P 5.57278193232859 1.8177008310960279 8.809230063164554 -0.027860473855693953 -0.09370694003685796 -1.4913017971320057
P 6.917751310329516 6.950620030439978 12.246012343739316 0.1903040571373174 0.507592328307384 0.1742223210841064
P 5.623003471765457 0.9709466542928725 2.3211312025513235 0.14180508109566548 0.2381180912968028 -0.004394529523269851
P 2.308680251639692 3.255262092982596 0.8354790402478158 1.0520288220263108 -0.6765485158965445 0.5389657004123428
Ni 0.8408331449534692 4.150046561215253 8.756046142910924 -0.2967040192608116 0.43651135320015794 1.3595476725144393
Ni 7.304669761672395 7.564160148042343 0.739148048060244 0.9794599495196485 -0.021306989007892338 -0.5256221892259012
Ni 7.559302104587719 0.5667770202332927 8.58264382985157 -2.546829890560827 -0.19779728019056902 -3.4294798356382614
Ni 0.4141085755534074 3.757346944916774 5.317379389049828 -0.7555695717864537 -0.31522753198629583 -0.12856544247693988
Ni 1.2521723560039524 6.087035204048345 7.480611125082409 0.45891260371349357 -0.12964170626025415 -0.8832572396441305
Ni 6.106728462735805 5.39809750607344 13.609909442294065 1.6720770888432819 -0.005190028841371706 -0.9645344385580678
Ni 9.241490564232583 5.092684156144902 3.487974496256593 0.3750933551039928 0.6929608958162968 -0.3590571275767364
Ni 7.7042508291599585 2.314405469837656 11.914343180452754 -0.3158250563609787 0.034290545751753845 -0.9559209858574441
Ni 0.010495611732294149 7.653497795525562 3.9277719580239934 1.2330175152999734 -0.25263325419384236 -1.3899064873119544
Ni 0.4224521020086818 1.3286422492311596 8.732108390210902 1.7780895857203698 0.664926872497216 -1.1764401331255607
Ni 7.5878535999006935 8.690256485716205 2.8210042926670043 -1.1018904827434441 1.3368504880272396 -0.8574508201039879
Ni 1.5858201696188683 0.6482979732289643 5.1039909958629 -0.7463999894720436 0.2220299274856886 0.6925886000785426
Ni 7.761530984518418 8.740720461102823 5.182066561034227 2.5308497130824863 0.9182147295559219 2.306354611885757
Ni 5.729115822079518 8.88131466303915 12.787645958645557 0.21262380368044023 0.523502571779737 -0.29274580594401195
Ni 1.3860156491856779 0.139739148990476 12.094145802585532 0.38759405867416474 0.2703854359709408 0.6055403030087829
Ni 5.41432206578754 0.8010018508553517 10.641910638617308 0.17208701990865846 -0.5179721288798111 0.8000902799066479
Ni 2.3565054049578658 8.736114178057555 7.608145488894848 -1.7893093656955894 -0.3073231895375546 0.31635187539872617
Ni 6.643752064812935 5.034620746179553 9.035529103121679 0.8864788319052218 -1.8279232214130456 -0.784638721238268
Ni 7.24153384568149 0.9105083044659261 0.4933068056612731 0.13992380491255255 0.5369419851140946 0.6275242634790419
Ni 4.257137979787924 6.535709551360472 4.580071056869809 0.713487812125055 0.03958341871957699 -0.3780755776607682
Ni 0.8973197887994754 2.3079436193308336 11.05472684406935 -0.48021110808095363 0.2930103724593083 -1.9566645273462173
Ni 4.056923183132079 4.973573509140349 0.46147869524281815 -2.2633832505305533 -0.6963133572282976 0.23231356879988377
Ni 3.8352807783020926 0.9989853043275282 0.6085804375380378 1.3076065035604578 1.0838002009006367 -0.5443171945322431
Ni 5.384716906539109 3.0976321033464616 1.2065570996123542 0.7903334576302001 -1.0355632202711198 0.344198208187033
P 0.1172037950151664 8.98716592848425 7.174147841002258 -0.5035266428784424 0.2942936100471061 -0.0853174304215821
P 5.6720035069939625 6.765203151178545 8.934511637536229 -1.2620121027601106 3.073986514153383 -2.568720777096647
P 0.4034870836164349 6.284545907418506 1.6584735615294195 -0.6781793666317482 -0.38813707566182826 0.6340818620919015
P 8.049386377009226 4.802693462404364 7.2573555887406185 1.897086153561952 -1.164283186048053 0.5202275005728911
P 1.5066088852675543 6.79913485968407 9.437823588354531 -0.4857142972873699 0.2497117096716732 0.6808453434996855
P 2.1253147534915358 5.230378451143824 4.914661573350871 -0.04693523109895788 -0.052013674063129775 -0.1543320099180826
P 4.124739977845098 4.244093060799402 11.91907814104058 0.18839629859164328 0.7848377246229515 0.5040730023002157
P 3.9621587001582816 8.644156357425105 6.2633691272077625 0.9591726600255223 1.2799149511824603 -1.1554571031159908
Ni 2.011435128325839 3.6308699748236344 6.914263029990983 1.155867965401164 0.4106234296898025 -0.29361740991568785
Ni 4.132525901615945 4.642695060028356 5.8253722185902435 -0.21070987448717907 -1.3230398073963925 -0.46995909133564223
Ni 8.540822696073574 5.544342330530886 12.8417166350077 0.34332763265662164 -0.004593018687321123 2.3182107398933947
Ni 6.450092363259969 7.904129945269995 7.278139809201958 -0.2766825818335622 1.277125047142149 -0.8400099989197211
Ni 2.244742432122687 7.666514741135265 4.7487384093413345 -0.10111223136199361 0.12790672584701843 0.8920776661492378
Ni 6.586994079192399 3.108187391620233 7.337628929041034 -1.4355371406668762 0.16181134901426328 -1.1743161448040227
Ni 7.0161243591707585 8.336551759489204 10.53643048666452 -0.21230267289559568 -1.0610402814963018 -0.04227202129533365
Ni 3.0229991286615987 1.6420186876630551 2.8018975424887493 -0.8285652474178892 0.5423742118732595 -2.5310523160115954
Ni 3.50740480518317 2.177009557546119 11.393534813630119 -3.111141525937126 -0.30334183629230344 -0.8954046736399418
Ni 5.613790905674922 0.7776944316246814 6.537024300164889 1.414692693117699 0.3754270842943276 1.2185843705937789
Ni 2.5882648484601503 2.7964800314577767 4.65248387772253 0.5577517227705943 0.8670654603756164 1.9096940721339497
Ni 0.19653536489539505 1.2539813011674785 1.8641925866905718 0.4011694833657543 0.3662071083579564 1.4850545306707135
Ni 5.6088769154626625 3.1805451981612802 10.501943972812452 0.4150475268994271 1.8014598850151942 -1.3657129207848868
Ni 5.67798981006089 6.833243732922104 2.78273671044478 -0.21578677478945418 0.8795479091133432 -0.8149990786976802
Ni 0.36062440770047033 2.371499136004 13.265875113124244 0.030955053620617658 -1.6345477244392561 1.2289469447750256
Ni 3.0202297641586746 4.143351599218285 9.950579351861593 -0.4058753734818559 -0.6951777009619575 1.7071430793084794
Ni 9.325205562573501 8.411147436335643 9.581379238661663 1.5280793709716716 -1.1302914024836406 -0.4514342930585774
Ni 8.337885157212833 2.0416929997466764 6.384160974279243 1.4882635245263145 -1.2740896027499347 -0.2529731540317643
Ni 8.542874077186852 5.991114488083428 10.397146371302808 -0.06728191307610992 1.1322976342803919 -1.4935846796289116
Ni 5.28031093233291 2.3697368131385033 12.573643083570607 2.18286221305635 -0.39950726517198293 2.5498200835374023
Ni 8.114210020188782 3.2308506577345986 9.078940989708425 -0.09632046640030507 -0.7934480919997818 1.350011965109862
Ni 1.941417761145849 5.987580517892828 13.824703963989547 -0.6117019517348046 0.936384458486413 0.6529794703273528
Ni 6.752354045841745 1.7011730594022823 4.559805276362552 -0.03532361500195851 -0.9345980560099517 -0.5599513015250743
Ni 1.7325964882738454 4.069623097115184 12.502595363604177 0.8713468613597898 0.286959538279538 -0.9419673518908294
P 4.9953927446179325 2.663214854771611 5.553791737895409 0.10766520198916296 1.3027453188134146 0.3047034925265204
P 8.82483641120679 4.21673509631597 11.304144949173107 1.360271438054341 -3.5298451615319015 -1.0425944160862883
P 4.015233524234524 7.264677154423097 1.1532305151267552 0.7574277080411148 -1.481330544851907 2.922339507266632
P 5.32518955641565 4.518623800513515 2.818629352805406 0.6752614216540048 0.6246281728781694 0.27645735319663356
P 7.767815670292731 3.3548566460321996 0.28093384612541816 -0.7904617556779483 0.09200486974408671 0.6659907949853562
P 9.0131065751076 1.4236398436951012 4.169110418879321 -1.1302376664275695 0.6002237758918759 0.25194959786325644
P 3.6176385666429973 0.02395919895711604 11.800961481430006 -0.3294863558981551 0.32896365062546573 1.5160664056711954
P 2.370128440441947 2.4914956066711054 8.769679435300572 -0.5549448494494185 -0.36694475785492936 0.9618409508863047
