# total energy = -340860.00464123324 ev
CRYSTAL
PRIMVEC
9.28796241387066 0.00000000000000 0.00000000000000

0.00000000000000 9.28796241387066 0.00000000000000

0.00000000000000 0.00000000000000 13.59387183432840

PRIMCOORD
 96 1
Ni 8.941168319114565 9.365609618186198 2.962037045488939 1.2468451652116848 -3.1468189247340774 0.7317650131676882
Ni 4.789755694444972 8.701362421685126 13.282137107828387 0.7630111156661633 0.19396839336278207 -2.062431740981719
Ni 6.732100800759373 1.1326019811084134 10.672072964722464 2.49531012541498 1.24509218707632 -1.0117892577799736
Ni 5.156880978448746 2.194420401881037 12.772638508029408 0.13031739217104008 -1.6456749447006689 -0.4224029388232338
Ni 4.360577534623928 6.243730457495213 12.33150395439912 -0.2361267718983869 0.20955724893997457 -0.7436923607328935
Ni 0.642819867581684 3.7380611525289305 4.012244584648156 -0.3739427864393172 -0.5502656988061942 -0.4618925122774239
Ni 4.731678066472305 3.394926675026579 1.7700032515112627 0.47494574591695626 -2.6529187492018056 -0.33419815955152765
Ni 3.267793047697319 2.4337526132355354 3.8796366323665388 0.8583774456833153 1.171732957457879 0.06015275823049641
Ni 8.990375943134906 8.487089132491231 0.35666610970983226 -2.0458856636975797 1.597499670547023 -0.298096528732964
Ni 3.769621648267156 6.835392228983269 3.34951596997557 -0.5972122427590617 0.40424452274665224 -0.0020388848068997145
Ni 1.603984641410474 7.718231617126229 13.172651537577467 3.803183509483579 1.0415772876756837 -1.7255928013732347
Ni 8.045576558797215 1.8544345435827052 2.1635323546099827 0.1360021012606432 2.0867574622112772 1.0899978450709165
Ni 1.046400403431407 7.447208878561953 4.540434279686571 1.5732644521487422 0.6172851022495369 0.007039680455600779
Ni 2.457390477171316 4.5605566499093095 2.398774147387932 0.5598965370277389 0.681456237610807 -0.8670307504829391
Ni 7.136814468004053 5.576464673261672 10.057426273045063 0.9817736852544898 -0.29649396013253454 -0.007873232100489666
Ni 2.5758770116423397 5.081713499929188 4.720145203741831 1.1434983880922178 0.3141175867515687 -0.14538971312313026
Ni 7.792479587382666 5.0897940270899475 4.774411980801786 1.0727984504734942 1.8235806281736338 -0.9718728812010101
Ni 5.806044524249738 1.9282366916509621 3.2328405881440263 0.781863472485976 -1.4809865312489268 -0.1261851151702214
Ni 4.487079580519934 3.8677025296667016 7.540370855151916 0.4492084890518521 -0.3190651605648311 -0.8328918998177011
Ni 5.996847132828419 3.974077561358842 4.329946763907303 -2.4457873360945035 -0.6397940819853304 3.051059987264197
Ni 7.189282166775458 0.2988448294953688 5.031499989596768 0.5274337885133432 0.4176949918246032 0.4009925914682578
Ni 2.7536114573300017 5.204323889640875 10.668117221598594 0.06559192696819673 0.02842046012422202 0.26179743719161364
Ni 8.153892774600386 7.034637595250605 1.8975548371419413 1.0337631909479035 -0.9009204612518483 0.09996474802111172
Ni 0.02744499966359078 6.275458136554005 -0.42858465903302967 -0.7210411989922807 -1.3131562297340933 -0.5458187187784341
P 4.749204451245122 4.839724931370119 3.0104171120724703 -2.3407731985749427 4.160345991140764 1.1763969385924513
P 7.934557545978202 2.7664009813534087 4.257913043852159 -0.38408733107248694 -0.11902073621129826 -0.30794693916448257
P 4.663327952246996 4.115951184784795 11.607779434013738 1.601680284287274 1.4645965199266777 0.12601413680999587
P 2.972965261876695 9.008180966775335 3.811749058661466 -0.4687355033411863 -1.448733327642176 -0.5454999019864347
P 6.835745171548912 9.082363921295995 3.036789352095754 -1.0090906279018879 -1.1867330304111368 -0.7074560041086784
P 4.62182004893501 5.5143467817086265 5.95691632550712 0.27282644131226563 0.06574542182692548 -1.2482700705836696
P 4.356137888666638 1.3454449241152313 1.1705163718244254 -1.113162456112838 -0.757931644260727 -0.14938289344292338
P 0.7150653531762132 0.8791483519433213 1.1384924067697384 -0.07741360219347312 0.10555921138975369 0.7361304892252355
Ni 7.592193969342911 1.0653571343913004 7.2778057350159 1.153602052185123 -0.9167759402268664 1.189820668197525
Ni 6.259687176647146 6.365681401886883 2.922491688601169 -0.9444597792953798 1.9025731448184526 1.1670306668862032
Ni 1.3202559704830752 2.81682532842899 6.37265759033567 1.196718423758623 0.16399370137756272 -1.9391476015083764
Ni 6.481818081907709 8.71595381038576 9.031007062810138 0.6669418460447158 0.917309187022517 0.08869868818898917
Ni 2.285024473666318 2.244333911032662 1.546724354116137 -0.22523557890717985 -0.3524365369364253 0.41240957505594783
Ni 1.5786749442690193 0.9817747620698501 12.583983276323792 2.100220529694718 0.5122105438056855 1.8783052734100234
Ni 5.416748874346275 2.742001504512821 9.829130018440466 -0.21011903498071557 2.6849618936802795 0.4320564027525979
Ni 4.598275064621768 0.5748774948993147 4.836332038758827 0.7853455174973055 -0.294691359706157 1.3926472832818855
Ni 6.238872853236503 2.436873368552794 6.088436657408823 -0.7093174827974494 -0.06655711909494344 -1.7115790035926457
Ni 2.464932302521357 0.686644188679754 6.314611541434667 0.16207668686050797 -0.17268685827618643 -0.5969319925144816
Ni 8.583878987137506 6.783983357908792 6.477438807705068 -0.702332309728868 0.6548538045319303 0.3775965811418207
Ni 6.463780859210936 4.702588168693577 6.8491774225602775 0.43228831625774583 1.745044482339943 0.0986750826754107
Ni 7.598537647562218 3.4327379693615745 10.818342580683113 -0.05073017936501585 -1.274087802977722 -0.4583019667126882
Ni 3.2211303253345047 7.3742240711720255 9.848107182917316 1.1391275127180318 0.7238717264625405 0.1894982734065704
Ni 5.346866246349098 8.835294837384128 11.123824588005009 -2.5189254508410746 -0.09731419777214209 -0.3003575568529988
Ni 6.8285191369154985 6.727419667783485 8.027113018632994 0.7779194002365634 -0.5387836663085237 -0.3298887335428964
Ni 0.5952608568613832 5.104636190771432 5.946340122888779 2.162543041883024 1.8308805042691565 -0.02306716623210866
Ni -0.13044757226139625 6.542700674481007 8.712190328080542 0.031788605265506545 -2.5425268923100988 -0.7028866395704411
Ni 3.085321741260247 2.9092777047027663 11.298084407013546 -1.3260225441738 -1.5688179863416143 -0.23597996190787746
Ni 7.845105181512384 4.668046237071899 12.734684179075705 0.9805326137585372 0.6777481926316005 -0.6105421270987484
Ni 7.301852269290845 7.39749970457991 11.705764649402072 0.13544237210243124 0.13084318276752305 0.9182540674342895
Ni 1.7241058572381567 8.065267038775154 1.8152439868530286 -1.8239974039960782 -0.17689703970279214 1.9138361193267814
Ni 8.066381594245604 7.3425056800754875 4.397685730216315 -0.8271601395402464 1.0277781770090622 -1.839321693057974
Ni 2.7856363511809143 2.6888929363459075 8.213933877793496 -1.0670983147649236 -0.6365159254546908 1.2437467287920192
P 2.380244662691711 5.632842604141903 13.580630852350565 0.117678620361107 0.5864542329116094 0.22508645492382526
P 8.669671894475348 0.47135386761907416 9.370541526142938 -0.6670912271383865 0.47570447845985175 0.9042598100377265
P 6.8080206042214835 0.6274343581083556 12.64257267101664 1.275137841508791 -1.2092666927372786 -0.8168502729738062
P 5.536340676325493 7.024290805299933 10.18698870250368 0.49199704497228813 -0.31769501969018193 -0.5026015599610119
P 9.20072971225772 2.2994672549708914 12.134991106626835 0.7054513149738237 0.1571802780001551 -2.919019441754463
P 0.1635155042734042 0.003932523218235587 5.558276056780163 -0.7622171590099582 -0.12079762560606294 -0.21731683828073542
P 5.944945999754493 8.93550266213978 6.966587482206092 -0.5624709826231344 -0.5602572628012674 -1.3239350655171522
P 3.108105112668683 8.859229916112028 11.810899738133337 0.06448815238105668 -0.7936452956122525 -0.4573277757248769
Ni 5.915753934390973 4.174939033058329 13.60678575405711 -0.5914856246879296 1.8737760180811018 -0.18628156624148565
Ni 7.114997044670005 4.325199686399413 2.4805685869755365 1.4732999612379465 -1.2983263638101123 -2.5829790867878746
Ni 1.3751942672139763 1.2055217727625644 4.05741751786547 -0.562917840352566 -0.11658615862787662 0.2539252335323885
Ni 1.894809315499734 0.38320739064613357 8.572417641716386 2.5920720502280776 0.7490055454156906 -0.4774628559118551
Ni 3.2765980359138696 7.6337297365416585 5.751226971028136 -0.5571097183112211 0.48839107278858473 -1.291581588887111
Ni 1.128431686056482 3.83200889072556 13.09924505670122 0.1661482858267203 -0.15658969560400773 0.46241676021201
Ni 4.675820261478283 6.362077672532429 1.0785469695878436 0.29865677211180824 -1.4074288124664343 -0.16105493046421296
Ni 0.16177308255460165 2.2500367198564613 8.283847156066109 -0.544912662024397 0.7652585169394434 0.862427961603605
Ni 3.795535062955104 8.421302495847955 1.4325762268138373 -0.43473497802602545 1.1716619950106273 3.751410747786662
Ni 9.389944079291011 4.527222153380619 1.5223638867170148 -0.5543085014170002 0.11595675257399385 0.07814790925633638
Ni 3.404363244676384 3.6572744568458573 13.688076786090562 -0.49715133547971796 1.0776030709509894 -2.3913393415582687
Ni 0.6612360391384093 3.9402972426419716 10.810771033853861 -0.20664830282329574 0.8932768286636616 -1.1493185943184208
Ni 2.8530855330676097 5.59845856787854 7.078546436805183 -2.1785345322152736 -0.2250203775725802 1.683049271584069
Ni 4.690987503838649 7.074780168111291 7.485288595006082 -0.5686231182674594 1.0453802063615416 1.5594591708345338
Ni 0.9549139752320198 8.048344371548831 9.891621286076111 0.8281932087904511 0.5188401333070614 1.4652776051541023
Ni 8.373878160580336 3.6324477337415972 6.311593882498425 0.016365585842216975 -3.301427328241998 1.3272906122529464
Ni 0.09769264457733952 8.692483129770546 7.694634620224365 -0.5278353948271362 -0.9946168597657452 -1.7023669980760745
Ni 6.354703030502956 0.538462181291057 1.0003061043585217 0.5427305667714137 0.4925243782306679 2.454071173369851
Ni 4.770715371824795 5.3540737050580045 9.210146777186791 -0.603476992721851 -0.5768447348463034 0.7962109994568998
Ni 1.4059467102361256 1.6750654165383838 10.240453928421134 -0.6297287273295283 0.42178098896851873 1.380551785569932
Ni 5.81262040152539 7.317613941235451 5.338000886377899 0.18147386044019712 0.0613938297264491 -0.20671463728485692
Ni 9.186259067066386 9.362451711019926 11.524136689937638 -2.7424574167935867 -0.23706702432446913 -0.2293010072258051
Ni 7.9891243242189525 2.5806045844294956 0.09724032081558215 -1.8136088616729025 0.39436788706288856 0.33168516332168685
Ni 5.0922460491249355 1.512748988191938 7.905841953078299 -0.4354829119356435 -1.3101614087718276 -0.21883918846253278
P 9.237519330744805 6.42879310540108 10.8875629769716 -0.5606010192939312 -1.0474931389394864 1.19619263316214
P 0.6995145179747682 5.907979909984589 3.0800043828699777 -0.10948811413051465 -0.4696071073128622 0.030091677179057853
P 2.2989192651979207 7.711442116718741 7.814818065399147 0.2325241421487931 -0.5032726178861074 -0.3794760575527207
P 7.21490765463354 3.07952605281391 8.20059822158957 -0.7879042793634172 -0.03097870776970148 0.778432078206924
P 3.850166856931631 1.2982620758662071 9.756280815299442 -1.3086634840700622 -0.5412087308102486 0.11372812035379122
P 6.783110289456939 6.446635280890523 0.2058398194674943 -0.12460105851255315 -0.442372182856309 0.07782857824370466
P 0.9554062372314683 4.445413781849634 7.949396923271009 0.35683080934937905 -0.4149613949435241 0.46973874779472
P 3.9127027067860953 2.446802200202047 5.982649553727344 -0.4884751478619587 -0.7176272882147254 0.23435579604089318
