# total energy = -340887.71365695476 ev
CRYSTAL
PRIMVEC
9.10110284981828 0.00000000000000 0.00000000000000

0.00000000000000 9.10110284981828 0.00000000000000

0.00000000000000 0.00000000000000 13.32038397428701

PRIMCOORD
 96 1
Ni 6.698812184525956 2.152966003640604 11.435683234445568 -0.34241977613037156 0.4416887836360393 0.8571466586000076
Ni 4.473228480828925 0.5900463437947467 5.992534745457285 0.057108572087533914 -1.4165971092292635 -0.04624848944457841
Ni 2.6641567514497755 1.64696288448567 4.629432530159476 0.28960648898408187 -0.2526957320006616 0.6076486076010373
Ni 3.654866408968562 4.733665641477466 4.795858028159455 -0.059493784490258834 -0.4995460609641396 0.3196603709466688
Ni 3.8080288697092066 2.861923717513963 2.8086167375953637 -0.47977967697048984 0.1707862988193639 0.1307598790250974
Ni 5.222667900411143 4.704150764765724 2.945190618076221 0.051907230392252535 0.4418548769002584 -0.6734732194053304
Ni 5.368695096476485 4.857540753078923 11.423535082291748 -0.36457522918148827 -0.3334808217695289 -0.8184088757101775
Ni 5.869938338813585 7.961799537569008 12.17504409267392 -1.0394396725073904 0.6050350812375903 -0.9348281697428868
Ni 1.8286208984130141 6.9782524480342305 -0.04800012681634297 0.5139013012445472 -0.4462067261110509 0.4531255647180712
Ni 3.2672140319534666 1.9217524844109357 0.6734989068562087 -2.1143433422493456 0.8232644040302661 -0.6545889809063179
Ni 8.223155909610668 8.78745159285401 6.729791428694658 -0.1614205413337478 0.2772916761724708 -0.28872845725450275
Ni 8.376618706747085 2.3154570948559745 1.3889293251135926 0.6266557448311595 1.51173666794759 -0.05862372318047969
Ni 6.972081900266559 0.8007350557594376 4.696381153218139 -0.55102108891498 0.032515970349834326 0.3197938112007396
Ni 0.8810113339080419 7.691096332846817 2.1989820900242734 -0.016453517570332955 -0.37515583291081195 0.40736738464635
Ni 7.615739200816837 3.945400916914584 3.3703905052245147 1.296746163807186 -0.1737782915681523 1.823155881931389
Ni 7.920844574509236 3.9969950692669944 12.62231597458056 0.07092799446912947 0.29465305026905386 -0.3781092591121811
Ni 8.428640610935899 7.130868842600746 8.849210767037857 0.42838743854144284 1.5612419737665693 0.1343851344825105
Ni 6.939800288272556 0.7859594151977621 0.2174936066046446 -1.2569796825425255 -0.6577375538376286 0.018572106575232533
Ni 2.1576712738410264 6.075077198228531 9.195273834120899 0.16542529161776673 1.8415685801106219 -0.5102727033530244
Ni 0.3269789644074781 4.838828885512059 1.1615091455735496 -0.27396569712303137 0.5213179054235925 0.28331062867304113
Ni 6.3403652467239295 1.9521683703099928 6.852458823940996 0.920756265030853 0.2661860531776125 0.7198808601355924
Ni 3.4951238508296467 4.6268733000233855 0.2733352436814986 -0.9523494664561017 0.7930829953508792 -0.45220973777202117
Ni 6.270132035627872 5.931607412078699 4.969422431275898 -0.20386508365120373 -1.4874140320418254 -1.1313409267940775
Ni 5.699201648368846 2.731923563659345 9.467516035343845 -1.4225687534316662 -0.14424840042983544 -1.8681599574459054
P 0.30131658455422494 5.718432278801134 12.189350116325844 -0.493992221025446 0.2775295032148898 1.5144615230779208
P 4.01282188721387 6.617157089287673 12.419925648242069 -0.3186586691550318 -1.606273560084911 0.45411903897959216
P 2.444720059375517 8.933096542597461 1.0565579572365777 -1.1602344698999763 -0.45040919422817266 0.1229684080051366
P 6.411417557081183 7.895334183074449 5.674044379726664 0.5174090572874896 1.203128955270657 0.03291140601604009
P 4.911910741816496 1.2734081158660386 12.763125508352088 0.9828666612083524 -1.0919979062200806 -0.6904185890104173
P 4.329403751665908 6.291883671564061 8.176624700802735 -1.0210557706835641 -0.07522713606511561 -0.3579800924624738
P 4.665989840296919 1.0197057713651048 3.8668411067733293 0.6164021854239513 0.08334359452466292 -1.5811389698008125
P 0.20340782964295367 5.949973437735281 3.2954893384499333 0.21745747762365775 -0.6230140343135141 0.4190934148340267
Ni 0.7624166822104248 0.21968242185261685 4.556956807308323 -0.910179003735639 -0.8613936068018196 0.04399543174434359
Ni 1.9997762395912524 6.537877381906856 4.77831474220523 -0.041178274010522625 0.12248195528702133 -1.5879891599534264
Ni 6.3298807761806275 5.973854731750579 8.95144436604824 -0.8575783468207876 -1.565946321220774 2.8121109154256665
Ni 8.822718366599926 2.5354398531043634 10.10184652563998 0.10719777543444119 0.23710224843777875 0.15190000343782228
Ni 2.4903711915328097 5.189822020037206 6.903595190817427 0.35329837071608833 0.0007561614397341816 -0.00031341747536075057
Ni 0.8162096610239999 -0.00586657093073978 8.774842924893342 -0.6046424737848619 -0.1649378104583869 1.2883412275729424
Ni 1.5696945208462334 1.1199635209354264 11.17173941884882 -0.696886199012632 -0.7896585430503625 -0.4450011358387239
Ni 4.0807070137611685 7.027434808117565 1.3625424974693265 0.5465378563326457 -0.4807261000441591 -0.28218937058440435
Ni 6.10986161352063 7.895761934910851 7.808849132525984 -1.388975747967569 1.529029650700083 -0.331805490949635
Ni 5.031171594246552 2.8418648867175773 5.095287043971769 0.7204182206963012 0.49597197045963615 -0.7399593760530224
Ni 1.0792360854482088 7.376316486769411 6.812564139369327 -0.8435838323139085 0.12202892691000275 0.8568216711604211
Ni 5.175906433699786 4.5973584233116425 7.113244556830691 0.9484622155865536 -0.10200080461453401 -0.8297533541887194
Ni 0.6766324165854264 7.500883282191433 10.795651813291512 1.3013646364158038 0.7527179612702715 0.7116944676700582
Ni 4.838756076688841 0.7703583046028597 10.556923513395521 0.5543563239358 -1.656895753117153 -0.009470658494596593
Ni 8.142711261058373 7.632649050009072 4.3709511965246115 0.8351099905149424 -0.7267019968224839 0.1260899843532538
Ni 7.53523994564713 5.9871787463993575 7.092012593870215 0.6585273967287756 -0.06731199498309698 -2.746896940622179
Ni 2.6392106283949235 5.403870859193378 2.38253677379643 -0.7312675047059793 0.3922796370752922 0.81688986796249
Ni 2.254479705411425 5.35592624910474 11.428037397897453 1.1818196522699196 -0.2662341328067286 0.26062167171595757
Ni 1.4799667473337244 3.7500639453252758 3.7884769703444716 -0.8985288210912202 0.07157334136261223 0.2973344537559589
Ni 1.348592326940878 1.2914556029210449 2.547336814818082 0.21328946228889717 0.6653634458140024 -1.1819119548734096
Ni 1.22668305356629 3.3977238475706066 8.304420567534448 0.3083212917847658 0.21695122741120057 -0.33152009849873226
Ni 3.6899966661709436 2.720410668488098 7.269252932448845 -1.0230247214844768 1.5303265151346352 -1.475900374975271
Ni 4.29672169114421 7.033514344856216 5.914570147445833 -0.27226876903658265 0.3782954069810582 1.0765183225272428
Ni 0.4612766590525019 0.028977001530223995 13.381124979600566 0.8181594787035328 0.7848878611345966 0.053510056102998166
P 0.5110660626994118 5.570985310683054 7.889703330708876 -0.578653763030584 -0.7870951531985606 -0.609377417366686
P 8.733946208892144 1.8611391390824732 7.73494726685006 0.6506600781655568 -0.11582202676834247 0.14863521664362142
P 2.026497077712028 3.4075348364991473 10.54698692924693 -1.1508244894399857 -0.44127509313738844 -1.1114740126668212
P 4.14060137196036 6.606982056243044 3.7860260433329165 0.5001566979649451 -0.9861178211557984 -1.5290587041658052
P 7.043288929373149 4.196190908486823 10.108772464948533 0.7580666271766945 0.572507283813214 1.4988544126682832
P 6.7213283131059285 8.315431991935785 9.974769646037538 -1.5517150081127404 -1.9187392130553536 0.9288989487426454
P 2.4915725371158963 8.484712505916177 5.651386273941417 0.6917763885898925 0.8475538727052498 -0.050138825637920104
P 6.9573472146679425 4.130180609137373 1.419060346491812 -0.6620091846297889 -0.044623038026013466 -1.091526880120933
Ni 5.233525516173434 3.249621600043569 0.2588098834496328 2.1394020849901865 -0.12655921068018847 0.4247290158532491
Ni 1.367577227594808 0.946933352559341 6.839151191277441 1.3697372114529311 1.1605969954457174 -0.9581143939643371
Ni 7.391233194426069 0.7617422904853739 8.776161674703868 -1.2380172825074098 0.6022238370410403 0.9997667793978007
Ni 3.041506679979612 1.758842742462065 9.38483706602907 -1.2553658010881863 -0.23381946392144895 -0.24212566979429914
Ni 6.128045617119169 1.924373602046761 2.4959865720234498 0.5737732950098311 0.43825893201888394 0.1703461259581518
Ni 4.208550206227972 7.0907420799050715 10.276982689227626 0.5799372577286981 0.4710896053956597 -0.2945041833960154
Ni 8.4454139435846 7.1464408296663615 0.33532831620993026 0.022645248203341645 -1.155805744704661 -0.3582027499962412
Ni 7.622883566595042 3.7568351658844916 8.005670493998636 0.5657080015031936 -0.06061375702731496 0.01033506337742091
Ni 3.142665438737249 8.699334714555187 12.185167249432006 0.9225431817279466 0.2350674773959371 0.16089680761979389
Ni 0.0407811319943405 5.132858216972514 10.107081480029308 -0.08247867542120633 -1.6670467255082257 -0.43409631600076215
Ni 9.00735244117628 2.558401935726542 5.6390642907221675 -0.2525070130286232 0.07512326349739964 -0.08492225186569245
Ni 3.7795879231399208 2.7366379349626695 11.585590230678104 0.16916598960712156 0.7637649631130524 -0.02179241328474311
Ni 1.3927963837367252 2.8126230430929 12.678234971032083 -0.46102270807796086 1.7755148830146583 1.0905416333895284
Ni 3.3459476731601527 8.483411048201166 7.939521857885072 -0.14089979567257668 -0.8742900031485137 -0.19158600917353455
Ni 6.041039073374409 8.226377700038038 3.22728931374222 -1.7977325567622782 0.05623953921901928 -0.4331347234184411
Ni 2.941430952467334 8.407371333453522 3.2273957966461757 0.6894436266916578 0.3816794929619427 0.9463107164611897
Ni 3.7094366219699824 4.333917898705385 9.146574742601668 0.3859704070278127 -0.561324527723517 0.7924147656392612
Ni 7.574338283714859 6.600019712522883 11.118191259703313 -0.9044115051242424 -0.6171287791773308 0.8831777925564468
Ni 8.086757680415824 9.119942185179044 2.205162649005138 -0.2738607961140509 -0.1118275608969687 0.7968465761583695
Ni 4.464882769467634 0.25359313126610805 1.5107976435251207 2.681591177435833 -0.29738304760570716 0.5027265155746503
Ni 6.067523282819729 5.702186810120758 0.1839815254982685 -0.0004162616018121863 0.4762906899806249 0.41510152006581413
Ni 8.166355926398216 0.21133215993987448 11.190467668400908 0.7066530485914089 -1.0280126616173715 -0.36459888333057205
Ni 0.1696400075450266 5.071207345913205 5.465126742386735 -0.21043939443461177 0.2749128915276491 0.1940619815178529
Ni 7.111838436432304 6.2178370983519935 2.576988208073357 0.971215193012353 -0.03924557576418402 -1.3033960650235359
P 8.493759002200935 1.8962602951819532 3.619747983199952 0.260548395275861 -1.1993951992598377 -1.4138943655861196
P 1.8836097621479346 3.3822064671224044 1.7082597226420857 0.7336254634151946 -0.3104594211736911 -1.4431900292264437
P 4.624233980181756 1.128691478618609 8.112153397954042 2.6034921191395615 -0.6894302569552191 0.9670487203394894
P 8.605866387749884 1.7740415843086912 12.53749187531174 0.19201126963641124 1.2095423149961686 -0.5371821261493588
P 6.513868672450927 7.742089812407684 0.8515938389973527 -0.5908207374104212 0.7403077605313766 2.7023914020106363
P 2.0112618314537927 3.290958809425232 5.927370848677738 0.2897052193454752 0.2464374097957756 -0.07932033229788275
P 7.258193272202125 3.974387929658 5.703096010300684 -1.8846224738773025 0.5937942182164484 0.6611010709932227
P 2.5153446178963685 8.526632185883578 9.938032134062633 -0.2237199135936018 0.214706654351398 1.5505053040753554
