# total energy = -381177.79112215596 ev
CRYSTAL
PRIMVEC
9.13616536030216 0.00000000000000 0.00000000000000

0.00000000000000 9.13616536030216 0.00000000000000

0.00000000000000 0.00000000000000 13.37170150255679

PRIMCOORD
 96 1
Ni 6.671035915276616 7.666676918338899 2.913546812596764 1.3031651799596522 -0.17985149434542572 -1.0532994612086182
Ni 5.26152663202272 4.925964423122992 7.55573281075217 0.12694024816869104 0.5036888794879196 0.19338012495947987
Ni 1.7584651102278155 6.901239867947433 3.7402656041849904 0.37550010362410813 -0.8162398930833169 -1.8085820978822724
Ni 6.53106986555177 2.825423018260865 7.190378480994234 -0.40809037885530364 0.7313094136875082 -1.3344441925785921
Ni 1.6112723538885867 7.704427552638054 5.895435794799385 0.3162420892937392 -0.08548223813422053 1.5786054047456812
Ni 2.4265471850404334 1.8861156093632943 2.7436991075954795 1.2274482487423117 0.047484161623892414 -0.08105968358649265
Ni 2.337122400790643 9.206787682063855 4.088116868795221 -0.7008554680730251 -0.9742249263729543 0.24459135772597232
Ni 9.146123545629589 6.655458753737395 1.8347575707260066 -0.6986427766924226 -0.6649309862622742 -0.2352633954568271
Ni 1.2334827897781382 0.6763046234256962 9.444820414630836 -0.4308996634403353 0.20585614593930354 -1.7507253347748042
Ni 0.3733055342667833 8.011338747703768 11.01475162132589 -0.19015647581585962 -0.22790592665049136 -0.509904007159696
Ni 2.545947727067457 3.1733647309058397 0.7520160238218968 0.9246535432027301 -0.38457635489376346 -0.5734362233853866
Ni 6.2396079257135195 9.108153643367418 11.643569199278033 -0.5160857104903758 1.4345166698221616 -1.0932274077518076
Ni 8.919510105853147 6.187933775762884 6.620422474097068 -0.5393248835239745 1.1392033602612897 0.9121577247285646
Ni 5.09689293645864 4.209250541346579 0.4837243123587877 0.8464927784305873 -1.0047305511609794 -1.0326547883750732
Ni 5.8804926831198845 8.074040248961053 5.002112532212198 -0.9892023736183931 0.7987651333373211 0.5237378277189948
Ni 5.751791524994956 6.910595301036091 12.14918010881181 -1.4599785615386922 -0.32843246071234405 0.18297229936259454
Ni 3.3754749758153055 4.775820685448181 9.478717414479995 -0.16365662975311818 1.9312314319850934 -0.6526966489796114
Ni 8.74468045000885 1.5545276322932204 6.159300120642608 0.38646534438636027 -0.9763201183390865 0.6249624162891365
Ni 4.177009014618186 3.3573122795455284 6.362134863446538 -0.5738200890873666 0.08714059967324993 0.1352536531303929
Ni 3.7360063240034154 5.00013181161296 2.0598708521888165 -0.7123472707627087 -0.8015138997270518 1.3416106284200444
Ni 3.261355137230904 3.0040898634579327 10.823576452455306 -0.9046591023586741 -1.1896748866482802 1.7248317548374938
Ni 3.5572663894853433 4.086497026718444 4.177400042485563 0.030216118572064087 0.013809395079266538 -1.1308650155989233
Ni 8.669544628015567 6.6128842242519 9.091887614977724 -0.9995934870447302 -1.108790038076755 -0.32152262096638823
Ni 5.371809281254354 8.265068325573115 0.9499519548854571 0.007201402844445662 0.6188064239900698 -1.4778207319264354
P 7.716670013906415 6.867280742175419 11.115093209284309 -1.3687799897459847 0.1150949187943308 -0.857373172788517
Ni 3.7103976531562393 1.6129259997763283 4.911827121207573 0.3871423158487268 0.11669800161539257 -0.022582513286206272
P 6.974429686768957 2.3039215767240577 11.030009017085714 -0.42051986286790805 0.2946440514079893 -0.578849681091474
Ni 5.02430610453541 5.751188538096663 5.052898646912621 -0.8970722911503519 0.6749883704982762 1.5082453669648799
P 5.773261513040215 1.357889950294014 5.223120021067544 0.6054814247463894 -0.7757241923574575 1.2470305417496135
P 3.6840580890990116 7.7461798272622415 4.97871207247589 0.03154974978182308 -1.1212046096910238 0.21665375077543977
P 3.677187692924528 8.50689348028375 12.585738968709467 1.6019782751436669 0.4743186538559186 0.4243834595883723
Ni 1.6964945021805813 4.209780438923866 2.619408889993212 -0.20052444931374497 1.3112829239707802 3.315065230740407
Ni 6.612007152399838 2.6238792155891884 2.2643903038419144 1.276435220163976 -0.8925031837224308 -0.5473770644044895
Ni 8.83829873405131 3.574241384288787 12.066074809979428 0.3425442175233778 -0.13186571049476645 -1.4996964489536042
Ni 8.771303235184973 1.0907850266807257 11.327140861000938 -0.037852809181715456 0.6940944952001078 0.08716605359454667
Ni 7.402358525088932 0.6945239639192528 3.917386610242799 0.576974061335316 0.9302966004211204 -0.29273500731073454
Ni -0.08355023007400192 6.2289734295072705 12.616467546493055 -0.30061235317628227 -1.7577539594868115 0.4727651933258697
Ni 6.729726640043744 6.149433975923426 0.9054972026171052 -0.22924572850783748 0.21439246554508884 -0.04240623288035278
Ni 3.8646526651375894 6.736578763887977 7.799914182448709 -0.3872991531415652 0.9584617500014267 0.13845056280113577
Ni 5.266131259246044 0.6077331360751854 2.9707638739291258 -1.6862045293835992 0.211127678750888 -0.06456168593146945
Ni 8.995559544358997 8.477018220322899 7.551775024019742 0.7308568995311219 0.6094589213368987 -0.05797014875688081
Ni 3.88065009027259 6.29833519514115 0.31282138028549134 1.6083566678661851 1.6753362192105274 -1.6470191174333892
Ni 7.713737304901084 8.789730880243393 9.420404013332556 -0.6889926551971682 -0.32674504570759216 0.9353537032290535
Ni 5.689820916947722 3.3112111903215355 4.371703434295168 1.0720487167916635 -0.26400807168968726 0.36222652644365355
Ni 3.635380601309588 2.5372957786934736 8.633171727417357 0.6549862163447365 -1.3754046941513538 -0.5801128640746138
Ni 0.5885042493352454 5.127014872877884 4.852950932288395 -0.20465235543918947 -0.46095585939576744 -1.0171466654371448
Ni 5.641317016295685 3.8643603078535693 9.647548264302795 -1.3170558218988155 -1.527754126421769 0.367429925021464
Ni 7.50539619537593 4.00668348818083 0.46799183601243105 -0.057769602710300516 -0.14300398649977306 1.3090170107547392
Ni 0.2019293488399787 2.4867453770532926 2.3239745455583307 -1.5266616646885385 -0.8710869228301837 -0.21492236990662983
Ni 4.307071461346834 7.1378848170318285 2.714481651523674 -0.28444062851242624 0.6386630537046807 1.6197430553262555
Ni 6.917895096971479 4.82314602079901 11.908971141711902 -1.3545849291925252 0.7296104287185305 -1.4952535826909021
Ni 0.23216091924073018 8.856571064302596 2.5811795206414723 0.9213116233136908 0.07378063342657615 0.6830888881182237
Ni 7.8457274824712435 3.989169459634973 9.718993989201833 1.1107268500881515 0.5902610082522092 -0.3352119455280227
Ni 6.427949969778641 7.059542201079443 7.092604155436118 0.20069671322555116 -0.2857007261717725 0.853682097090175
Ni 2.1538874730307542 7.036756605256091 12.173422922972703 -0.14983257938583228 -0.5255895362157529 0.32916599644425887
Ni 1.7846859041384098 7.460071680187617 9.06450196001361 -0.039469261739215895 -0.23896295579560137 -0.5472004296173092
P 4.534150845544682 2.793958065568152 2.336503882411637 -1.7639210075294718 0.18085602435054016 -0.34653894050506767
Ni 8.454095582022662 8.158047287291337 5.240717188716044 -0.10465161197381977 -0.27119610479769424 -0.3735234395137116
P 4.700109285051981 4.760143026092578 11.392568593931717 -0.6605266865469914 0.583976203684762 0.756972108560935
Ni 4.4283449172246145 0.2786192325211356 6.950583382174516 0.23532047394700764 -0.10117728027197415 -0.7507094154806749
P 2.0838130865170754 6.319074289976359 1.321943708607173 -1.277370844604368 0.13733984623546025 0.7492348878176773
P 1.4918261310359349 2.61209356257711 12.212989826898836 1.5048340272904859 -0.741144140389743 -0.19017035977293056
P 7.958184539002779 0.7554731487054399 1.503166852806395 -1.1943625219319365 0.3583516168692796 -0.9017064474882535
Ni 8.037495588458482 1.725364783977612 8.467936872188009 2.937149061475638 0.19434197465211692 0.4496982842040771
Ni 3.905016242662679 1.2253790113116931 0.640914774195007 -0.2560363663381204 -0.9192190024507202 0.6052649378602092
Ni 1.5166856363428085 5.31369413489014 7.919884821179572 0.6038012088304892 0.21842138419882381 0.6510254319247756
Ni 5.923112893431006 6.192538402986208 9.800159680178043 0.49754625692529153 0.01719990881805425 -0.40774790791422033
Ni 7.05451731026034 1.8840873807054015 13.196799496123413 1.066753272720679 -1.3519117532357363 0.7830556930218644
Ni 7.19996505906057 4.961586330947872 5.343438747689695 0.19817523235527804 0.847239683898941 0.24694623111139408
Ni 5.006664169677793 2.2532524049372435 12.403095150833208 -0.14381491243684266 1.019180150927406 -2.0340087097543353
Ni 0.5866770163101169 4.487885305348428 0.8292047421189137 -0.5280333697705551 0.6297387546318574 -2.085938051633775
Ni 5.947734858444614 1.4915429099170403 9.169951577893777 -0.7171560050052617 0.03008293542830948 0.5551497663713729
Ni 5.274390352519625 8.367640051438704 9.226767561577121 1.008149347034541 0.03792788539402501 -1.213877966257045
Ni 1.126416070670732 5.545314193155432 10.553281179980143 -0.06490775641697855 -0.5349856327186722 -0.36301482667290386
Ni 0.895571672824607 8.15644845839435 0.21961148282414747 -0.7206869009766557 -0.41874400191440786 0.36855169733073306
Ni 7.661460168052158 8.113974426725237 13.146762546963293 0.5075810154534742 0.9438308874621294 1.2316471173150079
Ni 1.7562450221022843 3.0595098411100805 5.043992713148144 -1.3070863693909296 -0.9234178710234162 1.0727547417197525
Ni 1.1561816966500758 1.1484890456142847 0.5299377764138258 0.1356071798150697 1.4873623528682836 -0.10634108386110072
Ni 3.643795009390305 7.336358868221289 10.554871786328517 0.9648131461407511 -0.23386111579266175 -0.4257690270819893
Ni 5.797865205723572 5.289044761381157 3.007442836059043 0.8505126982232578 -0.29626487484086395 -0.7534494401196572
Ni 0.7974501729917176 3.1176432598045447 9.471416704928094 1.523750918799647 0.023666490379004403 -0.06220835520794448
Ni 6.827611513199879 0.3621968710905144 6.903715768696482 -0.012166203048888725 -0.37173703703725014 0.17252205056354802
Ni 4.1106987281362715 0.8284245136171838 10.554899194823893 0.16923360962026338 -0.48448608130722365 -0.06892716198901677
Ni 8.265917988929798 3.113449760011875 4.42774467117586 0.311560881767986 -0.5820530185201201 0.024582317325054438
Ni 2.710353018503396 8.592864794116046 1.7218071612776868 -0.132112793508566 -0.23483942054553103 0.07446120443336854
Ni 2.614615144151787 4.696710631625241 12.348685633043956 -0.08636952583518029 0.35139935392116256 -0.3629963147301426
Ni 2.7953650349975008 5.613250717029711 5.800042353873013 -0.06884617223943627 -0.08792504324775825 0.3873392623508813
Ni 2.0473323791703844 0.4881946379547646 11.484686719660546 0.1978402176133625 0.4431460849078562 2.4189511897382663
P 2.1647321010348923 3.2982561081733746 7.351948820391686 -0.9977101539790881 0.09019558444948983 -0.4961383208341714
Ni 9.044885699872342 3.748340146923033 7.009498856603735 -0.2380522710558739 -0.47008661805244206 -0.1458928780117939
P 3.2511043599599327 9.001881770625943 8.684933584553198 -0.6492344014626239 0.2979903421724029 0.16194324660643722
Ni 7.950638066608997 4.5461009495290226 2.6023333973733855 1.264598375430048 1.0708747510882202 1.1119946610569815
P 0.45334108161695047 1.2100302539006136 4.259876773157302 0.5359960762610575 0.4645106666265613 -0.19890079766739294
P 7.387722388557652 5.081032553800525 7.778144528187327 0.01071430109371058 0.052163569377432745 0.14336625493519825
P 8.249993653115805 6.481506169745159 3.811603522335546 0.30288366570896225 -0.672504684844474 0.6323949613077819
Ni 1.9928625626913028 0.7545175058332978 6.899490292325873 -0.13030607931713042 0.832371765648173 0.21435312766672118
