# total energy = -381176.03820426384 ev
CRYSTAL
PRIMVEC
9.19400162812699 0.00000000000000 0.00000000000000

0.00000000000000 9.19400162812699 0.00000000000000

0.00000000000000 0.00000000000000 13.45635072668954

PRIMCOORD
 96 1
Ni 4.2398689781598495 0.7385614996026576 4.140128771759695 -0.6404258020320583 0.705833638013907 -0.5592244506613788
Ni 4.667647482214489 8.844004297676404 9.22074873793491 1.1898078126817186 0.6193409563373011 -0.06039469903797341
Ni 7.212041440789998 8.686345559120504 9.674469956159319 0.8465231174478903 -0.015027583757083797 -0.1383279211803424
Ni 8.667222035899353 5.336989182957823 8.859325181857042 1.5852221387312506 -2.5890106376939346 -2.000522147961116
Ni 8.016488994290446 2.6024724663582024 9.371716082163719 0.5212813957587022 0.07807180460276232 -0.1263776907970017
Ni 8.178901031646989 6.4402509807902835 7.008390628887232 0.19448595642914895 1.308136922142631 -1.7791218836396263
Ni 0.020101764985923837 5.382812086676195 0.4304107466980125 -1.364306270245347 0.5642154761180671 -0.6846906853877047
Ni 7.430996587670613 6.728317437311947 3.906459544800654 0.33787355152058585 0.2296113393773723 0.498101100987497
Ni 7.815590866451339 8.832217587691062 2.6666318867651593 0.42278963273869125 -0.7600870000408328 -0.2729799361709944
Ni 2.969662500207373 2.9442135039207664 2.7782112089594837 -1.651877473966955 -0.33205771616975716 1.2917911337947559
Ni 6.788997847532903 8.519557177026813 7.34373631897257 0.8021024252406702 -0.013744346169286008 -0.42208823579629245
Ni 2.0615801612507725 2.2506180270921465 0.6519356170114692 0.01547032772145723 -0.26373527764427485 -0.560054659872158
Ni 7.370279401443463 2.0320858042827683 1.7191560093731455 1.2897532774291207 0.31759011868120146 1.2467580048145173
Ni 1.250007256550137 9.075398928652316 6.494882657392395 -1.3148202477000777 0.057702754028107074 0.043623393116905516
Ni 6.29549142640711 5.780241191618807 5.985182841339001 -1.50116377752775 -0.31925027999244376 0.06479694187072711
Ni 1.399924645802092 2.139857890435805 11.51948357213181 0.3087010437216877 -0.5772774515083476 -0.6741849007603744
Ni 3.5671898548543615 2.8877255584059855 12.197926415008133 -0.5932195766599009 0.18640549341385962 -2.415808016123594
Ni 3.7494241595497497 0.7437119792702 11.045968587973357 -0.8678607025834021 0.6701446692527298 1.3134351944270928
Ni 2.2203513739940575 8.650829131138147 12.680551735301124 0.7559752918653044 0.6342281578617787 0.3817383712243361
Ni 6.331973224552072 4.0264210382068635 3.522697323160078 0.5926909578499405 0.25609884414493955 -0.9717744079499328
Ni 0.9968688119117171 0.3359699627904888 1.5076498425472304 -0.5686549999466594 -0.7786207971789623 1.532069465967671
Ni 0.5727568756746708 0.7572841643562871 3.934475506319638 -0.2155700307929578 -1.0630961355840658 -0.6318861399921635
Ni 4.055924589176416 4.398272430841189 8.125051764576664 -0.9449580590880371 2.0317247988161657 0.7224499064143495
Ni 0.25468395629874446 7.577650106372804 8.616827874611005 0.5942477608140991 0.36007297043576053 0.596100754862438
P 0.5463250406225155 2.8168949704753428 2.1956728350372257 0.7547198221916486 -0.25624488280450064 1.4992472772313277
Ni 5.842502970106127 8.16419062916918 5.111004302493127 0.38965094120319343 -0.2019583535467941 -0.27662833155685906
P 7.4154863070580745 3.7435491925601756 12.278879598643817 -0.07418918171890448 -0.8964107463069529 -0.002487799418860232
Ni 1.8137374615043633 1.9553434733563568 5.345615914610903 1.1181714792916548 1.3908943051465208 0.6808499714853758
P 5.3109058005643615 0.8465560805931712 6.093076288312479 0.0803549442099842 0.17901151494263365 0.3983168444083076
P 4.982459289241117 5.694994409259913 4.170822945929795 1.1222587619871511 1.1430762129531347 -0.4170815266103204
P 2.3290888303097006 8.580789227340686 3.3371881151130682 0.3699668325107048 -0.40961298614741715 -0.2659631385335291
Ni 3.9614838052688923 7.538226227732281 11.37151806940863 0.8788295428900801 -1.1160474909701166 1.7194257533305741
Ni 3.9293967398641754 2.1596801577746505 9.01637435811027 -0.054939075240040866 -0.3097351414131569 0.6163620762146353
Ni 6.324047995217153 4.001615622028661 8.188364417440994 0.9457268189332616 -0.4539532028256892 -0.8718770228316469
Ni 2.4597172043126303 8.158186946157926 9.937044204587098 -1.4691869675108375 -1.324780701346899 -1.1952937754969544
Ni 3.0898648764541568 7.452997833376484 1.3624820744952977 -1.055390539409692 0.10036866832774972 -0.9945582386136678
Ni 1.29245596170016 6.365246316156562 11.94226881394539 1.724719654739662 0.4010162456173416 0.33801187687066303
Ni 3.3160832845581893 8.01766582648867 5.413664397672931 -0.31214889306097204 0.7304493796800582 -1.2182670964636761
Ni 5.64288280848228 2.1332290153192432 12.68248891142742 1.1810750607944112 -0.5603431376468544 0.62254609353816
Ni 4.140196807371155 3.270140858819687 0.8370991306002508 1.0492929111523863 0.9033103016402637 -0.19041512879388495
Ni 6.231960875706079 6.61068938149878 10.936164627478075 -1.1849566552370046 1.8519504375655782 1.514092055553644
Ni 3.3182438749221173 0.43304206994123023 7.38868027614289 0.702172387112236 -0.19392339905745956 -0.8523132417671062
Ni 7.187796858706262 6.479159995344084 1.5814041229703373 -0.10206199686977262 0.16487867508567733 -1.0644025131003152
Ni 6.027780489314112 8.931099074346573 11.641882395348562 -0.5528020920748028 -0.8600473771865704 1.7514825246558028
Ni 5.2626832624418 7.1952072239544576 13.517173697221002 -0.08512022680911147 0.49521658035085037 0.004310197339579673
Ni 5.841473241932681 1.5273075372583553 10.377605128994798 0.43874204230288955 1.5814323326715154 -2.0101367882327446
Ni 8.467684620289445 2.777949179915348 4.071945136874903 0.95495296551722 -0.978140973597909 -1.374535661282839
Ni 0.1032716223949824 7.785241467339313 0.054475378575785466 -0.6287619925408849 -0.11818049969819001 0.14916229279168505
Ni 1.2660967592602388 4.8337371201904835 3.9215165611368445 0.01074541144196214 -0.8376394418050155 0.293975564586055
Ni 5.146480276868669 3.888226000929411 10.18404841139227 -0.6778484656548907 -1.6405412230185294 0.004471919728424556
Ni 2.299024445245681 7.017091831952856 7.31511447275153 -0.28599820280753324 0.798468942253141 1.240299393673367
Ni 7.886108858329329 1.5618953710843002 11.531944202430667 0.5542493660442906 0.3277344062040549 0.7345099229026769
Ni 5.718981559300288 0.4805879295498136 1.6789754644051695 0.43524482778290846 -0.3218956880350908 1.1436457123033592
Ni 8.21530927777956 4.73654732981992 4.917852120958742 0.094318862589244 1.4475272231492167 1.714128509487377
Ni 0.3951397985570046 8.969631134836881 10.974071495863074 -0.3909303221362493 -0.19735247934366656 -0.46610706457940376
Ni 1.9750370246735216 3.6117899563667644 9.362632408633672 -0.10857177296383236 0.36190128189375087 0.23128332776315652
P 0.480310270703045 0.8248766249415024 12.968221930356043 -0.873670881507276 -0.5658704952229868 -1.2278215729213304
Ni 1.1270558738403127 7.2597399208242885 4.805235715389732 -0.7778381533766668 0.2897414719000494 -0.18255500931951785
P 8.420804406392982 8.5760083465354 5.063907110160117 -0.6545797249349372 -0.27328126946149706 -0.004085740033599416
Ni 3.471838864793524 0.6318356908258551 1.6626662250580553 -1.728993342414351 0.1623422818170688 1.4217472859716351
P 5.09783481467487 2.457087719869722 2.545282099125107 0.6974076187337409 -0.5743854746725333 1.0283965273193514
P 7.345621089290038 7.058676300957307 12.834909827301066 0.4012139634504445 0.46608469598190055 -0.07090408320972949
P 2.27333640491881 3.9415420159099144 6.5567684012163765 1.283699615035873 -1.3214727200195886 0.049887114638430215
Ni 6.324985783375113 3.1024146885680364 5.840634748991445 -0.020597621645693558 -0.31620712229074577 -0.254923850000232
Ni 3.078289628504432 6.221314221912766 3.3675724514309793 -0.71686058525203 0.554010253450291 1.050400028173636
Ni 0.740773576375258 2.537967351493017 7.583703436992422 0.12568657826724805 1.0109078836162848 -0.5977208069643641
Ni 0.3795890643376524 6.876083430201523 2.475134625509527 0.5307345707518021 0.06624010207515688 -0.32277474820593444
Ni 8.298616125811694 1.5693976763479818 5.999675345980106 0.2747030895096882 -1.0365404965827245 0.4432610132191656
Ni 5.320669830209006 4.852106735284645 12.332463159069386 0.05923256040907218 -0.24703621972203904 1.1741636783865586
Ni 8.48515322323184 4.588726172921052 2.5149382164140093 -0.1666293392281969 0.3614001738876163 -0.46959168069389445
Ni 9.083793052066214 2.8753596263230787 0.15114938545947124 -1.986367967947921 0.1649478377607159 -0.880393287832774
Ni 1.7717852324379662 0.9228387114421513 9.071759942839368 -0.06518723533061031 0.9921676268943043 0.5889798275469404
Ni 0.9743710901222205 5.4362200416721835 6.344669221290574 -1.1451055846783376 0.08754040621482988 -0.28142112495981214
Ni 6.517351877777092 6.203955946988953 8.733238644619133 -0.8295618070032036 2.086075605652904 -1.7262525464444205
Ni 3.8432305573504184 5.760317790262928 6.076631897142601 -0.7961243532803642 -1.5673516862087329 -0.8834282180043559
Ni 4.6663695159992296 7.561689319684384 7.225024290376818 0.6512917982122849 -0.5786864160407325 1.2054100379953498
Ni 2.065156627853189 4.862302883002076 1.541532496454395 0.4941179479700329 0.5768097678433098 1.0436979335631122
Ni 6.38003027064676 1.6750275601401876 7.876661102337956 -0.657140800793894 -0.9073397345146309 0.041631816608173465
Ni 6.707787231853857 1.1879569400984353 4.031024474782263 -0.8574258804033233 0.16918732976336023 0.4866833460688586
Ni 8.528401806516595 6.576239457696064 10.725935507467264 -0.035274764041894086 1.8807961581526769 1.3600788624275608
Ni 7.186969398566885 4.717708820646777 10.3622916000154 -0.5624427004883603 -2.037683844613078 1.21781458230729
Ni 4.616372535577781 5.530118379488338 1.6761906013360894 0.6536248172208355 -1.185895622111506 -0.2604578924445837
Ni 0.11398263419913594 4.136270968709891 10.952662343856934 0.7285125676686615 -0.31683138613830597 0.8175624685494823
Ni 1.683862995628421 4.171309308611718 12.891237797188902 1.0112354421590326 0.5913010194809494 -1.8119623272084149
Ni 3.9241101889737133 2.6590339638853724 6.7161583702638845 1.0206238253524682 -1.3006403566552696 -1.0958383630120934
Ni 7.36466186649725 0.2128025210442719 0.14018461921257552 1.3389891316367972 -0.5768928144754193 -0.5550119552419279
Ni 4.277785040546398 3.7024336176347035 4.545286354404087 -1.0989252294675331 -0.511933378884899 0.49343737696324047
Ni 8.850633172792966 0.5791513037517427 8.231586338121256 -1.3515142606870014 0.023691687189985006 0.3436531343168404
P 1.3371480032280487 5.851421151608298 9.81974529402937 0.8068599945303135 0.029615508873587704 -0.00015118086588361058
Ni 5.096906220518458 7.610969167985038 2.759143769147781 0.6153963698672562 0.0974188416708064 0.6816554981058067
P 4.511781573960571 6.706968965716029 9.402611604967735 -0.820427191691787 -1.0685576729192694 -0.35898976467391075
Ni 3.420168576090225 5.102211159412018 10.943484891511092 -1.643579238513905 0.9053468724543183 -0.6742705184956452
P 4.522069661693488 0.12229585039940685 13.412267381350672 -0.2925565727513413 -0.5064846970655019 -2.780485575210902
P 3.346303967648535 5.646376529070761 13.11727784166289 0.10539440367711526 0.5649428412023948 0.5853913388647337
P 8.137316562642535 3.8001750480981853 6.922915835289933 0.4585107402893845 0.08978832170874214 0.2945790024980088
Ni 6.568921032463355 3.951214105539073 0.8181990216167327 0.20721394551877861 1.2150359911208881 0.26112715059746644
