# total energy = -340874.4768543786 ev
CRYSTAL
PRIMVEC
9.24027575079032 0.00000000000000 0.00000000000000
0.00000000000000 9.24027575079032 0.00000000000000
0.00000000000000 0.00000000000000 13.52407758266800
PRIMCOORD
 96 1
Ni 5.262124342219897 3.2371918996405604 3.9544534969761367 0.4712371867171175 -0.9873732908294542 -0.7254550117892603
Ni 6.201028730655186 8.468139552493458 5.27617510506858 -0.4644271057738195 0.9472075172438461 1.9704947483610902
Ni 8.362643327685214 0.1715632702454403 12.915466569869377 -1.2804913925112205 -0.436319548904326 -0.6385193290379648
Ni 5.675515785284732 3.525553175596668 11.623917233202558 -0.19296900556399027 0.2618971959942715 0.10374966898484067
Ni 3.7890858314196625 2.20107057319988 0.7601392475044205 0.11770715960619728 -0.1451256608284662 0.05072400871742877
Ni 5.669906938086817 5.25174751288998 2.7417089254538074 0.5886113884639282 0.8964503412956367 -0.20936107376876847
Ni 7.224315314496352 4.0341194557925295 9.535055944925068 -0.6604441541355142 -0.8126868856247359 1.3199125746213203
Ni 2.746200623349865 3.644651085866744 5.242067400328964 0.3034943027097677 0.3302044650111023 -0.6252107848545169
Ni 7.63001884838711 6.309066031212075 9.435721135786626 -0.4106830792831443 -0.19884526183910914 -0.3348638181599846
Ni 5.99646751275163 1.0950927643601174 3.2435335006816306 -1.063182267539969 -1.1457607017638332 -1.0950096964632108
Ni 3.3557723544854583 0.00850474952382483 13.150068847287177 0.48390681176498596 0.967388105956779 -0.02556087918823985
Ni 2.199564408301593 6.087659791163871 5.229666026648037 2.34277840193043 -3.170230618789798 -1.20712213559045
Ni 2.460389663417851 8.156492782404325 9.084474241230625 1.2602557821906362 0.32091892594411825 -0.11911175326320778
Ni 6.303078332720725 2.9585698740083464 1.5978016339484686 -2.182571164178493 1.003096615101982 0.46920807210223064
Ni 5.597823549304377 7.097353929818655 8.510525620008384 -1.4111486845201826 0.8391533073463806 0.11078549278569953
Ni 7.952079408907961 8.915258000949386 3.661022081880826 0.4777230515517773 -0.8125457320611813 -0.7117952549139805
Ni 1.3024815065512565 9.247667669973804 3.389025333745985 -0.36869182245302307 0.20656885573561198 -0.8038870279449187
Ni 7.555754754598562 6.5371714709612485 4.97169416859062 1.0683010768237728 -0.8509032487934571 -0.9556859870285024
Ni 8.930162565249615 7.819453735379649 10.953826318009718 -0.6353643283487509 -0.15124848589675244 -0.9892453110411865
Ni 8.373177241697775 5.5757485312552495 0.4759139188395602 0.053527539604494905 1.6268369860585594 1.291301338642531
Ni 9.144213546039925 6.477488531832192 7.225874148964703 -1.507155733445127 -1.0225218137061294 -1.93597948819304
Ni 0.7762967931556157 7.589823650181289 5.2946491877749935 -2.3591555577368726 2.6881842572723187 -0.49862303492923804
Ni 0.4098847585317077 2.5168107853131945 4.17527482758838 -0.837874440633957 0.4269388790203744 0.6810800852183109
Ni 8.542745536473642 1.1462376889737316 7.189669825725569 -0.23625892660087697 0.42463234237438485 -0.492622594371429
P 5.042806404423305 5.020047605990905 4.853209812610398 -0.7102657056433317 1.4969898486557187 2.3991436680940357
P 2.0465177260296348 6.9659110115478935 7.18547751275408 0.5758281206563308 1.5893834691977917 0.960557456188191
P 4.557220689270634 0.6767882668387214 4.966040968070547 -0.37463029942464515 0.21463543479383035 0.24833796925259813
P 7.003250964639785 7.2158697027354055 6.926545590077448 0.25456775221239386 0.914250088481219 0.1280792468691407
P 2.4635960389988667 6.549812167776321 2.846047343748215 -0.3475640393354724 0.42136678424923557 0.08501224047633746
P 4.663021843168716 4.4875397721050945 0.8309447061921786 0.808963928247194 -0.7512735155142609 -0.5704311180104756
P 1.7579531640136354 2.697180962089662 2.476907579811581 -1.0632550297594332 -0.5268102959967313 -0.3284270613957053
P 5.373469661387746 5.566730022416426 10.111831166407347 0.1917202207585537 -0.3782527266685808 1.105548648321322
Ni 5.360616438237333 8.090554176795877 12.962246388360594 0.8382796464921757 -1.508683482943563 -0.9498781220974737
Ni 7.2853380935656045 4.087731533951191 5.112710012227182 1.3722327241812753 -0.43871504571969605 -1.0745349735486267
Ni 8.12620315948049 8.373648495745705 8.431883483711808 0.6616001221168284 0.6200935182326094 0.5739854110206373
Ni 6.134683552926957 5.468478173560679 12.958987343209516 -0.2715270057745517 0.8155544369805181 0.7953635638549399
Ni 2.932447615312287 3.584339808007113 10.296434313367282 -0.6293417763037548 0.8802464778422646 0.3693929622851058
Ni 2.7723690834231722 1.1916536428085849 10.10897684532096 0.43824350539991624 -0.15586207340936384 0.14096613013413786
Ni 7.580490971977178 1.4025352091196783 9.378920238570304 -0.9057471932165305 0.2177552113697347 0.7075498493740654
Ni 0.5739541653875109 7.463185675144326 13.178185157425261 -0.7153832293755551 -0.6171488337819888 1.6412536757045217
Ni 6.415375400259886 5.069871171215225 6.935769233031253 -0.7697258086821775 0.7647229561509475 0.5739522437898567
Ni 1.5316588182525857 0.12460788652068121 7.210551000186608 -0.5174789912934764 -0.7573253781352957 -0.03555527139679038
Ni 3.048607117989386 8.614551716992594 1.8432640071021977 0.15505448990640394 0.10376535271412451 0.6505451498542473
Ni 4.846524473322602 2.6461746416077925 6.192782708843951 -0.05551217413469149 -0.49248709723482925 1.828408131469264
Ni 7.560966269952144 3.555279141718077 13.39263624214254 0.4970929714379569 -1.7987280879063279 -1.9583725111762598
Ni 8.745366296532781 3.7022826838459877 2.164515119493662 0.5116544141918995 0.05797014875688081 -0.8928793361149268
Ni 7.144793503976974 1.6880504802373049 5.319560046359608 -0.012399144995301226 -0.7873934011652697 0.8187544319750545
Ni 3.9327628743857126 5.538787429456793 11.96191080068118 0.8750345946240221 0.9641333464649074 -1.0027616003600666
Ni 6.522636517679006 8.391288181579018 10.437057445297235 1.4252414151678228 0.2955783902968006 -0.3063184024221241
Ni 5.730652508892581 8.038651549595395 3.2001208385642537 -0.1942584137993751 -2.1917003801732706 -2.2009494095753643
Ni 5.940379040772472 1.1627408209267425 13.329790356727079 1.087449624727766 1.3188471094712835 0.9872344512587448
Ni 0.17560866283728133 7.367290096528231 2.1196960874528537 1.3368245198853106 1.4423269098952 -0.5181636760653269
Ni 3.1347357254552395 5.908130479453319 9.609465111038176 0.2676837207690616 0.11600868885785183 -0.44385982314542916
Ni 2.768469687183435 4.161145522398375 13.214660220735068 -1.0767620631069326 -0.7334598843716078 0.2777146226425023
Ni 5.023189299643774 0.6823703172378333 11.348864725976531 -0.6808466290512661 1.794975048621799 -1.0087478998504884
Ni 3.5870194878875012 1.7915692860993317 3.288758180814677 -0.6222892403323477 -1.25060643202633 -0.30484336053849437
P 7.4897607073374175 2.5549916034709996 3.4267034809193313 0.21180953530926103 0.9495441357968227 -0.32481517567473095
P 2.602505099832916 7.219159240795468 12.475149888171911 1.639878135513234 -0.11261817511906412 0.6245569533206018
P -0.030763649054400266 0.3669516667101656 5.193705646680774 0.9242959027529952 1.0464179035974366 1.3707808222260973
P 0.43063656913645104 4.2126230969281755 12.881723856010021 0.09615951534240859 0.22645119648183581 0.208238530128551
P 3.005667557975029 2.3861163293538525 12.115097935139971 0.6077095427459598 -2.4183354105311383 -0.11786451111966799
P 4.5199084570050925 9.212212733073637 9.099364021090134 0.4139303825758484 -0.11332985647410804 0.19724912099658287
P 7.588576212995591 6.409692630858372 2.7339729668473907 -0.02939567955329776 0.0798612924030173 -0.13453297291428443
P 7.2493841817911555 7.35296766958133 12.300702727958647 0.9053247609671311 -0.29271366715449587 0.3665094700897236
Ni 3.6007782580319767 7.853513390686926 4.231778187935225 -0.48116550157442295 0.5013396625294527 0.6473076167535561
Ni 2.0110535488540155 4.735336238837396 7.413020219728373 -0.3653789560297062 -0.16498640430813521 0.7632659119894467
Ni 8.538901581886604 4.002693278988392 7.571062194908393 1.0117504341222383 -0.23276479740468942 -0.6559838043713154
Ni 4.021977733851736 8.792048168104232 6.819475746360134 -0.8088155755947877 -0.22284008209180978 0.026905566141592372
Ni 1.5558960607569237 8.96095116304773 11.78613858496844 0.08014128553728134 1.7365690978790802 -1.1543929235175345
Ni 4.373237564793367 7.730266596739973 10.872465692675867 -1.948983870872508 -1.0544456589979194 -0.8256617006178488
Ni 1.1756772065562022 2.520469934391242 6.800582155148308 0.67693932357706 0.9076847765588754 -0.2226451924721843
Ni 0.4385905982434789 5.530646746785682 3.452061568835707 -0.11434132845775793 -0.34093522116504504 1.1684494016106006
Ni 4.959034067197105 2.37515736267061 9.594832210836167 0.8437165012370308 -1.1102193143241137 -1.0312941605821206
Ni 0.8087929938568187 6.479271904993967 9.211262832757415 0.31010152361364013 -0.36413068544490196 0.692293180325311
Ni 0.6371031318377187 2.069313485563833 9.06102334616705 0.3169540277590993 2.056013496160201 -0.04970636608619181
Ni 7.906404727360518 1.2620183403573964 1.5716599706739653 0.13658548456793895 -0.3112001559944576 0.3852376426268462
Ni 8.131091265193335 5.326076288606676 11.505973433336141 0.5131965618680387 -0.4053195009783858 0.39552616903704785
Ni 0.03335831840065191 1.8051247701839155 11.566507401834105 0.570369668644921 0.9252567240043678 -0.8780944644962684
Ni 3.353545448102101 4.043978829697268 2.578730795128604 0.3760220375658492 1.7487700108206463 -0.1449485118206536
Ni 1.5477553780858138 5.3872376718076715 1.1995873433096236 -0.48241840014491755 0.33026514304570864 0.45931703824076375
Ni 4.094809584945595 6.149782163011627 6.859938912553995 -0.19317880758195116 -0.009085764351352093 -1.253955036783589
Ni 6.1540049688921 0.3862111728297963 7.451807199955672 0.25255997775374567 0.7735012165642098 1.0323897076391446
Ni 0.8274620463752191 2.2063098093798117 0.4613743454195924 0.8703215054190687 0.7152014523820521 -0.35799654752270604
Ni 1.27773604889719 5.885750532314352 11.422421938693184 0.6606354442107139 -1.6675146662835798 0.20849255512088608
Ni 4.615332781573257 4.422488232939811 8.435020557226952 -0.10950148386695335 -0.549425462293086 -0.7883169414208037
Ni 4.225014306306107 6.622505414738435 1.0246218036436354 -0.9058585219834141 -0.2585714740551482 0.03582112346366734
Ni 7.223576092460384 7.932730272116468 1.1493368773595323 0.20474748625615707 -0.17978593121481296 -0.6520353612465287
Ni 2.1973744630200347 1.2875861825264787 5.1363900661219075 1.1681809784405623 -1.1387140793296968 0.6189344649275017
P 9.565717950949523 4.385037396542525 9.641923426610035 -0.4286707741098166 0.037260169903039056 -0.13427046328151712
P 3.1301155877304323 2.6784324432023947 8.277316776128387 -1.157381059611581 0.39195799206981524 -1.0168509885735972
P 7.1204823392690395 1.9158232700702926 11.528382949356544 -0.4164541774389666 -0.3579759786974157 0.020419444196616447
P 0.4650187100569202 0.17179797324186047 1.029589375725348 0.9208089726456594 -1.6274136844976361 1.1227899519002726
P 0.7890382089730887 0.1430773490893699 9.747668214827874 -1.0153828886685028 -0.9922085074345687 0.006075773880434698
P 5.313472552893402 9.016124847757375 1.2970297440359841 -1.5331501006263597 0.6400223959460526 1.7674274780208337
P 6.4815634933054715 2.94698256859453 7.848008034574047 -0.0006173218690247433 -1.3575933770015458 -0.8804321114905095
P 0.2835341560612292 4.664592689995151 5.453489522753859 0.3709459085945224 -0.6300621994095471 1.1805287013726378
