# total energy = -381163.6554419909 ev
CRYSTAL
PRIMVEC
9.32649235442588 0.00000000000000 0.00000000000000

0.00000000000000 9.32649235442588 0.00000000000000

0.00000000000000 0.00000000000000 13.65026429699854

PRIMCOORD
 96 1
Ni 6.566755161266494 4.715409158468521 10.28917363046276 0.037438604462432294 -0.12467330651138528 1.0655304560571714
Ni 1.3213960644038527 2.3661963503600196 11.644207554195853 -0.21204890501357673 0.04087462672717476 0.5388510292113494
Ni 7.936518414092294 0.20126290319882428 5.924036740680424 -0.5503729138080199 0.03312763579190423 0.06334838234965864
Ni 7.621907853537424 4.8578433469721825 7.0133962083032975 -1.4005472548552524 1.1236217037729488 -1.8837441850374075
Ni 4.707621537502011 6.113739456827763 3.4752207267348547 -0.6836661007779323 -0.1387218141846514 0.1284911375955787
Ni 4.127821498430045 2.351702981519351 11.753191345863 1.4919594853206628 0.08357525091949478 1.4180161010639771
Ni 3.5398794316889 6.131375853531562 1.1741736548173098 0.39969264170991164 -0.6107796970308513 -0.26941201631407796
Ni 2.5636102102380303 8.387519596221125 9.201301738341874 -1.1182833222791708 -1.535204926272859 0.13408431541264004
Ni 4.807676145560371 8.632442607240943 11.533517947109814 0.7927870613770153 1.1936145880223186 -2.2728019727412923
Ni 5.69963387774506 5.736249686025925 8.480021610915797 -0.9111315974568953 -1.6072184404966838 -3.8604676879170285
Ni 3.3106156010316847 5.6314572199424315 8.851377347813832 -2.942274298517346 -0.07950442328423082 -4.381658580844453
Ni 0.332836391564159 2.777056310165661 2.7097955138946617 -0.17777944230774545 -0.47006913455094523 0.8858124019658165
Ni 6.364864585144262 3.1560756256842746 13.032576226262485 0.6900902591367213 -0.22362503988695034 -0.8973792808678094
Ni 1.8497418461437933 4.012536728649155 1.3504303671952846 0.12031220132921215 0.4856165953672411 0.01860681646790989
Ni 0.43479733462318326 0.4431809184397063 7.64320583106931 -0.06153344062810692 -0.49349394123278884 -0.9055111659463244
Ni 3.4287169714495644 2.024352432652799 2.3932459756165128 -2.2799830638707634 0.3057208780474412 1.1012492496150195
Ni 6.431856778440608 2.4307543291985696 5.603405929426293 2.8420362422301895 1.152860031812776 -0.6690223827228284
Ni 8.56157991969178 3.567868234707462 10.753200191563842 0.2548150923365095 -0.26874198683024686 0.893247775197939
Ni 0.09395508217560743 8.215772242809988 2.221784945515161 -2.3784542580654846 0.21902559344172604 -2.0878913187054042
Ni 1.1784489188305416 4.6674336827179435 7.4134989920337615 -2.0526294101793168 4.125654353295849 -0.7112653505524394
Ni 7.583865091953713 7.934569177227623 0.3441568877667352 0.25820869139909075 -0.3536642386959393 -0.5774959952770571
Ni 8.773235333121722 7.298567696306321 11.753000152773403 1.7245638458880879 -1.4364753362104294 0.4326426142733711
Ni 1.7935963632475103 2.6574440480153565 7.415656209673945 0.2336482284509073 -2.671133729547935 -1.497022758776183
Ni 1.4776707672958993 6.389868910666676 5.289804495324807 0.8488885323562735 -0.46767080952209783 -0.538626314795053
P 3.4392092751469594 2.3113379233839497 8.6587992741288 1.1934793479960348 1.9721194284487071 1.5596730866175526
Ni 4.442506670922318 1.7438115480148921 5.952675600203616 -2.093054865184215 0.1005887547583558 0.7301534457061941
P 6.731927337693932 7.042033202528054 9.52418489745638 2.346035732525463 1.0677714295725482 2.7543135448012244
Ni 2.9259444312547416 0.9462285901537054 10.50888806578152 -1.0813687086410086 0.6407741865104126 -0.3730328730305382
P 5.566507528432511 9.360067547293987 7.009874524857843 1.040914457280704 -0.323803703691081 -0.12292572769265926
P 2.391405858710294 6.942230409758432 7.346066588306733 0.3434253345767505 0.0020496834401771153 -0.5717722054194023
P 8.748426863934993 5.87793775515555 5.3826814350049315 -0.8946770514452979 0.2554666098775794 0.23620673320670288
Ni 5.091042957327443 1.3835198287846073 3.795851537988986 1.233942598217404 -1.1278311138686061 -0.553194442417215
Ni 5.861280640130174 8.277812068761163 4.141135066010517 -0.12163580523664211 0.6340417528825855 0.9631236742534703
Ni 0.3060693590205821 8.866556213829398 13.488590397935624 0.6424968256284742 0.4925889129200162 -0.6162306928430935
Ni 3.0800926939307827 4.678056557305795 6.262235865245474 2.2297568207253597 0.43658977184657716 -0.3329696864610653
Ni 5.369140301015377 3.480152575797239 7.730512989622247 -0.7867902203636321 -0.23462319076966692 -0.3318857093682671
Ni 5.444880743972307 2.105007936986197 1.3668282057381822 0.3116344153183988 -0.4783558000397697 -1.1903955668643886
Ni 5.31250984052597 4.438449646825993 1.6397791910436976 0.6831837618248751 0.9195709864735001 -0.06659594275267887
Ni 6.352562941964827 8.976748718882485 1.9302154838797698 -1.0147005178894977 1.6844392099530605 0.2173672319026966
Ni 3.539217250744442 4.264976892362394 10.544433192760643 -0.06627661174004715 -2.220257365875357 0.03218506937297683
Ni 8.498392935203022 1.208937221752128 12.328973532105778 0.9220834684827087 0.9305948483878296 -0.15167965989690008
Ni 4.495714308783331 7.859985219300452 13.517242314547863 0.9220191909036765 -2.009948069260706 2.367333979782607
Ni 6.803750653937168 4.855045399319544 4.270621285426983 -0.37774133424980105 -0.39692382071552285 0.5978131095678544
Ni 8.693242009732781 5.645325713807343 9.036515678690499 -0.10718954790432507 2.029116414659041 1.1746035941374544
Ni 1.346838735058514 3.8048730538703106 9.427090518014511 0.7989841913266627 0.31394300884691734 2.3690800159394363
Ni 8.67476622873319 5.423784218671412 3.12094179701009 2.338501628931947 0.38210629608671615 1.6267917346429208
Ni 6.971720778017244 6.874286914260189 2.783056975231353 0.1422647943409034 -0.31378231489933706 -1.2345684047268608
Ni 7.017290018786553 1.585587608258174 7.906355605747632 -0.907393984791334 0.19716144637878302 0.6049985715727001
Ni 1.5692475939667638 6.862358330767773 13.591567928641776 0.7358052446753328 -0.07845309920158101 -1.5239920882761753
Ni 1.9820661171292526 8.805812770290611 6.033908414402676 -0.5178985953293983 -0.2455259537250997 -0.007344870400845416
Ni 3.086042995938728 6.375235644443376 12.066655680529506 0.40766846082653657 -0.7976852700095811 0.18417351875954732
Ni 8.98976850195943 3.720860012353746 5.0491781992502265 -0.1367513207218419 0.15368897701744497 0.36988121477543395
Ni 2.253038020795135 3.115953056345435 4.594050976982971 -0.32212734442992264 -0.9714879870577655 1.0652301512079332
Ni 8.565767514678562 3.5281280515478173 8.43791063344515 0.03346676429887785 -2.9379216779756048 -0.1812540311199072
Ni 0.18268266548686823 8.2139815563123 9.546517182970524 -0.6097903365343885 0.45590184191162775 0.35644694364739904
Ni 3.9310604930043156 8.315901462805751 2.505383054288184 0.9939781977404817 0.38631159241731533 0.6834951224177067
P 2.8140731576100713 0.8823150719244796 4.695623005318278 1.6998637720382463 1.548456906186759 0.34522742078249574
Ni 8.109552823423648 4.042763889789828 1.4612468145749102 -1.4645985768092065 -0.24590673410328617 -0.04381879695716325
P 5.455456986099281 5.342569124807485 5.958585798295207 -0.6179649019253808 0.029672587363768252 0.493992221025446
Ni 8.913636346331131 7.876679640294529 4.4226580302744996 0.045765893381205056 -0.7254179879037378 0.9333592985068442
P 0.5122501215435277 5.230483341842779 11.846736995032105 -0.04372340902987954 -0.8238575575295747 0.5005220517241638
P 6.413241100058385 6.186113036109351 0.5706917868134097 -1.3225680099662964 -1.0439169915524535 0.9807624703811559
P 1.0079606418630904 0.20855901802768845 11.193011448380554 -1.4926313145767067 -1.2726310159265373 1.0526433156818582
Ni 8.410033748332692 1.0962545432881923 1.3229274744190638 -0.640730991977303 0.3500662369320358 -0.8916428926046643
Ni 9.470026890042687 6.035285004647775 1.1256964137876917 -2.4483391559820804 -1.0489244720693742 0.3252090686790399
Ni 7.450458947875901 8.598223707449172 8.223560796425716 0.275738472752738 -0.15019921869663164 0.8811304231091147
Ni 7.747759538953113 5.355719478774887 12.738262910629071 0.7539706027304499 -1.5635523670673008 0.37142284823094096
Ni 2.666705254745591 8.585539678090543 12.2101335035076 -1.3578427740081904 0.9169610596544788 -0.23533641478660763
Ni 6.309707710418578 0.5926761941694094 13.152561548099806 0.9173639515198524 -0.2465294552889496 -0.6696559025417693
Ni 4.879518114787957 0.7074218927025575 9.582157440169835 2.929547852089613 2.2331920716591536 -0.0371490982464715
Ni 6.819279263409312 7.414449361586441 6.308346975210178 -0.910960876206986 -1.1913229637746645 -0.7412960925865749
Ni 2.4886345396394884 4.052025096520063 12.596517949897176 -0.4254838917414028 0.9394839233473433 0.8696900424826569
Ni 8.892726350873744 3.2978103272747754 13.174156108082872 1.8358630450854123 0.34369221508489195 -0.033644170417006576
Ni 0.5606005222795595 1.5617770737342185 5.002043973093875 0.4075087953202208 -1.664224168457766 0.19567791985472105
Ni 4.871935676649305 5.015265208401811 12.651378242171681 -0.559001021796663 -1.615730848843069 0.8501817972464004
Ni 0.7053877847590891 1.494430473735205 9.569449161931551 -0.7102448797077251 0.4703041333798868 -0.5033754620125589
Ni 7.479259155713728 8.89557093098726 11.121989277815192 -2.328656874927383 -0.06427809325277963 -1.6942906488258433
Ni 6.105765306017743 6.71018728443293 12.043013955513928 1.2857037899500954 2.3281835348353903 -1.194255306930111
Ni 4.513341378994955 6.212171255247592 10.386377129863082 2.6418586347329014 1.8155914393205699 2.9868184036763075
Ni 1.878747236809481 6.920620927387886 2.5596427204665884 0.49842480287550284 -1.3708736390502196 1.288764174042974
Ni 2.410767656466554 8.707250400980326 0.8756401014745012 -0.4332805049676861 0.16376667296842118 1.3081536343131794
Ni 1.5185114765322487 6.395763253721569 10.355076489473014 -0.2616783951152461 -0.6960138237100078 -0.43005017095584647
Ni 1.6356149122873538 -0.06106147692196937 3.349379300460559 0.2344550406229188 0.2683848606011442 -0.4663603182407904
Ni 1.4885081512037865 1.5450639997557902 0.9176512854788713 -0.13864493820012896 0.1873768561881934 -0.6950514597967384
Ni 4.7968387616524835 7.939027240487495 8.964674642112131 0.8926008856425596 0.02897941795148557 -1.8388105577495104
Ni 9.573924012877336 7.431087823627466 7.141791228135235 -0.8812463798616886 -0.6558557634338834 0.1611261500217806
Ni 8.163226785893432 0.5858314815618376 3.580627808652712 -0.9447991649126697 0.6276296787086546 -0.38710503485288816
Ni 4.240084484746085 0.6866499293293677 0.29107795549774396 -1.9298710613024568 -1.1908532232270974 -0.6361870813603625
P 6.730938729523333 1.7426457364929593 11.075196401272462 -0.7866580656611419 0.43906163042583735 0.5248143486126252
Ni 4.680099059092221 3.7772946165074686 4.379509946873941 -0.47827069652513116 0.05714328198021126 -0.162912552498242
P 2.7908781715696964 4.521669936507643 3.262031105342049 1.143177257307373 2.23899479438386 -1.3704828313697042
Ni 3.8641242586610227 7.372676003132545 5.4055453305730765 0.42520081328334514 -0.5846907132532834 0.5681901444950989
P 8.731760422417441 2.101333299069065 6.736213793497774 -0.10744974354424719 1.288948007919006 -0.5155295808765896
P 3.509241904892506 2.6128727419088222 0.32529778793873276 -1.2926503964712575 1.8810391274014182 -0.8399482924438503
P 6.941866676563589 2.5187684358584073 2.514160216074511 3.0780763679520406 0.20695169299632746 2.6798937351287524
Ni 3.508654335885452 0.4895531701853225 7.67644451653344 -0.6958055643539437 -1.4100405390576685 -0.6932874259177801
