# total energy = -381173.96263990476 ev
CRYSTAL
PRIMVEC
9.19327867254675 0.00000000000000 0.00000000000000
0.00000000000000 9.19327867254675 0.00000000000000
0.00000000000000 0.00000000000000 13.45529260811608
PRIMCOORD
 96 1
Ni 3.693758252606207 1.1412444236160817 8.628717609396995 1.2711616304698625 -0.1329147205845711 0.8204978970287224
Ni 2.908799344720405 2.415524783192243 4.841322135995556 -1.2471339000966974 0.49117069241625083 -0.5511635280301154
Ni 7.31924721764144 5.453002449772453 8.172300740803056 -0.725224383835693 0.18737248531281922 0.21781614651465714
Ni 0.3848278880870806 4.12168698918763 9.431998721717074 0.3213626983497562 -0.6106280019443354 -0.4943742869552131
Ni 7.007162985865003 8.151882468826875 0.2879151020936889 -0.7636500348017429 -1.0333888383276204 2.3025627489434926
Ni 1.8781684503332416 8.591596988692164 8.203449407669199 -0.9109539342284504 -0.41444100366367975 0.5108486304611525
Ni 2.595556759828705 0.9003483453955065 6.5920846142400435 0.30591885299086025 0.9762147031094737 0.42950046909996353
Ni 6.364460872467922 7.679256011242209 7.419799622669218 2.8576760056499753 -1.1279884653820766 0.6558020273778125
Ni 6.69591534244959 1.222365914799258 6.939109740343306 1.2287651677815223 0.2930319697258631 -1.1493540755420464
Ni 3.9806712873224064 2.0955435250188943 2.729083616870968 -0.2358534636323422 0.24437924171516626 -0.409602701734772
Ni 4.8741384636165295 -0.05933434000967104 6.967836897601826 -2.37998869243214 1.15795492983718 -1.0362157662534541
Ni 6.393263414611722 7.428233536541775 3.0658288187402047 1.3741991038790269 -1.251703778855567 -0.14971893662610344
Ni 5.152354656689564 5.309761974463629 4.067400678508045 0.738962559357392 0.665408440119325 0.06357283965563891
Ni 0.6067177819386511 9.452621084480231 11.02538789731866 -0.4380198194248844 1.552083961416385 -1.0587046913845897
Ni 2.9684453368777537 8.756708274010595 10.360844392403786 0.2942056783189901 -0.6033378960408253 0.3058800293331248
Ni 3.707051733595653 7.564413573814711 4.381473416465685 0.5712505285879775 0.860590394174234 -2.388896279334415
Ni 6.674954667030545 1.354528489283544 9.211964031505664 -0.5764385005468202 -0.08017239588553289 1.1290174208672235
Ni 2.2350239493424606 1.7955392614444852 10.29570725488337 -0.43329207493191185 1.7877055115435792 -0.15934360420006108
Ni 2.8128490950061247 4.161613398549432 11.296565716224668 -0.11891095010631134 0.12368626000776761 -0.9442448350710964
Ni 8.55807829457908 0.6542920798447955 13.103584624772557 -0.026436596924973826 0.5423299888988854 -0.25285719727919037
Ni 1.0688105807973778 7.164809328885074 5.928065126210647 -0.5584785736342897 1.133453859372022 0.08691691369821805
Ni 1.6169598228414483 3.2498332110997232 2.9190452538232665 0.0871251730542822 -0.5298850782673132 0.7776525197284221
Ni 6.627149617829217 4.185240124789319 5.96543120745657 -0.8020399474338509 0.5164099265990139 -0.20776030494055187
Ni 5.29315891314486 2.9512630990013533 7.739201704284936 0.008890103400778237 -0.5596381411600297 0.29017393145177767
P 0.866952841216902 4.165787147075855 0.3221536299284014 0.35806056799142205 0.9984781424933642 0.4354255763351469
Ni 2.905664436686241 5.490961497494046 4.420238714728615 -1.4788707704575046 -1.4741417404129515 0.42162415167568035
P 4.893306449690523 0.6106203287436441 10.654075967565385 0.4718370250846454 0.1594760160128673 -0.4311107510098769
Ni 3.124041578749383 6.33719360786578 12.93167950650032 -1.012171837930373 -2.275259176032533 0.12472447146429487
P 1.0680751185019728 3.049934559208633 7.4478005109110255 0.11911483858700132 -0.2683465511640411 0.5024789183402184
P 5.224779306229576 2.407305992041092 5.510533987830512 0.2262398518019781 -0.347105354531499 0.4360128162971846
P 4.848158258031346 4.457306014417029 2.077551359289679 -0.9403419004722644 0.7424872846811987 0.14890878201998223
Ni 1.0591300583341088 -0.07468987340985907 2.1148760707814853 0.5283401023776965 -0.3011592268186878 -0.053091223398024696
Ni 4.667298886312554 8.114870328810616 1.9146473801853319 -1.5357065484996262 0.7180461209196988 -0.49444884894689045
Ni 3.140139009740061 3.3093045309619136 0.8536952140143568 -0.22019673093169176 0.2915939517277559 -0.10542525691505068
Ni 8.363107240067203 8.291013548560123 9.59737753144546 -0.931869087114563 0.5958382452296705 -0.21630356652487262
Ni 7.854967146893165 4.897507778053024 12.592821689187533 -0.7732225089815264 0.5537780828348269 0.9643858287953456
Ni 7.519476827565463 1.4810463906505964 4.700794597228907 -1.4199218027271223 -0.6101983706060846 -0.02422261999279054
Ni 0.4717301129121404 3.398644813296241 11.805740972579487 0.07518702685579953 -1.393492404891 -0.27998824916802745
Ni 7.653569990575187 5.381910825642863 3.965665098512536 -0.1328177899953906 -0.4998954738837584 -0.31542679248129546
Ni 0.1278582814004281 1.2870865967949017 8.597891626612961 -0.1713074614301566 0.08354774011566901 0.4089337006922054
Ni 5.7539720076095815 5.303767956756078 10.358557104665078 0.5329863429004563 1.2678623908933002 0.8542156009961418
Ni 7.959963582840928 3.2879485445590895 7.6753029014044065 0.2840745034222591 -0.8913968380321293 0.21098164009132697
Ni 0.26949544890526966 1.4460843517827793 6.087255020723199 0.13586788967562405 -0.844614844681584 0.994584720976229
Ni 2.7186087951286613 5.414979049100012 2.07678372051885 0.816660011339871 0.0798353242610883 -0.8725123424228005
Ni 1.078059019162096 2.058228006805781 0.9108544242853674 -0.19825416522232953 -0.6020816550362211 -0.973596034539704
Ni 8.24591132329441 2.6610312906771387 2.739335961268914 -0.5337810708876097 1.0241855745617974 0.48577188999818277
Ni -0.026393903126348452 4.825239414250787 2.2310487756357964 1.6384771414006492 0.7993366895700749 -0.15370286097451594
Ni 4.053886558829978 2.0668880753341754 12.080619086159254 -0.1833469090931939 -1.4679721212671297 1.5092910346205748
Ni 4.776515037180202 5.129068081761303 8.274426115815132 -0.028239197351351365 0.5593782026304238 -0.1092600572801086
Ni 4.6111371467796864 4.153302674611355 12.752374718208442 1.513660367332864 1.6137868377428206 -0.5505654894348002
Ni 8.603805662795887 7.553675824301798 12.066087270529918 0.2010021602811119 0.013948491760292106 0.5149402840320229
Ni 8.016658532537965 6.600590235686402 5.81015673033918 -1.2583032864499555 0.6980054002187398 1.2673684819760174
Ni 5.92871784899782 8.057844421080647 9.679684036252107 -1.491176327297735 -1.0181033729234596 -0.5485389459230746
Ni 6.675800448670261 -0.3384928441486937 11.661607829909615 -0.38172088772283935 1.5711641179762876 -0.4352707959248375
Ni 8.105483991265508 2.931460776697573 0.5865927755527613 -0.2479487042339794 0.4280526809098434 -1.3530582081353535
Ni 7.064777263431296 5.2630509254267155 1.604206906639125 -0.45033540356744384 -0.3139597210174658 0.1495052779534006
P 2.095258533379425 1.3613131289586555 12.38483019406338 -1.3060741260763313 0.32887571889734973 1.2835196378145832
Ni 4.704540858296126 6.671626700143838 6.190928543867102 1.7438062390574678 -1.7893206785494993 -1.146254610681116
P 2.8907437453682117 7.957839935462946 6.269924549016557 1.6047167571207523 1.3145718791346972 1.1523704937708668
Ni 1.5394329036270642 8.515669699970285 12.845391392691925 0.7706694035423696 -0.559014905753734 0.7622361851733518
P 1.1533427783754948 7.423232392933021 10.449986099918355 -0.30019686290541847 -0.5665996600795274 -0.3804371359144093
P 8.166481395390663 1.7456749178160231 10.727407074384486 1.3307885981038756 -1.8099157290920314 0.28400354097500763
P 8.303029163811303 7.379270134225184 1.932382134111155 0.6950871981306803 -0.7398292782330613 0.5462925730910592
Ni 8.79736095238911 3.488306860384808 5.104251745258598 0.6080743822845464 0.7989839342163465 -0.5674751207059453
Ni 3.121899544814016 0.7246601929412808 0.8860564743400481 -0.18128488435784262 0.24915249473409348 -0.3592913550747296
Ni 5.379299934494176 0.8129855373079493 0.4538832009862678 0.9041739351921395 -1.0531657638442313 -0.32568369432261335
Ni 5.757750445152224 2.8874433583175807 1.0708432147163034 0.8966161774495396 0.3294225925397552 0.030292994556586537
Ni 8.864913164222061 8.400643396968936 4.339748801791618 -1.5247742178578385 0.9189148409467399 -0.2837124920971501
Ni 4.157605129039474 8.179324405724175 12.578801019853504 1.6481946257987292 1.7260982802547435 -0.4555138624445897
Ni 6.603145967162935 2.1884048330924735 12.250425378905977 -0.45912086306955774 -0.24153817272194528 0.45398662716678584
Ni 7.437298109332642 3.6272356879868206 10.626748027323872 -0.19445638874279414 1.2815694560667477 -1.5819146716245724
Ni 0.9906769051892845 5.780843961227943 11.913464134987464 0.8873558351935362 -0.9089911540751249 -1.3690036757210164
Ni 3.65671853275387 6.443523069223964 10.389827122809962 0.707499455752104 -0.06570351284539652 1.1369693287244484
Ni 5.041961766149268 3.0739474031536074 10.390567181744712 -0.03153946536917794 0.02509396685415033 -1.6806064664705316
Ni 2.749341925797899 5.655282160844917 6.95378956775959 -1.4591470667763322 1.0062413313785508 0.5109787282811136
Ni 6.2159986148617214 8.540298493587661 5.004036733558838 0.8088767678500262 -0.21342855896992277 0.8614144327374262
Ni 5.212166127863379 6.1448426377812835 0.6202502881741039 -0.3886512962940855 0.7318717139488814 -0.45129056839186155
Ni 5.980724226561648 0.7372025830615445 2.932957442468722 -0.5069140712934367 0.05626345047841922 -0.49619642776561634
Ni 6.0425306392117495 3.1133681821873176 3.5915409448072064 0.1536820350389095 0.5454546505707961 0.08096146744573153
Ni 1.8853024345986706 9.2548736598032 4.53709815750126 0.34594527278512677 -0.08416943286006794 -0.7896127774140917
Ni 7.998998244169551 0.385901663038372 2.020701962510608 -0.005747701117054618 0.1345111185374135 -0.2798226701244406
Ni 2.979385338521904 3.4180518246162412 8.641311481877937 -0.5035469545934166 0.662037466764563 -0.5076481212459838
Ni 1.3462269586241598 7.029226854727154 3.3140657299967917 -0.09387663284550284 -0.17631159951296732 -0.8615234475114646
Ni 4.311638513533368 0.6339455154424151 4.522915686462244 0.0323835585370281 0.09136697904977167 0.8874738488286392
Ni 8.242243205096075 5.898122617508969 10.508973853321317 -0.49534102174385664 0.0211987455648022 -1.62511820359524
Ni 9.642738087842435 5.051035532218827 6.782597847913896 -0.4936739184540789 -1.7150008847900013 0.8559521240712742
Ni 3.8516068477575143 4.057140979487145 6.060102672104715 2.1115992038453055 -0.6806789931251502 0.06392199546494151
Ni 3.965318511905826 7.36300722421804 8.161886594700121 -0.5145870144576622 0.6584039837770338 2.3796307948720887
P 6.362291258696477 6.671782985881611 12.183901894958721 -0.04924408173779261 -0.6347377505083456 -0.6163031979522419
Ni 9.310033331958579 6.7800798088800045 8.228301597958804 -0.9293730601655865 0.6607940812757652 -0.6657555390460986
P 8.236764010995307 8.825814149942591 6.9119031513805345 0.43798150998778124 -0.7031717749110277 -0.03162302622191973
Ni 0.8977282609681261 6.509962894335117 0.5883771909469878 -1.0239544323875978 0.18883904255601672 1.98578227064778
P 0.7069429062449732 5.480950016997845 4.693986055029195 -1.106389141944746 -1.5422752028560793 -1.1351939819915806
P 0.29058574955387845 1.4415980317808086 3.8489536675268403 1.7034743722076406 -0.5631654375869979 -0.2761958720051308
P 2.653998432477328 7.806895492609753 1.1510784738335165 0.22249092628250713 -1.1780848678178355 0.7209964617972744
Ni 1.9276742560926936 5.838807583384553 9.120791528727908 0.5994051366453226 -0.5833311139015953 0.5887561415719086
