# total energy = -340892.04778739956 ev
CRYSTAL
PRIMVEC
9.05278626991960 0.00000000000000 0.00000000000000

0.00000000000000 9.05278626991960 0.00000000000000

0.00000000000000 0.00000000000000 13.24966777568353

PRIMCOORD
 96 1
Ni 6.053507722545012 2.1826539538930896 11.537625056161525 1.047254797676435 -0.47891655763924623 0.05423947806985497
Ni 4.7666994029632015 0.39739378471286757 5.944742115337951 -0.46712599276222133 -0.14525961530316917 0.7060598950921002
Ni 2.6648777786317988 1.8040030580954998 4.595117416363646 0.23709890600366904 -2.0876704609438494 1.1617614480674636
Ni 3.3201999316882387 4.3649095851855835 4.707501422285658 1.0863124257995294 0.4579983194293403 -0.1430716065129149
Ni 5.156231747986141 4.422584887194488 2.7232700613217746 -0.3006822871822693 0.8349397834856653 -0.10379286351795028
Ni 7.1995090028164315 5.8944050019663745 2.7421641317695515 0.6840715637464669 0.1638360927537759 -0.5165806478489232
Ni 4.8772610829874905 4.456514730536094 11.701762031244503 0.6524966171536634 -0.29641399882421854 -0.6818223627009742
Ni 5.508629563289958 7.798097343647192 12.659898983338401 -0.2718867031068156 0.5265272175386739 -0.841175737093048
Ni 1.873229715521664 6.479595218958934 0.27257577670182187 1.1969626785589451 0.22988181942993957 0.20706584997668853
Ni 2.751884108502711 1.4644511466608763 0.3329334193142796 0.24042951303879886 0.4575887426957474 1.0814378713160473
Ni 0.562294814966077 -0.22265871261814604 4.658027039455825 0.5431815382659033 1.3140093217630078 0.5113944756622936
Ni 8.442936370078877 2.0713408925994954 1.291579138002575 1.4178883172368613 0.7151860257630844 0.06482008179917868
Ni 7.03965490096849 0.9846082047393607 4.761732139078052 -0.8161977269914718 -1.403783502404363 -0.4297668353874728
Ni 0.9903386185161047 7.426353723855378 2.7931358454661663 -0.4709646497820212 -0.13752239455991153 -1.3031605519739622
Ni 7.694479150774185 3.7830326880070655 3.852102732228905 0.28700633235707346 -0.8111164558138223 -0.7110419216877237
Ni 7.776424973060264 3.730526527019521 12.601745694208784 -0.45609750286220163 0.7258738444942338 -0.49730740144160807
Ni 7.886941389152668 -0.06536202292175333 6.874895094182764 -0.06175301283808073 -0.03155129244371986 0.2970917416175335
Ni 6.822958353458343 0.4784144122311994 0.28432629341937926 -0.5196196917855631 0.4165673059780632 0.06122336558685585
Ni 1.9001617549937233 6.407924309210936 9.33370248595393 0.010441507048298146 0.47188381916218086 -1.6495485687234621
Ni 9.358408445255845 4.451490434096769 1.4488378059961837 -0.9062480441123488 0.4374001835630144 0.043250583158519054
Ni 6.393304059211818 2.035591439196079 7.002847176837584 -0.5357754756098191 -0.2877786917467237 0.12983325344576993
Ni 3.4990829905009764 4.516779129448867 0.5238358625999762 0.7180993427551374 0.34241411970341673 -0.982750190235146
Ni 5.745278451975372 5.428394717629164 4.983491910008946 0.6632775098192513 -0.16838977356272936 -0.4312120524744315
Ni 5.326279287294768 2.8588699379080214 9.284969526328387 -0.7745214302986081 0.08359222020035927 -0.03303970406378826
P 0.23973317300411287 5.621554020558688 12.496636507419458 -1.326503854685593 -2.843803875653573 0.21623286118793728
P 4.039280859199036 6.315757891105042 12.402219566620202 -1.2619624804690974 -1.9527302252888175 2.370968491211401
P 2.430971884218666 8.288287620397805 1.3480739566678974 0.46785618606002655 0.7189295519659167 0.6056305487297441
P 6.363113016643981 7.759677318262513 5.801804050114376 -0.3237224568311844 0.030488912617476525 0.6963364971567491
P 4.688257009005086 0.8973628813080916 12.567774208049842 0.01904261845374785 0.7373242524230206 0.6454502518298432
P 4.014811177621565 6.144850337090585 7.965753136794972 -0.1237004010751547 0.8252667791722754 1.0537046670668369
P 4.923267343356232 0.8980201135990736 3.876243797660885 0.19133944038036724 -0.054395029811112765 -1.4549440844385781
P 0.17868480279107762 5.590376224275739 3.7176579911843843 0.5551664785419214 -1.117502478249088 -1.6368038674632843
Ni 1.479152871737389 0.9004209125462972 2.450565735053397 0.23857806165235684 1.1607013822340655 0.758887580416093
Ni 1.9388624167560944 6.483297808587194 4.765202977375057 -0.4263876345025947 0.2656098689591684 0.00973033991388647
Ni 6.027390433846897 5.768426426741777 9.312926341218342 -0.14476107840019586 0.3034500797353935 0.3344082186798047
Ni 8.548654809391385 2.4443971664159982 10.200151007062647 -0.2735862022964256 0.3601573026194507 0.5290795516468824
Ni 2.2641742952194406 5.499395721185253 6.873384184136416 -0.11815838821100295 -0.5798791507972529 0.5928220841111661
Ni 0.6270131847764141 0.2751666841629659 9.17936967851742 -1.0962780216526733 -0.8536885248480782 -1.091219119072527
Ni 1.1021857942059514 0.9465593435961454 11.385081984591782 0.6324067883823238 0.5565528173664867 0.48625371473060774
Ni 4.3372895339488595 6.767012133647477 1.4980741005442968 -0.2793287612071576 0.3987282209141133 -0.45494873396973906
Ni 5.581640285421776 8.063905257253447 7.962202633977849 -0.4298624804250725 -0.7672099842388593 -0.5579985486740777
Ni 5.220470320118489 2.790412767323916 4.785196961367658 0.7323396547242355 0.8185921953655773 0.906890048571722
Ni 0.8679033038795283 7.814093617175638 6.9760165285729485 0.4744747198178087 -0.6271193147311392 0.23781598667535173
Ni 5.28594007119813 4.5469430136575735 7.329159388195606 0.6871838841232036 -0.05671365064196039 -0.899064381879716
Ni 8.188471597803208 7.221860332381646 9.351111899435852 0.3324780915366274 0.016181494855868905 -1.2326663026081417
Ni 4.656481728821244 0.34609345487076126 10.26751188521648 -0.9721387332678869 0.3042409510678051 0.4916538027002565
Ni 8.19114216978447 7.02443716706848 4.8959378865622165 -0.424196797498863 0.14866478432997624 0.13920029648296672
Ni 7.224358901421743 6.171999643435696 7.0681277246819425 -0.17290745892742482 0.19416971074031075 -0.1814268092523456
Ni 2.2947002908832337 5.3819720290870725 2.430187912918403 0.27587268433775713 -0.4363504021422614 0.5546234615542578
Ni 2.170785750952629 4.998251572918273 11.376907318493204 0.04184213284676665 0.5095337683044708 1.5150875866976938
Ni 1.2875053841328516 3.5313833322946935 3.752968384448508 -1.1804723942134057 -0.5571122894143825 -0.6877456701639445
Ni 3.8966723153995906 2.497799553254882 2.7833841839806865 -0.6887753969800395 -0.29906146374939463 -1.2772371472399808
Ni 0.8338657323800338 3.517288143905451 7.831494883149821 0.5192327407597896 0.07261052437787495 0.9807074487735046
Ni 3.5203751440600635 3.2013096881969596 7.535007076511361 -0.29150473444805924 -0.6996331656301499 -0.31969070996397203
Ni 4.124277470494219 7.038369405302933 5.712713768819441 0.3205821114299898 0.1545585241065919 0.9158778538926291
Ni 0.7549697938244221 7.210001182227563 11.295699298296865 -0.048215383362962126 1.6504078313999642 -0.4400738737404356
P 0.18170843344105 5.92052229066449 7.729167617614198 0.8046236490006271 -1.04738463838608 1.3079543738181798
P 8.386311191289723 1.826861343697836 8.073539232516023 0.7697620612367517 -0.6653809293154993 -0.6976734708006177
P 1.636942938291337 3.2667070169855834 10.103083410412157 -0.12284139550896908 0.07530118383616063 0.3016634201486159
P 3.9200194514662936 6.2556111784151724 3.5301485322328485 0.5764870943965684 -0.5851182877090052 1.9169360984083437
P 6.782012600674436 3.961653216014865 10.378093481370799 0.8644581046597563 1.1442380944717196 1.06660312029606
P 6.1888378260972186 7.9068394136096725 10.102553822409094 0.630835587240462 -1.6807851581402407 0.9487931165634111
P 2.5243694812718545 8.660520090653986 5.757073327346178 -0.46317137898984745 0.043420018856847806 0.8320992287130765
P 6.961022398496453 3.8572474307270466 1.652300085101556 0.43182294658555304 -0.26922509711425247 -0.8839599221381098
Ni 5.15875747538537 2.7922957468903657 0.6795220615998716 0.15607753185427958 -0.1553187993113841 -0.8598162350123707
Ni 1.5109824686394933 1.1676012285673303 6.957387704766023 -0.06655351955051764 0.39865905823907466 -0.2017459804256719
Ni 6.843634917543784 0.6910960489830743 9.122131626090534 0.03116999784490116 0.9570332450850162 -0.043015841439893655
Ni 2.6714682071143736 1.6105540660019073 9.103091805782084 -0.22852196296793545 0.3037467850402059 1.0517046059176727
Ni 6.530698198058019 1.6896211022200474 2.4151892564487203 -0.9358951775548204 0.617691079438704 1.4963722696763777
Ni 4.02456102854977 6.935801335649678 10.476406741426787 0.3043024004333598 0.6948563130667968 -1.708414489821735
Ni 8.445181461100413 6.9778515283716 0.6883521494321563 -0.7241956854608624 -0.049541301263237254 0.1841475506176183
Ni 7.478126609146371 3.9551714209688167 8.153024507464789 0.7537160635174825 0.049806639109481965 0.6084783025911843
Ni 2.9134944509078218 8.604709662638777 12.392745825676501 0.7339643348118521 -1.677958230214407 -0.8038844568417576
Ni 0.03856486996671365 4.926100865492285 10.048694269858164 -0.7884598947565711 -0.13313609256675782 0.034699094044082175
Ni 8.618750534309756 2.3273627441320373 5.805407964371125 1.4535598024965417 -0.3213914947051626 0.4466672106872372
Ni 3.2116027063077937 2.458347510223206 11.439789783226253 0.8659190054759991 0.4744724058249635 -0.12867265747876547
Ni 1.061574994517999 3.0736201363470776 12.671677563693729 0.31995836180306186 0.19352384962619573 -0.03108823676437227
Ni 3.177048220706163 8.484045073017574 8.224386717197326 -0.3396003044037055 -0.928552106926188 -0.8324129032987536
Ni 5.939714197784075 7.747981118263219 3.6782005164808824 -1.5125409090164403 0.5953235103767812 0.09390105832553507
Ni 3.1680588038336404 8.43054310552854 3.726972403087847 0.948950725187198 0.10293077262797111 -0.9794877174337905
Ni 3.5243764756387694 4.492925037345043 9.56542575357153 0.47978507628712863 0.2594567048735789 -0.8558883607128743
Ni 7.3533158433644275 6.504427011991492 11.592028681173725 0.1707374478592995 -1.0934438946379879 -0.3896907933021934
Ni 0.515026596176359 9.0528769050266 0.4435847219237032 0.12529911302084226 -0.06036924511667667 -0.8969987575999391
Ni 4.654933702350749 0.253912552306663 1.7000517226838143 -0.5055156482840132 -0.6489726631608049 -0.2990653204041365
Ni 6.311131917266311 5.564105038209211 0.3010639901521156 -0.7014658479635145 -0.13976105408244316 0.8812872604019532
Ni 7.868718130175439 8.850402284914976 11.126222989808635 0.3067398062302588 0.35336984738397204 0.979900379491177
Ni 9.142137378705426 4.7013382853200865 5.733846593338291 0.28032326390994305 0.8964562548329076 0.6693519981481053
Ni 8.028861921187449 8.689679115574828 2.499974032542676 0.21241605854500836 0.7501152335401018 0.507844810637822
P 8.837891334141737 1.5831422288518584 3.699267255659178 -0.2752988141121581 0.3003886672012504 -1.1934844902023576
P 2.218113718132436 3.1631974575491038 1.5186103464408907 -1.817919316122798 0.2690597751809818 0.7053844662916303
P 4.605659386099852 1.211344292341781 8.124749034494359 0.39923112869246086 -0.49562949951855284 -0.6709447965565218
P 8.2939184535244 1.5175095276174277 12.400351071511956 0.6071711537439866 0.8488466233747446 -0.15631818711017595
P 6.38742880085304 7.6968600335913795 1.4915416098945362 0.4183549940061053 -0.820711041480793 -0.6433859131016468
P 2.0793435557569073 3.214463386802977 6.038138807112502 -1.6553376646014137 0.7153665172050067 -0.4675695080575431
P 7.064559116292065 3.8107161087484296 5.9314390457567105 -1.9877000564957834 1.4573444663499546 -0.05687125926574721
P 2.306079643359327 8.519622523479823 10.300967362551923 0.36977091444981475 -0.4389911821992181 -1.0348494820335468
