# total energy = -340869.3552753292 ev
CRYSTAL
PRIMVEC
9.27236868978712 0.00000000000000 0.00000000000000
0.00000000000000 9.27236868978712 0.00000000000000
0.00000000000000 0.00000000000000 13.57104884289502
PRIMCOORD
 96 1
Ni 4.561254220361171 2.2654621515646336 0.6622946802653917 -0.19502280276922543 0.8643763435792274 -1.0628418534814148
Ni 8.208169459272968 4.569914612502596 9.514105596173234 -1.9162493567539642 2.2788129548220626 1.8294833668113137
Ni 2.802721724860576 4.406646748662981 12.468631755746614 0.06452234805310178 -0.6270432100775652 0.763706341960975
Ni 0.986283288328723 7.6897606110557355 11.770088605461446 0.2596474807281464 1.0013055846398304 0.6972631227360765
Ni 5.870679549512848 6.336161718561718 9.036146528124899 0.3266784541357148 -0.42888828943726137 -0.558229176627645
Ni 6.619886921062195 3.8590670292713147 5.447364403271624 -2.1010736217236334 1.597267757041875 -2.4616430721798377
Ni 2.9130165476895304 1.4841538404075667 4.60396460396056 -0.33516129479574536 0.03387248437772876 -0.8224115691116676
Ni 8.941363450492293 3.116359588012267 13.494440369108794 -0.8633597293892551 -1.2000485165731203 1.0781915964646076
Ni 4.530553408390876 3.075199544419352 3.031148376340681 0.32289276184103743 0.010891450101523177 0.10684502008071275
Ni 0.7809420526029057 7.090700701975432 2.245601665560654 -0.8072145496562549 -1.0971781648694394 -0.3539118359303711
Ni 7.1883851036991 7.184870876052847 1.4339170753293835 -0.11882096149566634 0.4341395105338716 -0.5724718025895883
Ni 0.962063861911806 2.9184687003438743 11.057459800249044 -0.2154841559473708 -0.02395316838148778 0.25611041410916535
Ni 2.982420225610902 3.780446617100932 9.742777965417522 0.41366838716371335 -2.10177913243109 0.37176377651012743
Ni 2.7986326103698183 5.949559588000104 4.00835865213152 0.8615638138310968 -1.308108897118173 -1.1371611330202802
Ni 4.728499930270027 4.958890469389911 11.019881672592138 -1.6327433242406655 2.0733095642364874 0.5962966729233279
Ni 7.529663897229363 7.6363054068851675 6.833430493927524 -0.7845448759728811 0.3027962482014785 -0.5788072578893129
Ni 5.209142421750619 3.0522226153760443 7.104714959665527 -0.363029224850607 1.5381627233496025 1.5990127647574397
Ni 8.65634011640745 3.2075069699717975 4.860973331217902 1.4445056627140735 -0.6346104809018619 0.6807350431740664
Ni 6.678822094992487 3.022625215252461 1.1450586896495798 0.16612206057447518 0.8884932912320892 -1.0971385698807556
Ni 1.622868472565713 4.328072698334897 5.73534191394775 0.2813247085912639 -0.4835214034011092 0.794186255717387
Ni 0.7184082724733767 5.33523736043502 11.287067751470923 -2.093993060727768 -0.8686659720935168 0.1910003118733936
Ni 5.11675254241748 8.516707519771787 5.948516446548381 -0.22361064170924716 -0.8231602743522338 -1.7196160149645094
Ni 4.8588879755513 1.0264326437595233 11.885049284099356 -0.4251905288707 0.0417760554955216 -0.4486009373748403
Ni 4.050689795860904 4.05966544852996 5.2589443127480395 -0.0890370453650144 0.2891712012188762 0.2153607429956291
P 1.4252928454249523 9.16161001851719 13.631711293497753 -0.7687449328261471 -0.5314272259434525 -0.7025768216395061
P 9.186608323884727 9.16638528827397 6.052551493430144 -0.15510205531488772 -0.9477291940752711 0.9739598456370259
P 4.606920635025534 6.591105489363072 2.764870062334107 -1.0711807123644133 -0.030080364325148195 -0.16435365582014275
P 4.311938777214899 0.699598345815889 3.01180899744414 0.805111387270323 0.6819851135310835 -0.9308252192310807
P 0.6353955393636015 9.170882386976958 9.691845772704857 -2.551165284711387 -0.41577437776312265 1.688511323139905
P 5.471995522848156 8.41101179169888 12.679023650572466 -0.5388073204576075 -1.0400032583203445 1.4459344247408001
P 8.216922575098991 6.7664088874634665 3.3656472140531606 -0.9001676422462238 -0.27828926419904976 0.6308029342303136
P 7.381435815031493 3.9013675741847815 3.0199788812940427 -0.39453860831279797 0.1264406828244532 1.3076766946767608
Ni 6.051611275268323 6.377887376630679 4.61683001519849 0.7257789707875822 -0.01084954111999422 -1.7416213155910072
Ni 1.301840531751586 6.156759933602105 0.0410905008294669 -0.40078150389871625 -0.8498678655504074 -0.03330144236560716
Ni 6.375791821358772 1.6185382764950007 3.0038570142530423 0.8980110009145373 -0.8460338365162978 0.23093417195385388
Ni 2.105597246949754 7.6883141215760125 9.69671747509362 1.5400200882733155 -1.1659878274439854 -0.5928850761386176
Ni 7.292078000184698 0.9565189855728641 10.092571574904392 -1.000591075071309 -1.0941974849745606 -0.2835212020219504
Ni 5.942002607705392 8.313772463661278 3.125927745025903 -0.7192756224514257 0.33274265805192377 0.2380954655889835
Ni 1.4506527731624208 0.18619843104062395 2.2427244496275875 1.345918511766779 -0.057129912243772576 -0.7882925159407715
Ni 9.239590637263849 1.2721040461011066 7.987186665192366 -2.7374015995372343 -0.7246728822075972 0.7790599415989099
Ni 9.091019477432967 2.5203688328921463 2.6879631838550897 0.3773404992669566 -0.17049782104466765 -1.8098056858767284
Ni 7.442763260024406 4.942645279848396 7.272820218130604 -1.5424150708680533 0.6954839193484668 0.69191934192566
Ni 0.4674117489253481 0.9026187077162261 4.285913093422018 0.2662775844501543 0.0038767093465868715 -0.18835850337517238
Ni 4.273597533633754 6.361530918667647 -0.04459823781779757 1.2694479902128655 -0.565389184711194 -0.024541436784789993
Ni 8.610562433321569 8.797790097261228 2.5323301882052487 -2.151402708995488 1.7835590934753736 0.010763923384723397
Ni 4.756465393544691 1.9707306477024118 9.207536059498425 -0.29009242748156494 -0.19050640295611063 0.8976371625148862
Ni 2.7341618324690433 7.237936640748106 1.4938332658427196 2.600065609956516 0.8582694593505412 0.06363943122751621
Ni 6.303866059216343 6.464138948043452 11.722671567631878 0.6242728464212797 -0.4464602368827537 1.7326481655581192
Ni 7.327173914804924 2.6566262874084536 8.466854630747838 -0.8012279930555168 0.34074573086205834 0.12698678513591033
Ni 5.501982362447048 8.146582387963182 10.53426826438026 -0.3436559625303179 2.015436346068787 -1.3942966459598505
Ni 3.2945096032298116 4.736548346093106 1.5651349975878064 -0.3969844987501292 0.08949907260309747 0.12769589538779297
Ni 3.594266730797228 1.2632582065904867 7.04490725586317 -0.7855067256655182 -1.097577200080071 -0.14901702546307238
Ni 1.6952207636572914 2.0720034560200102 13.130287569825127 1.0694732427550036 -1.1046526188696135 0.9140886232026904
Ni 8.637795379487912 1.1820137141459897 12.179242063354064 0.7345214928669027 0.3024344939866856 -0.30428774514534046
Ni 1.2245275235340312 1.9124074500904638 6.316902082033931 1.0567678793731932 0.7298549406291689 -0.36591914480389237
Ni 6.074718017470068 0.18458225721808616 0.9267491193959293 -0.02179575571885279 -0.029155024297401404 -0.3713976514199604
P 8.42215717858752 6.450221122985339 12.419857243174537 0.46612274830868755 -0.5884509516266639 0.3007553065120498
P 2.6038201490300685 5.6331121972051035 10.625303450681429 1.4617729344349535 2.811592323918035 0.5186095053534939
P 1.2553674210312233 4.016929102298884 0.8327551203192496 1.3063101533465373 0.8557502924731134 0.48093590206212
P 7.929831502847619 1.2849555487863464 1.2170502856080732 0.9640204750361269 -0.9066036276795547 -0.7346186805663993
P 0.21242161628169703 5.113099229244331 7.644625503104118 1.0884171308473578 0.3896504269825612 -1.102413702236766
P 3.0298113008087824 3.342725919220611 7.6380439759713745 -0.7878060632226561 0.1368724196807385 -1.3545435344316286
P 3.0288098850151273 2.3509904782375437 11.486902127568483 1.759664289135647 -0.19837757817407126 -0.5332305977007784
P 2.824224347318781 8.70696724819779 5.716573712948332 0.5652117785930653 1.4737776722053135 2.1901872859628537
Ni 3.566755613577093 9.422395381448197 0.2957347741295686 -0.3441814960164847 -0.9233011429398936 0.01252615749146875
Ni 2.4890004103927477 2.3278002847196615 1.8221576333978389 -0.783239012677264 0.0361031734804604 0.6460979127161711
Ni 4.046962303740076 7.422716399414385 7.705302027831155 -0.2319847247055553 -0.1337331027208084 1.0667962101434723
Ni 0.5658008506519584 3.3792126891098024 8.802548676754782 2.256698896531842 -1.3372078713666582 -1.1344681595691495
Ni 9.154405388223948 7.047472920215989 8.52322877650954 -0.023314249245908237 -0.021999644199542756 0.6724342366178548
Ni 0.8038160583563101 7.389780946645285 4.560021922592868 0.9140022341364711 3.1083359381675306 -0.9229895252367458
Ni 2.551644531706948 0.24598759010606125 11.160830018312241 -0.523302282843473 0.7650772541665727 1.3568649834759534
Ni 5.231117935000273 1.7135336913653354 5.182199700717068 0.7147306833932207 -0.4828673147568781 -0.7031918295156857
Ni 9.043990024605018 5.92001782208728 5.614817814233979 -1.842822764232697 -2.124389413631438 0.9199823629793059
Ni 7.482263549663023 0.0705061625312385 4.692732696173313 -0.5493298172554861 0.5543779212023549 1.2495232262644802
Ni 8.490466717030639 5.191979267731587 1.5371519168130692 0.5764690966744395 -0.7347567488061605 -0.3820579593472839
Ni 5.773774026739801 3.04435964692216 11.27359221838834 1.800243753219906 -0.7522515631568142 0.1027219990512747
Ni 1.4550107863385124 8.79447058935263 7.701909268211725 0.9964053191247354 -1.2557833482415792 -2.8871537033941177
Ni 2.0679699757400107 1.2657246566007851 9.128145113509037 1.7347374439869803 2.88620985142361 -0.42101711421930077
Ni 0.7303464468653295 4.869106125593967 3.51819900166382 -0.4388500286356635 -0.25468962250223875 -0.28483683550958044
Ni 8.413329883813821 8.443131276043518 13.14030358223537 -0.2955303106676846 -0.043571199722731414 2.4867856328837368
Ni 7.632874630555052 4.399210309158246 12.297744786743607 -1.2877190206079112 0.9734379116952848 -0.82911109261903
Ni 3.032055213976046 8.237516505448138 3.7525850043530182 1.011239813034407 0.8032941315559262 -1.6413673184642508
Ni 3.489878406677147 7.489505269430102 11.672133450578754 0.5339808456032417 -1.058145990667642 0.26112843614904707
Ni 2.188436586769331 5.640372461709103 8.523446677168346 -0.3985914382259329 -0.05454363957383509 -1.8514552430967144
Ni 2.4675997839876005 6.704914539838278 6.117150230015664 -0.6053816659437317 -0.7145813022995501 1.3289919112147692
Ni 5.950357011687645 5.245378837691398 1.6646516193191245 -0.6699366670069816 -0.6715166098995918 0.4049703451690832
Ni 5.956189331448839 0.7942358472636767 7.335965974578476 1.463715402873305 -1.1207297269371344 1.3835769455495008
Ni 8.050947179669123 7.976044987251108 10.764541971657552 1.1897121676441187 0.4154879568709554 0.4518520973222863
P 7.321425046359867 2.1226676772841886 6.392289219322393 0.9036874824740243 -0.492270610348649 -0.7090837695200884
P 5.585285320689614 6.085631595147216 6.5685912515059055 -0.5961943430175087 0.2277727435067368 1.7906013450341356
P 7.064793704498837 8.147379811650723 8.955643825157184 -0.12173762092182906 0.8367524112143719 -1.9440555803329551
P 2.4616840129102675 3.560200049076036 3.6243249676332616 0.29003483477075215 0.8815011761849721 0.9874164853625638
P 8.10168557988098 2.7794851695003953 10.806191596305144 -0.4028651259006223 0.5786830736066227 0.0035514647966842063
P 3.9490182756995353 9.114738195953056 9.257585522733722 -0.2853713678568118 -0.0019123865313644484 -0.2098058746156709
P 5.725158998905232 4.224834147903828 9.307255746099012 0.7286447223711516 -1.675406924547463 -1.268009457994126
P 5.4601361635881105 4.3924043907087755 13.189512041651364 -0.25622457108952645 -0.3090509708619387 -0.08537476602207877
