# total energy = -340871.4604383268 ev
CRYSTAL
PRIMVEC
9.23246244496958 0.00000000000000 0.00000000000000
0.00000000000000 9.23246244496958 0.00000000000000
0.00000000000000 0.00000000000000 13.51264201981939
PRIMCOORD
 96 1
Ni 5.301630599019468 5.181968657117519 3.9207469307089005 0.1534434366655422 -0.26154186953738184 1.1393442567145282
Ni 7.326928123068909 7.2598265881762805 0.30117399422666885 -0.6275582020407708 0.6527650403237016 0.20029690668397118
Ni 1.7005549004510199 0.03095367584404475 2.0319901358606236 -0.35698404709779163 1.615051049167225 -0.9346391936605323
Ni 5.3472758918798355 2.2351513886765 8.068587502614067 0.16202680745917905 0.030084478090206253 0.6707517067091093
Ni 8.049174404455188 8.288655240115604 11.278069242415677 0.29744552541252645 -0.35652844761761177 -0.5097690242437285
Ni 6.446815971411709 4.318133336227476 10.522388522606152 2.4311757568289165 0.9062799257915488 0.5362027929552249
Ni 4.070287889860851 7.034849950550582 7.9427573527509505 -0.7882616627028359 0.7095077444313844 -0.4653948690037275
Ni 7.732334768455568 8.517417187222039 4.860077941076655 -0.542631322189388 2.0886143129143577 -0.4187013216019305
Ni 3.0701075679671836 8.636035860901249 3.913976766215675 0.03188270764120961 -0.1719425239109942 -0.03399615443978661
Ni 3.657606064301465 9.286841350185275 6.099970833430657 0.06191602077850626 -0.043449329432886465 0.5563227036335515
Ni 4.231800582680286 8.117716203442926 11.987037396740511 -0.6116600427532757 0.30144179105611313 -0.4018536539169724
Ni 5.990796968528986 6.821626237239455 10.858853603394056 0.17638898971812203 -0.1843272707285922 -0.08414603582130024
Ni 7.451123203885592 3.7578613707680386 3.9824456287524423 -0.045085579484728806 0.24140704646071975 -0.02368474521144953
Ni 1.61753660081501 2.321133308662061 6.3451037824181595 -0.41568310360089705 -1.2815406597113412 -2.4920283693399146
Ni 2.160654651603217 8.675744680600367 7.890707500898422 -0.7191277840196518 -0.6213960390941169 0.8104680235965461
Ni 4.671459662636518 2.731747062700266 3.738799106170789 0.010601172554614 -0.6957073482131825 0.35571855012180675
Ni 1.2804963376352752 2.69256449334359 10.263229617123205 0.26905051920960116 0.23175358253135572 -0.6477135939427232
Ni 7.273149031056037 6.292559993840706 4.959369378494963 -0.06196178641477715 -1.0513060849276734 -0.8767274089454127
Ni 8.320516466988812 2.6772201412533936 6.5941282142011 -0.6968869703435805 0.589944762563371 -0.7639289994947425
Ni 2.0616180301401963 2.183661947276364 1.1179579182711827 -1.9741277171279874 -1.6277610405347256 -1.6037795900184637
Ni 8.807768889318666 4.061784792222421 11.330133866207644 0.36749831636555413 -1.1507959501948954 -0.303343121843884
Ni 0.6565102276453586 0.34962133934899553 9.982558151588895 0.47928268272941327 0.21948247847348654 -1.2511329939537614
Ni 8.846489835567935 1.3536174378484866 11.901988878678127 0.8659377745290764 0.7883030574637327 0.6852455294499101
Ni 5.752294773856273 0.6577316823875566 10.54650832996815 0.7162157525791795 -0.036298320210402 1.0101378382194797
P 1.3454836386959816 2.8894190512660773 12.412941954588455 -1.5570482474001959 -1.7573662371300895 0.968575698506977
P 6.238642414895611 8.471790359285967 12.499680013223946 -1.2964096064033737 0.19282888044170016 -1.0148609547267617
P 0.3615358317511609 1.7634648975283969 8.053048345572545 1.1388889143446643 0.08856113416986039 2.890598467409609
P 3.6667185044416715 1.101238852567129 2.372022640022568 0.2235949579799633 -1.0875671241422367 0.15415794623406354
P 3.202879606119481 5.7608901961161845 1.2347596433996402 1.2491977246042614 -0.21647068823035626 -1.7723069176003219
P 3.6749630931399544 2.144747119321984 5.838852799479877 1.8216003645188115 0.4398260193956876 -1.4335946722285247
P 8.87108511473056 1.2564273088150928 1.505875510610633 2.0671371168771886 1.2185337198615014 0.5817084906965079
P 4.237709358455091 5.802417810858486 11.723325040926108 0.42852524967088784 0.7048234515818378 -0.18759180041247694
Ni 6.944464146120362 1.5826194289707718 2.621289885560005 0.5845634436467997 1.745296707560065 0.34558763233539197
Ni 0.09373534169756242 0.2028418096255511 6.725606784406444 -0.7579550412994946 1.3478658653011366 -1.1555308937767195
Ni 9.25231194175126 1.3557039742939645 3.8701419591825554 -0.810727705015836 -0.8848757490841599 0.7625830269898093
Ni 0.18180195163617133 7.2555519582016945 5.97157405909036 -0.5538007085426462 1.3082495364610953 -0.3692430669708028
Ni 8.461773137855243 3.597401178633491 -0.01879821617981314 -0.8926553930295789 -1.5693939134497423 1.6102669975150203
Ni 2.2041026184723296 6.568758331464247 12.632144610386712 0.25051312252704594 -0.7878402588947012 -0.7792517458947418
Ni 8.964822302920552 5.952380693530607 13.08475037201327 0.4545389001258301 0.8436787060205598 0.09366657371722578
Ni 5.529340045441015 5.722058460321138 6.620032656496331 0.4354944818998694 -0.189217508941358 0.40545499811498553
Ni 2.7763860171864874 7.267074070962565 10.171262291927011 -0.04730546995418305 0.163610349896215 -0.22659543536918395
Ni 3.5200054484456937 3.9024509604699458 6.931539622359191 0.41353597535090714 1.475976222518529 0.6740123797382521
Ni 5.512804705733708 0.2165455531920246 3.8583050194624344 -0.60968132176035 0.6328808998052649 -0.5141280725433726
Ni 4.295707685669662 6.981273972704967 2.8475996907198953 -1.8268796106398795 0.9655654509257435 0.267876553506158
Ni 2.418498854476269 2.108140406904637 3.854710821948166 -0.9342550708482362 -0.06916524614175185 0.4120275091261807
Ni 1.136829994148181 3.94154120520514 7.7715930440018575 -0.48440149201321747 0.630583619130656 2.4485219614168474
Ni 6.253737490507808 0.45771223644068965 6.51974134342738 -0.11508180616820826 0.7722753145769088 0.5808903656705867
Ni 4.4719738530018125 4.019435488348936 13.459793295887149 1.3536637029298364 1.0075880752144324 0.235213258945182
Ni 5.387390939913473 8.586365214544294 1.4016936379924583 0.48324552403190324 0.5622403546695671 -0.31037328921778806
Ni 6.634678111201914 5.256742368055246 12.737732586990047 -0.3875688618631841 -0.5704043785375982 0.10792848295287864
Ni 7.612774383637249 0.9897384072041296 8.824174051309683 -0.27079809802832716 -0.4948468557162574 0.3692260976899383
Ni 8.499284631563105 5.173714835957088 6.478311592783848 -0.6675648243406955 -1.4375989082919112 1.2405271934134572
Ni 1.2765817736844667 4.5329911953388216 0.22444669429839662 2.5800642271339242 -0.29085810200299583 1.7418506579929938
Ni 5.805750729693961 5.978951719592932 1.546292460156514 0.4640434971821556 -1.8604960131427442 -1.0299600151517294
Ni 7.853039978580256 8.62727425432267 2.1931963109367403 -0.7304861464552646 -0.6477760717495424 0.8238871252159294
Ni 3.246041366662002 3.748425794452647 1.8365029055822752 1.0885551990871187 1.3506267158757255 2.750177925366296
P 7.302720607316505 2.327485242619976 10.846772926673227 0.001251870129230102 -0.7116250478847035 -2.019222809694413
P 8.22271699545364 6.012133188553321 11.072272121656509 -1.3503755190968678 1.2154571378187067 -1.0782913552672655
P 4.084995202062827 1.6956616955125094 12.56841846365544 1.7553121828145384 1.434570920098865 -1.0287968480815637
P 0.9290072711937123 6.438672939797056 8.143420301309543 0.02644071069003188 0.47270965749758587 0.1372686266778926
P 3.368786950921427 6.72404834479584 5.605084088150511 0.8557783174975713 -0.19200767009198547 0.21316399245462642
P 1.3873436220756157 9.27465450014974 5.065240791686246 0.006312829591905256 0.08359813373763023 0.17780001113303573
P 7.00509372504715 7.638403698560466 6.934836534592289 0.42825194140484313 -0.7359638817403842 -0.41106026011690494
P 6.3115880983280075 7.322570400934991 3.2905307552614245 0.8435434659942762 0.7554908960297182 -0.06427063705361188
Ni 7.543115456729587 5.860249953754389 8.981988219792575 0.11355457089040442 0.2872611286803569 -0.683825509173932
Ni 4.818163486170347 2.9354059452259267 10.602234548248063 -2.525795695598347 -1.5385087938351114 -0.24848015125741724
Ni 1.235931242846238 5.357579319637152 10.006611485223425 -0.13520583061159294 -0.46286644615491895 -0.11865846777587305
Ni 1.9433224926361714 6.963529180456256 2.2468960037751398 -1.623880474533397 -0.16444955796805874 -0.26073582869631867
Ni 7.2765558095886975 0.5823089293608155 0.24214255449772268 -0.5619048257070194 1.429700736490757 -0.630203867193734
Ni 3.134116228040188 8.085356423613721 0.5438003297409537 0.42895025302344836 0.5686567997188723 1.0425586777523466
Ni 2.8433029028361543 1.9552877635801513 8.536584701887778 -0.8799204619614135 0.4671894990103051 -2.4847986843606953
Ni 8.681967360088208 8.053532126589108 8.397431185898691 -0.21585927989860243 -1.186485433176705 0.7548851441249192
Ni 0.26930168839888485 8.762769868808666 -0.04588256713757544 0.4325847644522421 -0.9519437463772508 0.4255031750151123
Ni 5.168489262381245 1.8282029221111038 0.9507072502266835 -0.3498713473124103 0.15879955877113297 1.008085326565825
Ni 2.9791585833459275 4.028547928489143 11.815737370797843 -0.5226553932880933 0.7231546457908578 -1.964305845941559
Ni 8.136051873269118 3.2526795069465093 8.956787291113033 0.9445340841767411 0.9715550928502751 1.2724569522425182
Ni 1.564126807288062 5.57312038094746 6.212679808088847 3.6166093517023388 1.405696660266676 0.08131859367483414
Ni 0.21322002032626716 5.48877260676212 3.681316873590299 -0.601499557280506 1.831741309607555 -0.7354188078701914
Ni 2.7331319320224856 5.4779059988137675 3.849575726501375 -0.0055507546149001176 -1.1079158630019177 0.9598827987186693
Ni 3.410942373089801 0.7352317393976274 10.150182734350393 0.1700782170087458 -1.7532010500088067 2.2323711184197554
Ni 0.4423337242405449 8.072052445658262 3.4556690359664306 -0.5433435177650642 -0.586165498026597 2.538889809778144
Ni 6.116432313440777 8.231229325554219 8.932234481276287 0.39659111996645247 -0.4114089017055753 -0.9853053525568322
Ni 5.301242835609246 7.7712680613342435 5.350506330385468 -0.3088992757754228 -1.8345690088643372 0.055251464274137095
Ni 5.728779692764978 3.4022823235948527 5.826164626749698 0.1298581931464344 -0.8497992170960009 0.17792239564351292
Ni 6.3054485109995 2.69113346171063 12.603902508675574 -0.22708625896267343 0.23195772812236182 0.30941118241483484
Ni 0.3229967650062103 3.285473212496677 2.681894536838993 0.4344202749990841 0.24115353568901696 -1.0250057564702475
Ni 2.3427557350129873 0.6508165682386051 12.495409999480437 -1.7078167083367362 -0.6794209523483331 -0.3790896207475794
Ni 4.904053081534426 5.028257394813256 9.029809603981258 -0.6109195650428252 -0.08970553218694874 -0.5723427332108918
P 1.0773729379142059 8.117236115411224 11.437235043357058 0.723830845922276 -0.22256291717102317 0.6311461765023452
P 6.745532284214544 4.0837395872106805 7.663370122701445 -1.2635856178948175 1.0705196817416467 -0.46281168165758363
P 0.7414553421316837 4.102739994311539 5.123696125777149 -0.6400961866067815 -3.377537381132699 -0.9448791262209857
P 5.71547571480952 3.8010785260834483 2.2797986523786555 1.1906295372520657 0.4567112251868005 -1.3784491374046324
P 7.231898390178179 1.807429882277805 4.986178602080711 -0.9391386241927825 -1.5460845492998405 -1.4557418977495251
P 8.99316596171532 6.750425489153055 1.7495497305787309 0.5587781071525797 -0.7917293095364624 -0.15620325879886646
P 4.348443509459796 0.0700568460262463 8.244792735696041 -0.35424042291438346 0.007433830570225907 0.40562289115141753
P 2.985150451280066 3.958261194155408 9.163327625075127 0.03289392251454335 0.9014182268238734 0.8394078465593479
