# total energy = -340870.00356423645 ev
CRYSTAL
PRIMVEC
9.23230462170297 0.00000000000000 0.00000000000000
0.00000000000000 9.23230462170297 0.00000000000000
0.00000000000000 0.00000000000000 13.51241102951739
PRIMCOORD
 96 1
Ni 6.550495423418476 2.4433016766590177 5.679373950881463 -0.15546020998525484 0.23477025787049244 1.1865659087056533
Ni 4.295495828389469 3.2609053267409984 5.686211395559595 -0.9508654257114075 -0.7789172453734585 1.3110918910058968
Ni 0.9249107247429734 6.097946323725407 10.348209399676257 0.2800867224191047 -0.4081140330043874 -0.3440804516622461
Ni 4.170573516831532 2.4799262284253567 8.966363307394438 -1.4403016519350549 -0.017230504945673554 -1.2052598855707306
Ni 4.876770949075244 9.113650876490555 2.6194623547024602 -0.5351329569298139 0.13855392114821946 0.2678616411078225
Ni 2.3981280109689 6.9062253463095296 4.694292605094391 -0.9389527334342216 -1.057113949858702 -0.719292077511658
Ni 2.2905901286965737 3.332187949425118 4.273111183011938 -1.7293301569284798 0.6530005533732753 0.15857844389926237
Ni 3.661051866356997 6.722179357032502 12.788726613312152 -0.10573790305946307 -0.7702654832357314 0.31776109704142697
Ni 4.498320324924559 2.9105116758239666 3.372508192664123 0.9843622719172725 1.2860557739728755 0.34785714509585897
Ni 4.570756985665344 0.8493904743147775 6.642863706243545 -1.9267070617521784 0.9586023893443492 0.4677489710582009
Ni 6.074367018151615 2.0906184142375612 10.253136051646363 -0.8564234072807378 0.3257693120578841 0.7956440712098362
Ni 0.20502455468631725 5.5231338161569585 1.189089423753078 1.256654952213255 -0.5555565148914884 -0.9554617868328384
Ni 5.725515162078289 5.413712543776155 2.5581016896143285 0.8281636411040963 -1.65889761403853 -0.2848491768047546
Ni 3.4103763358403247 7.4530916682977635 10.438350850667183 0.7541634354675464 -0.1599349579271568 0.3662135361158596
Ni 6.869526936107564 2.619306328757199 12.914797423544082 0.25756411583655636 -0.7735994327049709 -0.8556880717766101
Ni 8.669087720149612 5.150324130027254 5.482971445324106 -0.34853463077885777 0.4184825207229051 -0.11800540757290644
Ni 3.629874374218119 5.101199038031114 4.295960213303471 1.763650784587221 0.6277471781231253 -0.8567555938091762
Ni 5.367070941677958 5.22353630434212 13.680775873583961 -0.7697461203971517 -2.601155500586585 -0.31546381636681803
Ni 6.541327745096325 4.28050256595727 9.122201836875224 0.24265788814868536 -0.4099881100986487 -0.8148656384436096
Ni 7.487325053210692 6.286017597744085 10.159184428607551 0.8150255610602415 -1.412661264509967 -0.4925850562652742
Ni 2.543702987588923 8.468820571948092 3.0049443019247977 0.1118589283555364 -0.0340905139258058 -0.6415977108529725
Ni 1.383322337763904 3.10312524363368 10.931283896499984 0.707873037041439 0.5655946158537808 0.9160256923244031
Ni 8.863603142676709 0.3745268947580224 9.59716235562874 -0.616889409473015 -0.3705306754339747 1.0576623661630042
Ni 0.72020191486896 5.146141896109898 8.243084265451186 -0.4797742776538511 -1.3237561167371266 -0.85673939585926
P 1.879964923526052 7.192897631889715 0.699888998610755 0.6236385552713906 0.49701121035742796 2.6309682130726433
P 1.4579008931378608 1.5552555435981694 6.315282156400233 1.5019675043759684 0.024168626826403538 1.0134273076040288
P 3.7217081066153397 1.2430559362045421 4.437759177402085 0.1356963970947663 -1.342086282504882 0.6239226621707126
P 6.000979430052137 1.6146007966241407 8.164360405377687 -0.24372720995346414 0.013947463319027591 -0.39526443073522893
P 0.2246976722459068 0.39942457340774845 2.125232170093966 0.12490033492052685 -0.23022480459165512 0.41921785622703284
P 6.685942562053203 4.451706419739723 6.860656537988809 -0.006610306227666035 0.24739411728209004 -0.12659212080065294
P 7.496409640792764 6.299192096198978 1.5521304085407193 -0.9610945596385834 0.4183786481551891 -0.23732002087553966
P 4.107387625152978 9.684964340671192 0.6082436052243821 -0.6824525400858052 -0.2208032541674391 0.22915111191150211
Ni 5.364929047044787 2.4752085208497077 1.2789142067012553 0.5960722156173476 -1.2197747913574541 -1.5782282239119207
Ni 1.7905500548956026 4.1503178408609385 13.641318850811341 1.709815998154952 0.6479033413560261 -1.1709089188946868
Ni 8.565889020970348 1.3196840631671372 5.66413233945947 -1.2806304891922462 -0.9956411872652013 -2.1049649863582394
Ni 8.21434133199665 2.60833835106665 10.66449430179048 0.6882166962630921 -0.9082843578160873 0.8250132684005727
Ni 6.504038467409346 6.641544409937165 5.697183989402372 -0.6701233290964911 1.1040772059821178 0.8756465171764081
Ni -0.39013779835814916 0.764915811797302 12.952618481967573 0.8024071009652827 1.030463437150709 0.12466765008443047
Ni 8.812880862010143 4.8356410327356825 12.175195667327351 0.47839770902129863 -0.5502448728705878 0.7452748747286649
Ni 2.7831981974126188 6.205438044475466 8.684831568933866 0.7611241830560956 -0.5332923041766493 -1.3786869644470514
Ni 8.008405548860791 2.402651840151029 7.756799402055224 -4.119621516838207 0.24862618991697824 -0.8265980963891892
Ni 4.882273402529425 8.328886533349051 5.068248943437198 -0.6371517592664768 -0.3228248847175795 -0.7975829401037619
Ni 0.5483942683752595 2.3081222748534374 8.748461534456625 3.669593360098538 1.0528068378429158 1.1974928400308023
Ni 0.5316856437756325 7.603956755369543 8.663198433138836 -0.07222125935925627 -0.14645055028747683 -1.2163459681815634
Ni 6.618860637895345 9.165804164347387 6.926394238618262 1.4142157534812807 -0.8825620133493187 0.5128844299442586
Ni 6.254784711778487 -0.07669275309376815 0.469298346432291 1.5283351957362195 0.4179045367322481 0.16294957638376453
Ni 0.5448979946787855 7.240582484391137 2.5859241623148677 0.1303022226623885 0.7328950130070733 0.01492293985841946
Ni 0.22843952524083933 8.429924873286234 4.557020239869242 -0.13447306621062646 -0.19472712590567753 0.6999224147357945
Ni 6.329584842459322 8.200502107621118 10.756162775937986 -0.33862354231273295 0.5718336547849572 -0.18818649657368236
Ni 7.187478269175613 8.263595676255138 2.590383365365824 0.3061098859557438 2.0667473376379375 -0.9760884619442544
Ni 6.551464815386075 1.190311780862698 3.621002129638474 -0.19832075679420685 -1.892741503440011 1.1370981409928287
Ni 2.419113038991307 1.8365546279865193 13.305900920948048 0.033213767747807314 0.11850985801315075 -0.4943200366785099
Ni 0.9822710323114797 2.8119198965669123 2.105584902986846 -0.9113959068618755 0.35001224376564877 -0.023636922692649616
Ni 2.4637973925453984 0.7352718054281218 8.437649542422331 -0.39853718794922977 -0.4990122999478567 -0.6986216936465001
Ni 0.3886513973411639 3.3301476101409335 6.367818584891876 0.6174943900468656 0.004472433949056814 0.12164506120802276
Ni 2.0531444904615164 4.998388095638891 6.225519229891892 0.3691592490077449 -0.8880464335026578 -0.2885808759330449
P 3.18440645204075 1.8013518511059925 10.965739779950239 0.7239257196289275 -0.6860317727966314 0.28482166600092884
P 7.334613505248249 8.046950419953422 8.71619370716181 0.7228785093113358 0.821738711414359 0.6651294754263255
P 9.272464977696647 2.9527217717845673 13.549704847260111 -0.8743473387490103 -0.4793647009202583 -0.32080939694944755
P 7.249704001191021 8.654463749895545 4.9143418120480495 0.49689191117074416 -0.04244505653808819 -0.9471041588967624
P 0.8382360040742706 6.733784363730331 6.30394488653155 -0.9815024338709742 1.1763015506651677 0.7159298459076444
P 5.352862425124291 6.151678335643757 11.199396480437652 -0.931057904067177 1.2300360640741461 -0.46106256017696085
P 7.124052337581272 0.8180504936175216 11.72357072131006 0.8030691600293137 -1.1309853432268715 -0.712917798554198
P 6.700280330869216 3.0880488904614 2.980540551563325 0.1764195858457413 3.090365469732039 -0.26820462626953806
Ni 4.295237323864776 5.516357304688218 6.539831188544441 1.1992710149771475 1.0994443351957968 1.3069236185608202
Ni 2.823146378782155 5.5450051454068845 1.9928778534511036 0.7732873007811908 1.0914104091477268 -0.6377171448516437
Ni 5.156417450966448 7.22237638000918 1.0863671114836062 -0.04929087581532802 1.1766692184172316 0.4963460659696032
Ni 7.747149797440608 6.557244237973857 3.8195262187592056 0.8487039271492932 -1.353098574454986 0.3149673363463737
Ni 1.1301448527403812 6.9554335290457505 12.391204817852234 0.3080983771406823 -0.27326789972505844 0.3112171252753221
Ni 5.0786722151650014 0.42370738058088303 12.161588173793595 -2.130509667596563 1.3928141478770528 -1.1710415878178089
Ni 4.190801495888767 4.413401588562879 10.268918676109323 -0.4522207935156147 1.1571450323413748 0.0679236604251669
Ni 8.540140123850025 2.8852059293174035 4.037278428364876 0.5024789183402184 1.2246606586948456 -0.6251434219516911
Ni 6.422978834309156 4.414407909748291 11.562191885926834 0.4197205068950643 -0.6027462852034136 -0.6930619401705355
Ni 0.22087365174133974 0.23363177326538911 7.2685415951975845 -0.2599884090073329 -1.9770040102345177 1.9895731051487804
Ni 7.618608422536968 4.099798670892346 1.1181437801815044 -0.8797109170537688 -0.33505947911055844 0.33979390847175023
Ni 7.547011901501436 1.6636797270980146 1.4415449425683509 2.506572585702677 -1.043371403461629 1.0055293929131908
Ni 8.57108680837757 7.887323875955437 11.467888512088349 -0.12452572518992747 1.6667037403465101 -0.27686692993022644
Ni 2.4007776823470044 8.70412431554998 5.9339215098858595 0.058821698123898696 1.3937618565023029 1.48400012126427
Ni 4.485228917209745 3.193084818226875 12.356531975247327 -0.7089824680555338 -0.6220928080508253 0.3731133485594864
Ni 1.4809354927489058 1.2619267665071376 4.209264258334525 -0.9171947729318398 -1.248018873804812 -0.8460410356051493
Ni 2.938162427661674 1.498116811336543 2.2811787175368545 0.33532121741237736 0.03910930729663587 -0.9326766706175227
Ni 7.836130747761752 6.342399281040538 7.552140446625258 0.7851318588246027 -0.9174259151060394 0.30273377039465926
Ni 2.735457951084477 8.864526373122041 12.236392920626658 -0.26049080256504814 1.2741253410838764 0.5364138805247665
Ni 4.540705834669772 0.25342398755242657 9.72542214524655 -0.4320728578128301 -0.38711763325837845 -0.3276135643554745
Ni 5.474368784034498 6.78515290570863 8.853534391439913 -1.0545860412305257 -0.19619882535519761 -0.5161132212942015
Ni 8.469660711653345 7.910820090789149 0.41322409887413286 0.7259746317381562 -0.20457676500624766 0.8198026707339107
Ni 6.9879866345481725 6.505044788594759 12.64518459013275 0.2103730599730506 0.6205033520765185 0.8404334596103848
Ni 6.011319611039861 4.652185910943668 4.761341292956216 0.820697157523722 -1.0731054401909519 -0.4176361135622098
P 3.8589001507917446 7.782481826583482 7.466215389078164 0.3569159128640176 0.5204020784775424 -0.2141296988020054
P 3.762976507521701 3.698396537870695 1.2692129011817015 -1.8404277816379595 0.5356988567356129 -0.8772855954417278
P 1.122094283257082 5.066107048804027 3.2214261464376914 -0.8047745727561948 -0.7651448741797144 1.1754093778682013
P 3.176845194693477 4.109030975345671 7.98359188418159 -0.15514319296546827 0.8358034170375412 -0.42834295845675263
P 1.3847810418675293 8.378528634394577 10.546909825812048 -0.3263141288177606 0.5529175346067445 -0.116808816161644
P 4.424535747733588 6.907536333541901 3.140257572144951 -1.4641422059980784 1.7892936819663054 1.2948636020724926
P 2.4528201825503957 5.281053561086333 11.571920888359749 0.6389427897286286 -1.1743865930306419 0.30773096649893456
P 8.85452778739909 4.4377933369285625 10.0111425802376 -0.7500954360457598 0.2253368803717345 -1.4067235588692935
