# total energy = -340871.7553293183 ev
CRYSTAL
PRIMVEC
9.23681360385004 0.00000000000000 0.00000000000000

0.00000000000000 9.23681360385004 0.00000000000000

0.00000000000000 0.00000000000000 13.51901038066206

PRIMCOORD
 96 1
Ni 8.101267422177122 0.8145077628950621 3.460636862563595 0.006640131024336951 1.6617692791593703 -0.2606772075442414
Ni 1.6357103682673397 0.029987315262527348 0.6773493944783687 0.751391529149364 -0.11681961479492141 -1.1860087506506025
Ni 7.100135383141536 6.027944537294116 9.759874003927521 -0.7119778032384319 -1.0290698992372924 -1.0395391741997322
Ni 6.239014964235134 7.195311510190691 11.799257141020403 -1.1310488494749553 0.008328060249721141 0.5604215562932735
Ni 0.3947306096061836 4.307597246263636 6.461789357653634 0.12877370183300402 -0.23349164826838498 -0.057440501505655904
Ni 9.076665698600232 5.378033097532315 8.395265037689043 -0.42493007612046174 -0.02036725080244234 0.278799628176565
Ni 4.855081660322012 6.100416576582516 8.341053255151758 -0.2848823440355352 -0.4465983051225147 0.6539816863396222
Ni 3.9094259236017637 8.106005907539721 2.633990079271793 -1.5212788031100704 -0.7765171205723982 -0.1468642407861277
Ni 6.343972876857372 5.275781571286766 6.574862734680511 1.2669727891994953 0.6356942008843439 0.3351355837641325
Ni 2.5529813768798584 6.593025081207758 1.1647483362488233 -0.04506423932849013 -0.35901650414678815 0.8234029864906593
Ni 4.560455017805815 0.8017452575821916 8.8808951296604 1.1276135985411613 -1.2098801579515615 0.36254354346344014
Ni 6.047942238678183 8.023142452982464 7.512811274156018 -0.0019267847090676494 -0.9254454429764062 -0.12581873296973814
Ni 7.442858113928789 2.051265374072312 5.385487206085175 0.14588516470231006 0.874968517272777 -0.003721671825961332
Ni 1.9156597140171252 0.8651375091290038 8.340526756778136 0.3023920707845244 0.4375397944646722 0.15736873986187738
Ni 8.603020372238957 3.980983518346504 10.374312384846196 1.835888241896393 0.1433415723448499 -1.7785320725744274
Ni 5.2858496980805905 7.895766793820211 9.706770639018913 0.04610065101280447 0.750573661233759 0.22912771487273442
Ni 3.9902018582916767 3.368074753755405 2.832070775286061 -0.1347630866472195 -0.9136697904977168 -0.09909880047639062
Ni 4.317489873599587 6.54340491869727 6.140794383432543 -0.9179743314103417 1.9403778743710518 -0.566382916083031
Ni 5.481651672186568 3.5886960459301984 8.62479061814755 -0.7162077821593794 -0.03965643804935751 1.8484953891374423
Ni 3.165483721673775 0.44157972804497575 6.190679642492556 -0.159481415329506 0.8625804280210693 1.9912636054773254
Ni 3.4949331513576074 4.3488580924911755 7.227681923354877 -0.3030543869588716 0.29220433161824516 0.5008174714773955
Ni 3.112113412852927 7.4001655615975395 10.69981030568379 0.3483777934860194 -0.6954234984241765 -1.6977755220506503
Ni 2.2796178792071347 8.17262180702327 4.713024085986562 1.0057121983479582 -0.137707256877208 -0.1804734442001408
Ni 5.599615018318629 0.38299154323712586 5.96923812127254 0.7170264214059329 1.0353025104105653 -0.34189964196084344
P 1.4202801653201889 3.9537995760031746 8.970349974382861 -1.1618210976608057 -0.017806432053801592 0.08915428766916904
P 8.689458473648699 0.1661444130879815 1.039249597604466 -0.661009796830997 0.6219089741747934 0.6341214570805853
P 0.1719709950893991 4.632927057094215 1.0504593945558298 -0.01401019823616297 -0.4260215094124276 0.26443436059382847
P 8.583124275804186 6.561527546926156 6.2821758230145 -0.07750821878980846 0.19337909651821533 0.43588066159469446
P 4.514335607639236 4.892998780036374 1.4455881108269804 -0.49056648317334867 0.6584101544246208 -0.47525145008283315
P 8.662708661543268 0.2901735746929834 8.63211818235447 1.9124767770854096 1.275693714012261 1.124312044971754
P 3.743560462283666 2.2762187318125218 7.7763920625743 -1.14528607612026 0.6632667111859738 -1.7746455930358276
P 1.2904382769341278 6.758973673848006 3.5667207427602987 0.8492312604076728 -1.8900642137181642 -1.3964288618115046
Ni 5.352077651394104 6.831722817543575 1.0184076514598897 -0.4407135642069636 0.8500650691628779 -0.2760135807909956
Ni 1.6095332386033931 2.167233568472753 4.1436438053550075 0.9362219647666198 -0.3611698030443651 -0.8080617281478987
Ni 5.983367674994114 4.7456623667443445 3.4739526530094467 -0.13846676075105185 0.2735134400769612 -0.7804588788289656
Ni 8.567689560324844 1.624090456793365 12.86064830443907 -0.9795309119668999 -0.058435775539389674 -0.0439946604133952
Ni 6.648556804404528 1.5201485936640808 1.6381932237555785 1.4250025596841394 -1.3520220535613554 1.440095706571836
Ni 5.202154930301826 4.801406536653278 12.592241280929253 1.520838116028226 -0.8576657643282712 0.050449672010119566
Ni 1.3080621172301088 4.266789003901138 2.92287788951551 0.4620303234068688 1.4048862485502385 -0.586923459238544
Ni 8.098976692411187 5.5736041512989845 11.827727771494358 -1.501367408898124 0.830544482631447 1.5200968669868271
Ni 0.1753784556162269 3.8442509670354945 12.553401403539016 0.763142241927389 -0.4674062430068015 0.7719086752661093
Ni 7.017770716517186 2.592736622495111 10.329348500057513 -0.5335113621659909 -1.9706166186509355 -0.8997341542532311
Ni 0.9670297233265904 9.372502363694403 2.9961239737812697 2.0360059426900228 -0.047147861330396224 -0.661501648865751
Ni 3.4254630764802108 5.730629982028375 3.676873439335609 0.267262574071243 1.1828342095773627 -1.2205870028461043
Ni 5.336448962829744 2.7801977539452856 6.325585152078961 -0.0915091610545908 0.29028140356391946 -0.6254604389714776
Ni 7.960082726724256 7.835588953396567 13.208397709172377 0.10456522290760055 -0.2256014468870308 0.3828614290851858
Ni 3.859297736344799 0.9403538057297388 3.9381958268354595 -0.5026018170713279 2.0729835483556363 0.006606449572924106
Ni 2.8099957145295806 0.4701907580852278 10.71551935452623 -0.23835488989795728 -0.3050562478802488 0.6826762260608372
Ni 7.212963060927389 0.06657525750383247 10.581112632872731 0.24714472027544532 0.37511032438485725 -0.06186177050180314
Ni 2.211958219789912 6.205891750764805 8.359723626425483 0.09096074475028851 0.4376984315297236 -1.3877650154889196
Ni 8.233178356803382 7.55731147090337 8.511987879758344 -0.6252313536798071 -0.240097840730993 -1.202817080457193
Ni 8.796587037460434 7.990887499987933 4.112671845765671 -0.7371720431158724 -1.2584230998572716 1.7660833052881133
Ni 1.0975828463577197 5.750396763073133 10.66793221468301 -0.1422172289324196 0.20562320399289102 -0.0032136218412912396
Ni 3.0410453692275197 2.620825772568527 9.83475592787694 -0.8660053945422181 -1.1875840655575227 0.11828154405242855
Ni 3.627287453035339 6.2682864264458065 12.51589994043541 0.9872483352158158 -2.003604643541182 0.7546002658946488
Ni 4.027075218072366 1.618853183497861 0.639646568838885 -0.1864725992063692 1.0705122255424788 -0.9178714872838902
P 3.1666198497431703 3.3804428471287378 12.079465117550216 0.2788592777699068 1.5574603952369501 0.2559391786386237
P 0.9628639204054754 0.5541081330710856 5.315837013343119 -1.2732714777240135 -0.6911248710488227 1.415785926181878
P 2.1926255689830527 7.643453994278799 12.620766408603282 -2.313035109229726 2.366310166503783 0.8359939357817925
P 3.1438049202195466 8.27698856357688 8.587599511979974 0.4574033661578187 -0.8078827793678732 -0.5548795434291218
P 7.245883064499127 3.605691782903262 7.5340365480638445 2.0540455738005527 -1.7501164975462116 -0.16596496617132062
P 8.46793197374382 7.443597059014574 10.72607703243939 0.195995708205456 -0.351192380116679 0.8327049806178756
P 4.791264515350874 4.7229213317292995 5.267493378468326 -0.7154505922783807 -0.75899736652108 -0.8056469480588189
P 7.042876375806744 3.4269779139060708 12.315602409163786 0.7320614613621844 -0.3790024603504118 -0.2318003766088911
Ni 6.909967865314673 1.2087201872598388 8.040526136125564 -1.5472258619931352 1.2368137491176119 -0.12754908539728355
Ni 4.977607992358799 2.55502271267934 11.422820040694194 -0.23889327889993048 0.06697800868244594 -0.3580649388667962
Ni 2.338955169595699 3.5501877701472084 0.7817244641641944 0.21875331361694586 0.4493779247501809 -0.5429092584411229
Ni 0.39828585915016845 2.1168190399950464 1.6541996979950466 0.40717686590209873 0.12979545822929903 -0.44467409151660836
Ni 7.265917713137483 5.521074392513217 1.0809972239072672 1.1150236776912925 -0.28975715562933324 -0.8212540584684567
Ni 0.508959512010957 1.490258264944063 10.465903704547934 -1.1000706559258862 1.1714102840111376 -2.5006603339833
Ni 0.05682672445960905 7.342583265787715 1.8341513000109277 0.31602457396629446 -0.21279915291603996 -1.0318970842734423
Ni 6.08305136706656 1.1705444367654523 12.98813203432012 0.4209294396015008 -0.9965179334431999 -1.4901890236838014
Ni 5.963600893949356 -0.0024939396645256074 3.3257036425364723 0.8100551044288435 -0.7196872560675476 0.13386397187171786
Ni 0.39659367490371994 8.982755015010484 11.820968271322135 0.7343775110898707 -1.4729937428514375 1.0161277372543276
Ni 1.1760218672138363 8.08874230297306 9.549301441238052 -1.4396349648853335 0.2630781036762501 0.2626605565228573
Ni 1.9840398448929883 6.0385022152072745 5.664046411392327 -1.149100050549711 0.19458057302548423 0.9634157515725925
Ni 3.238787074183683 4.789407915822838 9.86898571161323 1.0443785045699046 1.665921610764847 1.4652341535106765
Ni 7.899018152197668 8.911843997215804 6.286136568674309 1.2676528459856555 0.20068180082721568 -0.1683020989449295
Ni 6.136181518734527 3.3998309188170315 0.7418491399725016 -0.7407088526245372 1.0542816226162293 -0.03196292605984173
Ni 0.9572109904992174 7.955408899056663 7.028127955575824 0.40897843788721183 0.5420245418433246 -0.7275545746307663
Ni 4.1195357219312605 8.686003905372653 13.046223278557779 -0.5647525795684596 -0.4846683725213588 -1.7598393812609303
Ni -0.057707916474408094 1.852230515216024 7.33246803124467 0.08610213110640655 1.1264054371656729 -1.1159708720959103
Ni 0.6746956579390422 6.204025914423196 13.088849325831308 0.1392622600691537 0.22449073032135533 0.6991310291827508
Ni 7.976062414204364 3.678736504633145 2.589147196740908 0.35126257123298216 -0.6468198784838601 0.5484533281878039
Ni 1.6852104522013869 1.98332861024792 12.311992662419724 0.2364191063278251 -0.9206896734589757 1.3101284986513628
Ni 6.482238739221387 7.2670076571390165 4.8762256502704036 0.5491305567604865 -0.5592915564538884 0.1984912209338001
Ni 2.7967963079347395 4.002856292885751 5.01130758299604 -0.7329914293756215 -1.8050272906514786 0.25930423845611467
Ni 8.242248907731396 5.522145862887606 4.275198198977376 1.0645241262798442 -0.27661470471010424 1.197432933327144
P 4.943893622819841 0.35634333608099106 11.11549277951606 1.02425910811221 -0.12387960696549632 0.7036962799559301
P 5.165863489776193 5.654223060158168 10.46367301407022 -0.9030711890462642 0.1616282864691797 0.9239359483104151
P 9.356060835535677 3.5710444951935005 4.527746537264883 -1.6812420431720012 -0.44722899672797817 0.2706626008917274
P 2.6561288740419227 1.532156451308093 2.194121932781768 -1.1834523027773363 0.322175938279671 0.3805872883390284
P 5.950290645591647 2.3335331600287494 3.688473029819724 0.09707431384719412 -0.5603063708716479 0.09813515101154067
P 4.56338308770824 8.292746567531253 4.7010873518070575 -1.0096143616158417 -1.2032855354531793 0.6785305793235799
P 7.379936939874165 6.781068131912988 2.764718701760797 -1.7403115956406479 0.7628735616470346 0.41634104889987006
P 5.1609125577014305 9.083704150542337 1.2467499960997825 1.92411821797908 0.48459021098525573 0.836464704770624
