# total energy = -340865.4550186992 ev
CRYSTAL
PRIMVEC
9.27284448987262 0.00000000000000 0.00000000000000

0.00000000000000 9.27284448987262 0.00000000000000

0.00000000000000 0.00000000000000 13.57174522441705

PRIMCOORD
 96 1
Ni 8.057851234385902 5.595688553659249 1.1548483609922646 -1.1694475038578118 -1.1059931920579082 -1.1491442735240855
Ni 5.176175809655865 0.3328283419456834 2.3500697583037162 0.38691194500547554 -0.7367521819696343 -0.3399504886542726
Ni 8.922887050345842 7.910375920386879 7.963926595584588 1.009768370695203 0.07978441641849485 0.5004307775619381
Ni 2.987404394185323 4.952273713842207 8.738330559715111 -0.5214449179197601 -0.4044921199810841 -1.2784591925725401
Ni 0.016888631123391687 4.208795612370017 12.683745869416626 -0.27332626376681957 0.7682466530334898 0.7444791183002468
Ni 5.869710372320286 7.64434729341769 0.32599240120875683 -1.489982049879318 -0.47365068125461657 0.8750875593491445
Ni 4.666419745994627 5.8937548573051615 7.3120085576452425 1.4756928869501553 -0.09076611224097916 -0.10154880467877996
Ni 0.7019431777759856 6.734356728824244 5.844237869330137 1.4880763482161727 0.5250087240116185 -0.5831141127947829
Ni 5.871972946302666 1.880588438813251 6.569701616394259 -0.9818292210827735 -0.025861698258110296 1.495847250410843
Ni 8.152350789527 5.966194316118063 6.8986947099829266 -1.064307639393664 0.4640404118583621 1.2253980510815023
Ni 2.3262227849000885 8.037914619377231 8.45865786980464 -0.28551509252352764 0.11723947594115937 -0.5327971097077856
Ni 4.726767415983664 7.07583848896811 9.502718924835929 -1.832641709934637 1.1242863339401412 -0.9872519347602418
Ni 5.749691949968088 2.4703598749906837 0.7624197402992646 -1.417501623321404 -0.7806239436519201 1.02173942701415
Ni 1.269406005400925 6.935160169760414 13.409385800520358 0.8378230185707313 -0.4551235689847065 0.06930048616803548
Ni 1.028478967654281 0.3856158620665486 0.8958346406528707 -1.536554241211902 -1.3325053236846665 -1.6959816633750213
Ni 1.780432448716203 8.897089997809042 5.0482958699993175 -0.5775386755895343 -0.7772200601766937 -0.7382603910840447
Ni 7.9085584429256235 5.180135314125028 10.55323944313003 -0.24653793992938183 -1.2516729256176315 4.034204327613968
Ni 3.0443860217333616 8.487313740205241 2.9175047673960854 -0.6145815872754449 -0.6314002014946802 -1.0953313414686876
Ni 4.052538914922988 7.927502863605955 12.18298910104186 0.18843563647001094 0.24256687109677574 -0.04735586357614425
Ni 9.228056352641357 7.303199355664667 11.321834897659887 -2.4239126475086 -3.627478947426991 -0.16370805181634385
Ni 8.544731191430214 2.1560197297911805 10.937876092850106 1.6439520484722916 0.4851931346765773 -1.4660527927572302
Ni 0.8815655880131765 9.092441006361446 11.310271660954859 1.6005700819422306 2.9684733255102165 -0.4485597997242597
Ni 7.135351602980039 2.5102794692289754 4.860272262925914 -0.11688080705016 1.778393490114034 -0.5247631836597156
Ni 0.67269199077838 4.101008071504533 10.025977176922341 1.3133719452893253 -0.5063715685264053 -0.2015171522443175
P 3.2212006147497965 7.564155736861883 0.5879279947524448 -0.08204287343536838 -0.792910474328757 1.552403549539333
P 2.7036553619688926 6.464730238309304 6.806026541569368 -1.3142584616593365 0.1097123143261788 0.7827420184361874
P 0.2268833152207687 0.2626217840137539 6.474685563831773 0.06530782006887463 -0.1562225420725761 0.3189772288367152
P 6.298356867850899 2.0389222533588574 2.913147457911167 0.8524016877158546 0.9643246365401069 -0.09211979805539619
P 7.61873569776469 6.423651538547252 4.880249678449021 2.889095657611837 -1.7320593829341848 -1.7823797284552918
P 0.14161673103973124 6.195085202105984 9.431738084414128 1.1460764332320392 0.6720665688657909 -1.12149308746572
P 3.1557436076120253 8.969575820842893 10.43565421509331 -2.277378793478697 -2.005156561409334 -1.341885736458302
P 3.7896630549784263 4.995781898782059 10.589109586310514 0.5795788459480148 0.32170054130514913 1.937816798512095
Ni 3.623067136259459 2.5766637607857548 9.807363384150285 -0.6572469873544552 0.6852038775786974 0.4367838901352542
Ni 6.000457475400406 4.504858981670874 2.740162549545235 0.7949524444594502 -0.9374694640204758 2.492761133740881
Ni 3.223843375343969 3.9911712320730426 6.150931627210501 1.8677426674028286 2.349827852578043 1.7892443167856087
Ni 6.117184038065127 7.567892693070485 5.3713710344258745 -1.5576655692692205 2.04333872890601 0.46173773186711453
Ni 5.652197266153593 4.805892595457612 9.32961068764227 -0.7753390411038971 -1.4521554659498475 -0.4442693998790219
Ni 5.66576343720368 5.261838344283818 5.266624059170319 -0.07094239264683266 -1.4576681682379604 -1.6056048161526606
Ni 2.662437569543989 5.237654766636091 1.6287454088860456 -0.8326137064556499 -0.37578781006785605 -0.9629796924764382
Ni 7.0896735724997075 3.4792916870922777 12.80711271580586 -0.5425498182191753 2.3881784273317836 -1.0926687070348602
Ni 4.648838433410237 2.8555167312698235 12.028908740126244 0.1658055577753209 0.7278121991675272 0.39982839595682756
Ni 2.4066925267815984 2.0595728773701647 4.267024437461621 -0.6805954322724085 -1.973443546576769 -0.676243583061616
Ni 1.2313038886238885 2.346641587806644 2.3536666945650477 -0.7641092338263485 1.0289326023284795 -2.0083372731301607
Ni 1.0160440835953846 1.9357525889000338 12.493523670985756 -1.3708492135701875 2.283611147541654 2.280925887400007
Ni 4.109205265768564 0.5714816782969199 8.591851149182101 -0.5055033069888392 0.3821494906198257 -2.2653809976868726
Ni 8.902607340102138 4.41698951012568 4.979812206517904 -0.24543262268034508 0.31260526387210036 1.1329321825405974
Ni 3.8863231828158145 5.566840735383912 13.310706047218371 1.882679234108003 0.7935406517135882 -0.8835686002369623
Ni 3.1318474881341904 0.9627623208791881 6.261704096620771 1.40357781415146 1.551911697504579 1.0090600317742686
Ni 2.895473416884876 1.0002802484722495 12.07711547521721 2.5957932078334065 -0.2681794294585575 0.13346236555792498
Ni 0.8875484270846157 5.0017257919079 7.599986934096769 0.35605973551130937 -0.38015071502224207 -0.3284612570677505
Ni 4.798149770558896 6.724870609217793 2.3473963973237164 -1.618925958741599 -0.09859512136709472 -0.4894010021103377
Ni 6.879578741685077 8.309952049381591 12.062647983711846 0.27321184967614237 0.22880941230136725 -1.988205278266976
Ni 6.739605158635829 1.410872516364777 11.873892749231848 -2.7519476156722087 -0.9365598077220129 0.44203305434933543
Ni 5.119249819172968 0.17781142376686834 10.511303005280396 2.598455070936286 0.3989382800423904 1.9043657179425009
Ni 6.587205964371873 1.7255093925783624 9.038918149696308 -0.211737544420745 -0.2081418566496867 -0.5567855022025829
Ni 4.305576287181876 8.246748343382011 6.73968768694912 0.1246751062835982 0.27826252472617236 1.4425824775494316
P 7.668790510702739 6.22728051713394 12.517817595479345 -0.022967664539766893 -0.14171457826438819 0.11196382936451686
P -0.01745520190340554 6.864148728952785 2.28772100853846 1.0518802122635884 1.3285519954638734 0.373030559037693
P 1.5040367819425053 3.154825596037208 5.746168269175858 -4.400578043456776 -0.46243604348571965 0.25166883339804397
P 3.134861162495967 3.5153445053033066 13.609202610834705 0.15615697894196331 -0.7482853794202146 0.60384697446676
P 8.431695220753145 0.7858132716219971 12.985907061056878 0.5531139668882669 -0.9580673427764854 0.7257272916140405
P 4.2154164231217335 8.92607690874723 4.601282651981415 0.7897516169848012 0.9165489118177247 0.7435851457310677
P 1.0818627316565683 0.3584241737635597 2.973624020434446 0.9940324480171849 -1.8214916068550886 0.18373488856023198
P 5.987568221976196 4.882069010479116 0.809609244382579 -1.1957375479025922 0.31188278388377905 -3.172742072357742
Ni 2.2503152823600985 6.826278433280501 10.523110117787624 -0.027170132656888692 -0.3233442475561592 0.2490823036177904
Ni 3.1244013942495568 1.0148849780716247 1.3426401469609155 0.4212310300023197 1.1736368593488111 -0.6369134180034257
Ni 0.23526040266208648 1.0631501320809882 8.80920198057547 -1.4032975639068799 -1.9769487315165504 0.6555881115947936
Ni 6.852214578480154 0.21223500325370023 4.184168792770004 -0.9701533274067422 0.5722663714470014 -0.10558029443567624
Ni 3.8101189492617413 3.209535376758676 2.4302650239971992 -0.04679947685204198 -1.0749414649584264 -0.6972361261528831
Ni 4.437677225513748 2.718176635970557 4.753096729776976 2.6305452666026117 -0.03761215392581909 -0.6812240669953429
Ni 1.716681644909407 4.237726886243065 3.634581226890281 -0.6865969012714821 -3.866812399188134 0.8419444969382726
Ni 1.6067520770360153 2.4662149136377183 7.960018091758469 3.365829348667152 2.049328627940858 -0.19189505577352112
Ni 8.238690241780832 3.542680849975661 2.8264649104223047 -0.15632487197839529 0.6987847015869255 2.0966245848133442
Ni 8.363122537967508 7.883095212779665 0.28107103481433593 1.1339937910358922 -0.5195477008970472 -0.4074524881609886
Ni 9.125118509287285 1.2979107284412295 4.294100215212234 -0.4675777355876593 1.2584686083832262 1.857641831523401
Ni 2.029992504403811 6.206917351292525 3.5477085860955215 -0.8288573247370112 5.622600750308142 0.800570561977176
Ni 7.037180001539668 6.694845139730315 9.360052507833881 0.18137692985101667 2.414853622630125 -2.0543528206283264
Ni 6.951582376821045 7.421622848816171 2.4316225683866266 1.0729486028981134 -0.35339427286400427 1.4824744286483629
Ni 5.487817557196054 6.138196302999847 11.401934653058213 1.3887538617647504 -0.7636099255924268 1.5299992137022038
Ni 7.658646019158793 9.012546180819722 9.719500403596026 0.907053827843096 0.23967849380538722 1.4384771971318067
Ni 8.777080848301035 8.188245969386799 4.153239220973994 0.4480581774974929 -1.095006354029101 -0.5676083038497
Ni 7.831000374119799 0.16202718838651511 1.7633769063973899 -0.19003383419506628 1.346460757423494 1.2970572672897016
Ni 8.132562540025372 2.341161336890307 1.0646115323253447 1.1072363204363898 -0.8656189577370769 -1.972226386340216
Ni 2.148258359204084 4.664268446142529 11.97682039245731 0.4272492111719416 -0.4346609302549805 -0.03449623400465672
Ni 7.295845990221934 9.246620586709897 6.71293738602958 0.09970300971929281 0.44087682925770527 0.17936684139952336
Ni 3.842861362096912 6.806768369104574 4.987616232188275 -0.6865267101551789 -1.1059592534961793 -1.3218283035867944
Ni 8.884849843478136 2.387386465177853 6.892899182364127 -1.2038522065899266 0.13073828175854257 -1.6820203160989224
Ni 7.887842909004986 3.964715807598746 8.604852604021012 0.4568035277902907 -0.6023421077864595 -1.312911974933771
P 4.1742635406061614 2.7010589655956703 7.7410927314216265 -0.38229372950717383 -0.21190518034686087 -0.5527537553353706
P 4.048004494114039 5.0287004956568415 3.5349649163250954 -1.0626119968587957 0.23757790252261662 1.0892416836311822
P 6.807018735897706 3.3024678212316525 10.421105122559073 -1.0254207325204792 -0.36184728872736394 1.3199208021514366
P 6.775129424728023 4.46121170406817 6.843104009063401 -0.9907100685121714 -2.648159380139949 0.5794772873731439
P 6.047860254900093 8.58882356555404 8.481119480286267 -0.881638730204101 -0.14059820527175784 -0.8632196042669649
P 4.674097660984014 0.5261309792164984 13.40250535013132 1.2149130923897786 0.24132091450481663 -0.10604874943166252
P 0.45718552809441976 4.289478629667898 1.4673089006744384 1.3815997672184723 -0.3120339647496626 -0.6669577868843158
P 1.4873549352445523 1.9099555363632326 10.39934917552031 0.11804320278937733 0.7430143608292623 -0.8741192818986042
