# total energy = -340869.079859117 ev
CRYSTAL
PRIMVEC
9.29183063253786 0.00000000000000 0.00000000000000
0.00000000000000 9.29183063253786 0.00000000000000
0.00000000000000 0.00000000000000 13.59953336335309
PRIMCOORD
 96 1
Ni 8.41514632777029 5.457389414212974 11.430883334708772 0.36807630035621125 -0.515326463726848 0.38500444357011754
Ni 0.6085721578930561 8.076124598719304 13.137516637381404 0.05025503950081022 0.8944243120045434 -1.3289703139482145
Ni 4.774644289858196 0.40999087234281534 3.2595908784245657 1.5618901488735293 -0.13159497333188303 -1.8556137453497785
Ni 8.016025038792158 7.144237622118618 3.19545494731122 -0.20938627057974907 -0.08226475963818736 0.6905121771654882
Ni 7.354651124677398 1.4374833517267984 6.001106453308955 0.9268595497151134 1.0407427075895304 3.4829472114287827
Ni 4.358602577468294 7.43255383191753 6.7697118085775845 0.4051562359276441 -0.4090452865694052 0.21615649942404708
Ni 5.111138641002538 5.221534879638035 5.446844115734107 0.19385063683799517 0.7142725128098796 -0.44121030133772404
Ni 8.662494856722143 7.543981463742872 7.4464516228549185 -0.08521587184671131 -0.7028858682394927 0.761834578859559
Ni 2.95070441417811 1.1347276372700663 8.391809895371244 -0.38115858746146614 1.4421201932010324 -1.4612013782021995
Ni 4.868436027320254 6.8481906093111435 9.698004327495292 -2.493941270091911 1.4358731838500562 1.5326538777162313
Ni 2.6388891649457187 2.094174183249834 6.228830636162149 -1.045406945834419 -1.1161205102998972 1.1698174856027208
Ni 9.035599020190688 1.555526766896007 0.49407636362369034 -0.47886590690696884 1.1140757119557263 1.019754021153005
Ni 0.8548883644720102 6.982448268771148 10.335821592827234 0.5956744659582967 0.9112735223513982 1.2180711784027862
Ni 2.636110907614517 8.27815687013178 8.78546201289404 -0.44195643547512914 -2.437163598981235 0.17581177705841333
Ni 4.611479745590933 5.283353428214921 8.082433751655378 -0.6473055598710271 -1.0329247542070084 -0.5806419971052065
Ni 1.7937414264278868 6.176800101875192 7.351241022869534 0.0026263818792535416 0.26577467667180676 -0.03602295506182828
Ni 4.922681734007742 7.890975583396441 12.663640713349798 -0.044778846877587396 -0.10939195487228258 0.7353391036721916
Ni 6.851052493117198 5.3806203102986165 7.719897187058994 1.3900088172177738 0.5045697394309762 -0.1932909076797832
Ni 7.747872101263177 0.5859168166725299 8.062741575193783 -0.9492227479016622 -0.22298354964820952 1.6449563213670897
Ni 6.3323918042530565 3.0029988364523788 1.3393839216267955 -0.7391602771904948 -0.30548459366691905 -1.064258017102651
Ni 0.42226073456974705 1.3529462774817214 4.866552573269971 -0.7231106799267997 -0.3290410408306204 0.7788257141009167
Ni 5.025718842856242 2.3007408679654104 6.912779052571746 0.4342115014223877 0.3135858826178148 1.3751470696145929
Ni 0.9868946133923815 8.373816265532204 3.889181156997152 0.4882689453884236 0.3112217532610124 -1.3439125370803435
Ni 6.2596925221148405 5.917539446172165 1.846082307854851 -0.3098217875896922 0.5615168462399813 -0.11507717818251795
P 2.5881464783714865 6.428841005249308 2.8603627333952337 -1.3321921633196216 0.593595471942081 -1.0549804484554668
P 5.204484370598718 7.026528712848819 4.206158947277088 2.1952112215400064 -0.35115201379704686 -0.6556215359358902
P 3.8020962628182433 2.361258560266816 2.5433301213151163 -0.02400613310661027 0.22133881495593494 -0.9099576317534522
P 8.234578184903222 3.758006526910034 0.7925002266830764 0.810603777843462 0.625720891721716 -0.09792637743484425
P 9.025591718700037 7.680339076904722 5.332920698225951 -1.126189464500125 0.011604674118463885 0.14719617020424972
P 5.423920240610999 9.036026444395489 10.68179454030455 0.7036309739356335 -1.4530424965404911 -0.6152171639769146
P 5.0000455150766046 2.4377396174344605 13.148667763211423 -0.19608029749946232 2.572449905121776 -0.04150069034694788
P 5.14851038343095 3.081589139152408 9.162019020590929 -0.8565571046451249 0.003231362453104112 -0.6617849844341248
Ni 5.131887298596433 3.748027100910999 11.240571778338365 -2.0788065827953166 -2.2361781508706713 1.678657827384593
Ni 7.152321514687667 3.0616209953238003 8.26929153461439 0.5548690019061605 -0.32914439917770405 -0.7650543713484372
Ni 7.399893047572459 7.20221864468284 13.645635744498895 0.22620154236487494 1.528909837292767 -0.251264913091406
Ni 9.128266446157511 8.576982140270456 1.5839644142610387 -0.5817956510936754 0.4345372601929226 1.053244696711283
Ni 6.826531352324413 3.82357897502473 5.837871291129595 0.9041060580686816 -0.31675142482998997 0.16983010555368172
Ni 3.6186755279756597 5.649460843287494 11.833198225843207 -0.15826014132789518 0.4974552398733819 0.1576047671320834
Ni 3.589406261777375 3.899121557307921 0.6947250814688893 1.3155149597742568 0.8055153075769611 0.6263251009646181
Ni 2.7530857622717244 0.9945975409093268 4.1011705540153685 -1.6271447471069653 -1.0970406108503106 -0.9038677168056305
Ni 4.179307415385088 1.0678729165409688 11.697012511546331 -0.527721237846775 -0.11964808538265201 0.686418980932721
Ni 4.687840008961568 0.7476346229248487 0.8223409404595178 -1.192216165012895 -0.10608628753781728 0.9518087634612834
Ni 2.761810791147975 5.469561712219245 5.060766698466817 -0.7005939868815224 -0.11400194284046818 -0.1505028659799795
Ni 4.006860332409226 4.811941697642295 2.9086542350732416 0.36922558346930606 -0.4537261744165476 0.19294020920858385
Ni 6.317292579626957 4.139789260102134 3.3045373211084836 0.45715628314401907 -0.4675653942924851 1.8896075857967196
Ni 4.371165132357208 7.761187294425761 1.648141229428757 1.0586026185890867 -0.6851401142202974 1.1949147948909808
Ni 7.10789727288005 9.211428329482796 4.466875632825598 -0.38517490770971086 -2.4165058135215673 -0.5442107508613659
Ni 3.0537601066876894 8.040118755380144 11.16642668736826 -0.5361799101370895 0.6268002408288238 0.4594160257124733
Ni 8.854306114541568 2.9210077237750256 3.000261463175549 -1.1402549414542555 0.6529095363213658 -0.41510331983802706
Ni 1.3435708204677312 4.639448155513739 2.2978724798779786 0.6762785500646096 0.5475102475482442 0.45020684840937947
Ni 6.329362667497297 5.213766909307316 12.905087071543191 -0.5886550972176701 1.0738744571464924 -0.20917364034831074
Ni 7.068648580682731 3.1458978983137813 12.410852746800336 1.788647306631558 -0.7681024141461417 0.8511536742413665
Ni 1.8579665591144083 3.2169618182771087 4.207464449467837 -0.9243910335699629 0.6204868970162862 -1.004398621742857
Ni 6.187439247842504 5.005527695094695 10.01528131471859 2.721790118252222 1.7498179924691863 -1.042667949636701
Ni 6.374409461951039 0.7859132480138815 12.843426484085471 0.7907062675885865 -1.122278302371177 -0.762992346613086
Ni 2.56428505754698 7.02876804400875 0.2248911037218099 1.056366530169716 -0.0695856215086221 0.46304719470715733
P 2.7869359009258035 8.888202712348344 6.739996534513422 -0.43327767675420864 0.6481475961563483 -1.5275096145111304
P 8.615654738974348 3.2353131835919062 10.834340380631685 0.00021134467985770052 0.42228646785002755 0.25228358416390745
P 8.357825025174348 9.448490802027823 12.628934797103065 0.31553734991723076 -0.4858490230930213 -0.8848137854979728
P 6.165306107498277 8.788213323916679 6.833575489056134 0.7641218322318389 0.5546864535817091 -0.49351888093345325
P 0.8916700756611879 1.2340573057334512 2.753034657203759 -0.7931940670074469 -2.1169432417660383 0.07617073092530752
P 9.371833200079934 2.270607461526986 6.927805800919639 -1.0728917815182488 -0.18288642451700762 -0.22990547357902338
P 1.0387337359702322 6.048126832569209 12.772586497238139 -0.4689712735010762 -1.1395265479286634 -1.1588972391457912
P 2.5892893735278 6.133964763089765 9.377436173895033 1.7220228246337892 -1.044969086966052 0.5006899447605958
Ni 6.627639719634165 1.8496224952902627 10.323990305001749 -0.028880687590092196 -0.869144197281516 0.24501867507137806
Ni 6.809731722709651 6.981444751072922 5.833274622561884 -0.07143064513716085 0.38111976380373075 -0.7913963516770758
Ni 5.125475935524427 0.2777430358284266 8.570167511753052 0.14890055448986614 0.26814112002145435 0.45045058898906937
Ni 0.5574317809717486 0.1310231732493304 7.216333864454843 2.5054145608388336 1.149447406586801 -0.5218439531303916
Ni 1.440754076076575 4.263500691900216 10.647754848307471 -0.6777348228951618 0.5791630985668348 0.5534384401072211
Ni 4.585648456692129 0.46340681856315774 5.4666450066130094 0.4217761038725123 -0.7133217188608361 2.3938163423438517
Ni 0.19193390998254145 2.3465495925233606 9.087874858803879 0.8480310694519846 -2.3387165731562307 0.5378287585944221
Ni 8.738121065480186 5.589751540242995 6.108651958335045 0.6093977290816601 -0.6722007804508101 -0.3353836952191966
Ni 2.5844854971390663 4.021829471407778 8.566509318069794 0.3045921637596367 -0.44582954527729024 -0.833321788266268
Ni 6.760949612379178 7.609061444838995 8.7858559865089 0.18592366868143465 1.0751823773246387 -0.5286733173473992
Ni 8.332625580752207 9.17441896844541 10.400814230716287 1.0408231831184787 0.23012710267152625 0.11432255940468053
Ni 2.3595674471086925 9.016652977721387 1.782164734759175 -0.29149213604256896 0.6150395007484698 -0.6822399098543669
Ni 1.2091087407358656 3.9853311610500435 6.332336982452876 -0.10883299704501902 0.6121259266461007 0.3337399889681865
Ni 1.8836305950635075 2.414575083900389 1.3417254629226585 0.7044856086264448 -0.5302162363544868 -0.41526864177129774
Ni 4.111774391026633 2.838133887196454 4.636420877124087 2.7105675100635254 0.8967830420447072 -0.6671395638778188
Ni 2.790160166122885 2.201652787096043 10.283396155742363 -0.9466143637445374 0.2489383218407584 -0.4334617677405567
Ni 0.9607938614079429 1.6495415082910048 12.044141362742717 0.0014182205037652994 -0.0038227161801998675 -1.1113757965260602
Ni 6.812602898346245 7.487078293521191 11.229175348182112 0.4968836836406281 -0.6642347315261979 0.08348294831600461
Ni 2.988596499116715 3.4126384776008147 12.12734320093932 0.3995286053282216 -0.9497979036788416 1.1340449559888017
Ni 7.364249585624327 0.9413181845979097 2.342941574725013 0.5826615986383966 1.774836111780079 0.6882488350526083
Ni 0.9882512206510956 3.9583105178422304 13.227817434109907 -1.410767904141996 0.20404120421775185 0.5383319234830858
Ni 3.272554840392771 7.697789134657223 4.400931511489337 -0.6589138335339169 1.884611161023393 0.835866923285625
Ni 0.20536060511159582 4.548527593688273 8.61716744898612 -1.1798514727999552 1.687140153823991 -0.9832479558071712
Ni 9.000782531160539 5.943881785750619 1.2888874685618503 -0.11546130099481405 -0.651718344226742 -1.1889032985895784
P 6.554317884849828 8.602692635372252 1.518890937446294 -1.1635108266584027 -1.8036018710588615 -0.5464010736444654
P 8.40857700357912 6.342928740084439 9.367657451435646 -1.8226126078334095 -0.6623375145034851 -0.5189499194120483
P 3.7085739884418194 4.0289470136007575 6.503133836324986 -1.6076899808164633 0.07490806216280002 0.5583487329246448
P 4.598945066193636 5.992264347367912 13.952032927343913 -0.40645027214871937 -0.5552772930881728 -0.5270656065406472
P 2.498062181294544 0.36253656459638395 13.011026948252118 0.011872583067869875 -1.094559753409986 0.9312962453302284
P 6.824849530996829 2.189331819801146 4.264051697451188 -0.5247508423645414 0.9954671235811823 -3.1559031464235323
P 1.2520462896572222 0.29109167958095217 9.814049069915534 -0.13455302751894246 0.6423651851466163 0.46714090516055673
P 0.046159026569275625 4.787429848680049 4.229931166528419 0.6234729762278036 -0.5946357402811372 -0.8120808766096209
