# total energy = -340870.4522817251 ev
CRYSTAL
PRIMVEC
9.24088743420041 0.00000000000000 0.00000000000000
0.00000000000000 9.24088743420041 0.00000000000000
0.00000000000000 0.00000000000000 13.52497284316882
PRIMCOORD
 96 1
Ni 9.122409763951845 2.789990175148391 2.4462079180689087 -0.67179300348943 -0.9977903723977204 -0.7783791134818014
Ni 2.6260568366023866 2.6534745488608977 9.786724205969787 0.46746306438666585 -2.0936631881921746 -0.5475081906657151
Ni 4.395529636196778 4.365894111015434 3.4389139195705947 0.5184015031077459 -0.2653247336185818 0.4026717789428936
Ni 2.6484752288973477 6.415467441876337 9.436048247055169 -0.5145283933055848 -0.10421478154671729 1.381525462337111
Ni 6.4243664162292005 2.7182901315306656 2.40587606597849 2.623771695324204 2.643041856407726 -1.7772858588721523
Ni 1.0324566017885792 7.685571939233551 7.405328174215772 -0.2983559530419378 -0.262169990039684 0.9060140737246719
Ni 5.726051053926809 7.812994532537433 6.172892305264143 -0.4502243319108762 -0.38136864658974323 0.457669989555644
Ni -0.033401186706568865 0.37981617254319583 1.1887440302831196 -0.814078880876256 -0.9585478819573299 -0.04919805899120559
Ni 1.520883693606451 8.322647942204243 10.751555071297625 -0.5852892660692307 -2.130318120411047 2.0768746558799265
Ni 9.229271383283637 0.5565934201785512 12.20718054373846 0.15659020982464 -0.5496224087952405 0.17153654672182717
Ni 2.105138785465025 0.7010173977133757 7.647533675340828 0.14046142258357747 0.09972203588268631 -0.4945486077495483
Ni 2.3336936480500485 6.577099799514903 1.3797365346651105 0.47473260146488566 -0.5542565651331423 -1.00278859694326
Ni 8.895601429043552 6.416807370517215 3.6943597638449566 0.6893919475181159 -0.2532040390956478 -0.26042318255190633
Ni 3.5613917141452776 8.921827066856041 3.9670370904410066 0.4568888884152454 0.09851413161751421 -0.5007380243897118
Ni 7.846474266785018 2.9575089779196397 7.539603809451205 -0.1431633948957728 -0.061387144858229756 -0.7352072060800178
Ni 1.895472296272788 4.711577218587527 8.05850365082879 -0.8557870592483198 0.09679869158830426 1.90112818484181
Ni 5.800116764662222 1.3301887457916064 3.9359830890777685 0.020269034661681222 -1.7694157120954561 1.910457946883168
Ni 0.9956686299311021 2.6039249118099583 8.090719231710361 -1.4202385626365928 0.16947529331742425 -1.3289340613936402
Ni 2.735478181682614 9.070374328249898 1.2697487232008433 0.49006794627037537 -0.1343131435939945 -1.6000329784918381
Ni 3.1696335431013494 4.334207108880471 0.8298501504006909 -1.1689116859589996 -0.1874881849550771 0.4506580770141852
Ni 1.1112628876465456 0.6979448027265354 5.474381036153567 2.7168821394276437 -0.7838115973512824 -2.0728017713621334
Ni 1.3772803068530741 4.290756457367319 10.70884369075875 -0.8047874282720011 1.7620672421501848 0.015490639436431388
Ni 9.319434719483938 6.941163031684966 12.266541230706778 -0.5319036513592388 1.4396012834339207 -1.9260881972212571
Ni 4.203208292238523 7.62735435000921 13.04237469919446 -0.44015974858602264 -0.6428935468462605 0.5490788775869446
P 1.5419713981477126 0.9876567807473713 2.4824820965992633 -0.277553928694922 2.540503948342799 1.691796935869712
P 1.682164897532235 2.9199909759750637 5.63147427001007 0.0926155067448921 -1.1132624720258117 -0.04860644815379371
P 7.624360302563386 8.41404031639928 12.318058252638014 -1.1207644368298117 -0.02745321111494627 -0.7753853209608
P 2.494355712534875 0.46811284953344773 9.741740491273728 1.7962747412698288 1.0545765281488289 -1.2377030937011007
P 1.0603455992931925 4.607284565891348 1.9846135903511517 -1.2739993570289738 1.8721037725850016 -1.5209921251075869
P 7.210691988019311 0.06249057545566504 5.684600130399077 -0.1597845483922216 0.24354337607743218 -1.2178984002703477
P 7.374653049226851 6.461588709784066 2.299555962635356 -1.7032393733786988 -0.4355165933870564 -0.8768994157469027
P 7.167084241424127 3.577738843563986 4.403961021658411 -0.3804052542352094 0.1165517058455154 -0.5172751028127865
Ni 5.014160828359249 0.05929507666935116 1.4871784817117106 0.4146361503936214 1.1169571472685793 1.2801190967734664
Ni 7.136857299463361 6.023524453088839 10.219049871727185 0.25278546350099046 1.3711626310455483 -0.24709458376380025
Ni 6.640880402820682 5.780073280372126 4.688716187796717 -0.5348349660734208 -0.5534219850469888 -1.0025795662562476
Ni 8.520698636213147 2.0583244510189114 5.13002214771415 -1.0263131624277615 0.4163407917895539 -0.30277876469998183
Ni 6.9828579146342085 5.339181312200289 7.024491807728074 -0.4553166588321191 -0.2991905331280912 0.09985727590896995
Ni 3.711981211605576 6.133795959789485 7.315873614062059 0.5985913824947755 -0.9906825577083453 0.11779380578273262
Ni 3.4422951601891953 2.046505356317652 4.484880698414092 0.4245017303337915 -0.3968382029802521 1.2726958077262016
Ni 8.314294180194908 7.182969326483911 5.914389575511144 -0.9558024580017087 0.3700897312418142 0.24773530267159272
Ni 9.288200520820721 7.091198075914556 1.0737994069363226 -1.0193426446471994 -0.45022998833783107 0.8754377435997117
Ni 4.563686060183341 8.648906704927198 10.519547813262728 -1.5500031676279564 -0.24885604653959725 0.4117575432942457
Ni 2.306793425473531 1.1076034963238726 11.918530343654432 0.8771953497207666 -0.34579923412556574 -0.27524250695292596
Ni -0.12447937073753931 0.2050525142240285 9.319084489859875 0.1510494825120689 -0.4389094211186893 -0.5708502078257653
Ni 7.767501644957839 4.520041350039441 1.0187006171347133 0.26816734527369945 1.3862274957984708 0.7698278814776807
Ni 1.3517754582405053 8.185411526716829 2.9570192108991815 -0.14516242760367257 -0.7729975374549138 1.396425262267079
Ni 3.224330354310695 3.4869933314714405 11.929607395115259 0.2190327925305776 1.3063266084067695 0.1762036131801933
Ni 6.8537534798638475 8.60385737993217 10.022383462617613 0.858410870024412 0.2661143193994127 2.1800054603338452
Ni 5.799913465144295 3.265748010644584 13.020220596272802 -0.23661682416092797 1.084528594426229 0.034582365960559795
Ni 0.9337546858353735 5.052214801760176 13.10047770141779 -0.08487725756036994 -1.807457754469842 1.6857710413906062
Ni 1.8572519869026485 5.136833605653397 5.899106072206678 0.00860522517050776 0.9023088569589428 -0.8488628213246606
Ni 3.313578842680329 3.036943644105742 7.265737180675286 0.6841540961579443 0.21642929346945952 -1.0137173280406218
Ni 3.530887545569158 8.22277243357937 8.255480553747555 0.9430253608416984 0.9506913620273884 0.9934698906454956
Ni 8.564019915305801 2.5681349557677557 9.719248171881338 -0.5228266287586351 -1.437010639888609 1.711573090055375
Ni 1.3153016765470962 2.091286695584503 0.36001295131974115 0.44299310426975963 1.1091929299421284 0.35488962646260813
Ni 5.415326222550857 4.975533919953256 1.3519214642579251 0.6631373846969612 1.0369444168893625 0.04144541162898024
P 4.88841083563467 4.760600125069294 6.264536955679154 0.8106328313091845 -0.7785632044681494 -1.0971313707919041
P 0.4569128942731458 6.862356745827 9.570310945048549 -0.8876036895382842 -0.28428919053622653 -0.6864534337150823
P 3.7286887356242437 4.374488136091409 9.495923651439327 0.025546223900220516 1.8485123584183067 0.21658175988692377
P 4.433528164274634 2.3287867369582824 2.321954024978524 -2.3186817659925425 -0.024555320741860936 0.5098253314029607
P -0.19392371379500076 4.75700541995687 6.964589604771098 0.4565798418152588 -0.05851882217149922 -0.1432652105809597
P 4.3638056705131 5.157791937774161 12.846370861695585 1.59157919129753 0.31578880380640456 -0.3383227232428625
P 6.338684910310454 1.8212402495681628 9.688478789843195 -0.40678194445652527 0.42098497542978464 -2.7379903821611684
P 8.030451089621117 5.165600487439965 11.991564771380727 0.958438610072975 -0.33363380240762536 1.4206406831710179
Ni 5.532251168019999 3.9091909848812394 8.466714297405261 0.32659335062107625 -0.6764011916854028 0.07646512223727477
Ni 6.672382587212075 0.14504034470962834 7.879229515477812 -0.19516369922246388 1.000974683662973 -0.15416077444754098
Ni 4.093546684091655 6.490586613750096 4.806544892031913 1.537743890644629 -1.5576539993049947 -1.0193231042631736
Ni 5.808969534579193 2.684320630262621 6.203755944351506 -0.24431085037107603 0.1891771426217258 -0.49515615942656016
Ni 2.975279203963832 7.892382994287642 6.027837175135029 -1.3460414104978882 1.7392430451668175 -0.04325881068863517
Ni 0.2664692985895557 4.1009393938344285 4.333806978465643 -0.2335163308587333 0.4449353155977951 0.521182922507625
Ni 2.0941051661739354 5.810605171609782 3.6300210109535986 -0.16687179425630616 -0.222078778445753 -0.2750509597674102
Ni 2.333416421434695 3.2739446775718846 2.8270572217986576 0.4434160507397912 -1.9673078659926764 0.7936231841250655
Ni 5.95479997514258 8.08552677720478 3.585862507482576 0.5997771752727606 -0.808570035242885 -0.6849038298397753
Ni 6.9721384855071875 1.3509992237175141 11.52807790996882 0.9002812850059527 -0.5223782283673069 1.2256014253415604
Ni 4.610537358178168 1.2693559854957586 8.25007093839328 -0.15478375274352052 1.0884101888688222 2.0915782806386884
Ni 8.783121350307251 0.6602235012640334 6.935186949946652 0.03328267331252977 -0.6860525987322378 2.4999702498948104
Ni 7.613631632549185 7.190528372195897 8.278865542841384 1.2462175589300148 0.46080519275051607 -0.61137285053016
Ni 8.541869508739014 3.189224223919699 12.917254934975452 -0.8893060169413717 -1.0344005674215864 -0.6768282519204925
Ni 8.863544791421448 4.74290382612253 9.158488959762733 -0.34930570461692745 1.4329866063308805 -0.688054459653615
Ni 6.783975540779243 3.902713122969134 10.858700385865797 -0.7758213800569542 -1.6849050938458852 -0.4036693669694726
Ni 6.999981278575908 1.4509209367782776 0.29763973513124264 0.38539550836094916 -1.1883512827408502 1.2029201816939605
Ni 4.841467128768058 6.292295656674551 10.67638322636695 -1.1392792078045475 -1.1574885317237227 -0.45696422173787105
Ni 2.693940393815405 6.130164291128348 11.922533495980144 -0.631039732831468 0.3929422103599555 -0.13495669071526437
Ni 8.52966229677626 8.998276926483499 3.763120281251212 0.00159305551873274 -0.0583172476836544 1.6910184058324749
Ni 3.764386282794662 2.130782247385271 0.2084319066651939 0.6894955629755157 -1.6379832324833663 1.1233975035772847
Ni 6.240278702746959 6.362166004630939 12.56177833517162 0.7114918647409488 -0.8654708621949868 0.015750320855721263
Ni 4.591944693175093 1.6396660573984654 11.25726724258282 0.32765727310921633 0.9682882491735454 -0.6262166004112119
Ni 6.728003487139268 7.939853431723427 0.7052885357672632 0.997054265562644 0.15105256783586243 1.1823199889451057
P 1.0666201616873716 7.307702821618858 5.148821808590023 0.8105027334892235 0.4333776926671826 -0.5761572218609755
P 4.833381352486899 0.34933510618502256 12.919865485603369 0.677335530574214 1.0132699560905583 -0.5906523301533569
P 3.996877763317712 7.198031972584812 2.5848655820043698 0.4429589085977146 0.2901497630820616 0.9168720994850984
P 1.8654209311684133 7.892484644046605 13.18682085485851 -0.3967291882062135 0.1429196543160829 -1.4112240178428084
P 4.262562510585816 0.3882438616499577 6.432125065104241 -0.4677302020051235 0.23632680372433498 -1.9672507875024958
P 7.336608316713103 0.5251642387958672 2.2817848125024462 -2.0119638141391545 0.5882321507476386 -0.7129795050300689
P 5.453019801351823 7.343806967825128 8.847076606380703 0.7106305451819181 -0.12445553407362438 -0.5246117456835159
P 0.6579872065668443 2.4362674957310317 11.468919598429709 0.6266943113785787 0.29059970613528663 -0.4664677903529321
