# total energy = -381167.5581458767 ev
CRYSTAL
PRIMVEC
9.22149894731045 0.00000000000000 0.00000000000000
0.00000000000000 9.22149894731045 0.00000000000000
0.00000000000000 0.00000000000000 13.49659583278558
PRIMCOORD
 96 1
Ni 4.136884175994436 0.6262863804847842 11.912971934186986 1.9824195248231342 -0.6602366661103984 0.7745327431525177
Ni 8.719775355923549 2.8834796358462107 2.3515660725939345 0.9246262895092204 0.2787638898426231 -0.3934960259808965
Ni 0.8336548314830274 2.1933887840194837 4.48644352549929 -1.4890883344204549 1.1296892501232672 0.4965728372684286
Ni 0.6869712188318321 4.126039693576473 12.396676424622198 1.2938773268998232 0.935002490537222 0.5604912331889443
Ni 3.0525742566779965 2.5332286739422516 13.094883117414954 1.0329512365695694 0.5832277555545118 -0.34495436962676723
Ni 0.06840415487092243 8.719461824969287 9.97444324138747 0.030110703342451372 -1.450754986057895 -0.6572801545852358
Ni 4.492990789544148 3.808432836910259 4.044403610285879 -0.16477917339333556 1.3390842624537647 -0.8465339160811679
Ni 6.35398143305523 5.742660622737208 1.8178155868096357 0.773141776342262 -0.08547503904536892 -1.7877893295066372
Ni 5.952541932118866 7.657384938909402 0.08492815831033332 0.16401812685759495 -0.7192810217680644 -2.933777059679612
Ni 6.435923670101163 6.959326712244988 9.356123313590508 1.180492963038696 1.9665923279828903 -1.6654783525798413
Ni 7.9225583542248215 8.440327060690606 7.170322900814003 0.5364478190864955 -1.1615639873446768 0.3729999629100737
Ni 8.5984204336273 2.0025314263625345 6.560451710084503 1.1308968972781233 -0.34882619387734765 0.022704897796683474
Ni 7.527232706896542 4.813585411774495 9.448602034999336 -1.1040188419403567 0.9901891630116947 -0.5922824095576122
Ni 2.803593793000284 4.707473626754515 8.035549377241228 2.0948939752754825 -0.8386460286926588 0.7564118651820908
Ni 5.2071497528597215 2.0418334536289944 0.3672258966275859 1.0794385814978311 0.7354931127515527 -0.3272651798771202
Ni 1.66102244518326 3.694704094001473 6.443720447213736 -1.499433682210521 0.029056036825691894 -0.9661706886099104
Ni 4.4548045636149105 8.451706390030543 3.6772284319008937 2.668096742493824 -0.7351398431771919 0.20792845508729996
Ni 8.32525197897823 5.155878220339422 3.1051349547102274 0.2823708904675911 -0.13757201685092438 0.06154501059233271
Ni 7.228963332909296 0.3881476327754376 9.721921722226343 1.9689112059240543 0.9628387960231997 0.7445997030385112
Ni 7.6843024934825594 3.128227431641402 13.166387540133597 -1.795248871108476 -1.0259035856941687 -0.6586009302791883
Ni 8.706182866906476 1.4158873464445696 12.033456347010228 0.44199860156697424 -1.9207950671431178 -0.9513845314396713
Ni 3.1571737159186 4.942105438525468 12.034806374413279 -0.63579807345206 0.25037016919127847 1.010693967833266
Ni 6.623037099304291 5.907845328139389 6.909028969982628 0.4458400868002515 1.0709295155855556 0.923163846031081
Ni 2.2266322866697856 2.444370312905273 8.59394339603043 0.7816539275783312 0.09777416812769611 0.21384816300584458
P 1.7424021708112531 1.0466585403091762 1.5992384041965682 -0.1011022040596646 -1.0073865007265876 3.1740505067565206
Ni 7.4801385132668345 2.4480957983617837 4.176791133572646 0.6444986865498513 -1.2313642959672666 1.234796204466951
P 3.0171452588465235 5.7481474144367715 10.005822157009787 3.3735529425636543 0.5918769465890774 -0.997429646624192
Ni 4.482644268053541 8.951281079650547 1.3456628677392033 0.8020908552764444 0.8791401321519633 1.0507622966090613
P 9.005023973810314 8.818768143982076 5.185027377587024 0.04545093324394753 -0.387252616174346 0.4064808682763386
P 3.283240824027416 0.9922148122516496 10.12371532871105 -0.8768747331565544 0.9517072048864126 -2.296602931815632
P 6.285723900012918 8.116938324367876 1.994283717965744 1.7061856004912164 -0.9364633913534646 2.4385756488374133
Ni 3.219953678760003 6.55014115243865 4.297653627840732 -0.12103262443500448 -0.5926385073454503 0.027939663833061557
Ni 8.922288687880076 6.100888180977508 6.502619081271363 1.9419465044097524 -0.9297404708073344 1.0133805135264935
Ni 6.360685462577219 5.5908931978776595 12.538876544627465 1.0889089828821117 -0.8196448049998077 2.2172409476465367
Ni 5.309803475884176 1.838545515785469 5.052072732132991 0.17316894011892758 -0.2719355540668801 0.13567608537979214
Ni 1.6898396284792914 7.070178347573498 11.038122823913548 -0.9904151629795718 -2.4710833916571313 -0.31703604594994433
Ni 1.909827700386533 6.726778959170004 8.248903503016258 -1.0584144138376803 0.8939100913722863 1.4039282555123433
Ni 7.886640616964647 7.6938098585955865 11.450160593253797 -1.2763609152826147 2.292352384069394 1.188599137085598
Ni 0.9728312220794071 7.32434129349517 4.002429192709278 0.23888633692139502 -0.2817774798579663 1.7338761244279493
Ni 2.4492300426963154 4.553308612244738 0.8542464379790397 -0.3156659050752951 1.018042180668221 0.1480376922689386
Ni 7.628475540626823 6.657322631302577 4.743014204719712 0.8526891370492863 1.8789223381687319 0.07683278998933865
Ni 1.3116844116461195 4.503853714959421 4.070667360604415 -0.11717828368592077 1.6073110002104898 0.8399408362446825
Ni 1.1434842761838424 8.163073482137492 6.7351520799485 0.4505197516641079 0.10263972375011354 -2.147552482011463
Ni 5.280073364221327 4.579516111421481 8.423481226948146 -0.4412961761833109 0.9728427013134472 0.4755234727972972
Ni 5.455291060159854 5.478704445244213 10.631457499689546 -2.349431131360257 -0.9650859401861637 -0.3793271906796822
Ni 6.440847950382787 3.3065343296292635 6.848213186354683 0.3127813844386484 0.4029653989239124 0.3403757491171493
Ni 7.918897419258894 1.085139854195365 1.1897291697874481 -0.09542392272796468 -0.5434142231019996 -0.5788113716543709
Ni 1.0228117447880443 0.5491457777883705 8.292888207299589 -1.8323979693549475 0.3262135986841543 1.1266064974328855
Ni 2.791015668835232 0.06164571850687074 13.691891239670971 -1.7927371604302158 0.10905051237246381 -3.184716214000483
Ni 5.231642053286684 0.11333406276636392 9.129596276987199 -1.3116529057156894 -1.059925451165568 0.6979969155783076
Ni 6.864917009017861 -0.0414478700034154 4.970593414319525 0.6031656321290193 0.34770493578871087 0.4799169738793025
Ni 0.9264378623474598 2.1559771639772434 0.1744154255555652 -2.241414459568946 0.9272369876591902 -0.2892146528623019
Ni 4.88771703945987 2.2481276000339614 8.412171058848118 -0.5666482539292758 0.9405285625617738 1.189276622768597
Ni 3.9076377194378455 3.5975094981806177 10.240892912116704 0.1028415553482745 -0.8498228712450848 -0.10285003998870673
Ni 8.61105388678428 5.712792188594537 11.340609189235602 0.7416784156266581 -1.4626177989337519 0.011513399956238235
Ni 8.693411091269676 4.611053636820658 0.8005385855141608 1.0089353332709463 1.7640328505169875 1.151582707762249
P 5.623076228182668 7.589754467775611 5.61941529321674 -0.9009716262047579 -0.6633582424585156 0.6470559057540662
Ni 2.5478263063126896 0.15284357375255506 3.506131823711166 -2.215909887539939 1.9565771098387337 0.4770959594907396
P 4.363410290447881 4.458105860133305 1.9777237506815795 0.0504553284370744 -0.5557087241986366 0.1836328157647289
Ni 3.49611912047186 8.885264370781334 5.827249429897047 0.8110136116873711 -1.4358155911392434 -1.1153432658142404
P 0.7795191014805689 6.278734004032633 2.0742377999017156 -0.9448343890259793 -2.834608839417866 -0.6401560933104395
P 3.9394150038020452 1.5369195162879021 6.706916773217581 0.8898050680649772 0.2602375489036615 0.2513183920371608
P 5.712008361208884 7.911999738265155 11.250829600483016 1.1766483924816251 0.5957875944973933 1.2984708598077765
Ni 3.7305941667656826 7.1922525467648155 12.807742248004237 -0.32265339213672173 0.5624146754639024 -1.1858169463547708
Ni 0.3813513882669015 8.770004859095863 13.37237276633363 -0.713839539037519 1.558672156156864 0.21120018386003628
Ni 2.043032248454109 7.846923622258725 1.8422848334899622 0.7782904104227371 0.5862742556903193 0.040485875929188335
Ni -0.031060773918727407 3.866712708408153 8.240467676046912 0.6931447296923288 -0.769186648349256 -0.5830076691239057
Ni 4.2766083236109065 7.024697916208369 7.413733579304258 0.8005245392305891 -0.014864318706342142 0.3936724036577607
Ni 6.681695052247029 4.378644206225495 4.926027755620947 0.37314214491489284 1.2210037786685488 -0.9791280201015267
Ni 1.4811017849308208 4.599093353065473 10.122446450496158 -3.5963272044145356 -2.0493929055198894 -0.037175837719348875
Ni 3.9690436789796935 7.571560450929828 10.221768446056661 -0.9282525734078981 0.9490060039051657 -0.7584607772913196
Ni 3.2399735523394217 8.990398676943911 8.151903480817017 -1.3823628706367417 0.7303851021010259 0.3166532086892288
Ni 6.04205501956033 2.262937326873458 10.87982104510726 -0.04906050497207679 0.6026542397102395 0.07946611384712765
Ni 1.6913519542586672 2.4429502021124443 11.099276114392255 0.259394741287392 -1.0676377322081612 -0.4337186209463692
Ni 8.17494155090613 6.835297555338868 0.27178522985086034 -0.4993311167398562 -0.03620601760691184 -0.08788544825907445
Ni 1.7847288496364642 9.129800072107468 11.309944939759028 0.7234410666830251 2.974716735316767 1.2154226850363457
Ni 6.637385751211051 1.0653781825782782 7.325102067134185 -1.1068701953462228 -0.6139380401541749 0.2680508743004932
Ni 4.089079926968315 6.530480917306765 1.4312872491979687 -0.1371765811847186 -0.18408353014890233 1.2146595816180759
Ni 8.549445054272027 7.842727840370823 2.458161986293287 -2.1267517432160274 0.223366386908925 -0.8916614045474257
Ni 8.486997065382196 3.2801977294713542 10.82192109935394 -0.21054815209833416 -0.4011453149960381 -1.1385580133678068
Ni 1.9052815015497508 1.2474751165132338 6.363280392298661 -2.3719141429541217 -1.1858958792218222 0.8807555562681992
Ni 9.005844687190585 0.6834854923403441 3.3473579041737542 -0.14349481009326254 -0.8480454676296879 -0.9281517861639756
Ni 1.1959177175346376 6.724418255514394 13.284280711834858 1.261175722901744 -2.1136128918412243 0.1407092769283254
Ni 2.9543191885118474 2.45095446294475 4.9591347800911585 2.2856682871809992 0.8587885650788047 -2.094000516926936
Ni 4.699174277965258 5.166547494282945 6.0802698321353965 -1.8228463211107704 -0.9730679299503758 -1.0852217638385118
Ni 5.6384853524347225 6.223995188018155 3.8696626658278013 -2.157014912975943 -0.005025992459681666 0.229122829776728
Ni 3.9747425651483166 1.9172325638062813 2.2739468741173403 0.45584476342144714 -0.0271477640593855 1.1095693394449406
Ni 1.9883118754369407 2.9766259937576396 2.5220411517743337 -0.27189801596072527 -0.3435181514008729 -0.04401368657678872
P 2.3997198164190694 5.8416626322943905 6.145499025019496 -0.11368184049688808 0.23116557123836962 0.2531613587831704
Ni 6.624309666118643 0.6791255677763878 12.770410855000293 -0.1444702866326544 -1.2623165213744068 -1.1514263846900428
P 8.673981393604159 6.826915213061719 8.710824047179402 -0.1884621188325722 -0.06514249813560395 -0.07473836935415515
Ni 6.226125354207397 3.2506428262829448 2.3784642620199166 -0.028525618243518614 0.4132788650347785 -0.6780006749620389
P 7.325733739792034 2.617762152110163 8.81770398303732 0.1051403786847802 -0.19139934708402523 0.5818259901109786
P 8.762581552678805 3.948571951966193 5.578777070795209 0.18946330640357695 0.1781872192691254 -0.23466201442740234
P 4.953549318355989 3.76501802124379 12.445318907876034 0.6607313463586297 -0.5275209489105108 -0.9057916733012207
Ni 6.19598949660374 0.7926302282678642 2.9455642976890464 0.14023850793949394 0.7849837632825126 -1.035259830098088
