# total energy = -340891.78443671495 ev
CRYSTAL
PRIMVEC
9.09006315750820 0.00000000000000 0.00000000000000

0.00000000000000 9.09006315750820 0.00000000000000

0.00000000000000 0.00000000000000 13.30422626868119

PRIMCOORD
 96 1
Ni 6.4412551489108 1.7331841716001102 11.78738493292805 0.2602750870098163 0.8571572001229689 -0.6627861720051295
Ni 4.527615042520346 0.48665925895819384 5.817259578992177 0.9904429308937134 -0.6435761747355819 1.5876533738805627
Ni 2.6207288530928783 1.1432027091966992 4.740921556735374 -0.986528940551288 1.8846844374634897 -0.5063936800135924
Ni 3.5511695428606638 4.330415211302245 4.930440284543348 -0.5731588013542838 0.0038733669124772006 0.3050955857586165
Ni 4.977273199193425 4.263894128751583 3.010080803430093 0.8414665288605896 0.40293531701692537 -0.7913606133431338
Ni 7.202875184793522 6.075343744566124 2.6057657000474226 0.5326371870911536 0.1049226062470193 -0.06661445469544011
Ni 5.264382845594444 4.650630867904072 11.493335023268296 0.1462345776219288 -0.09450501045812111 0.5545072476913676
Ni 5.66643634125115 8.046242159099052 12.37588380602236 0.3801599709936227 0.5649505545118786 1.0130167024291714
Ni 1.893178374110933 6.526901724449519 0.5479362840445927 0.0803261478545778 -0.5925976268051859 -0.7932017803169307
Ni 2.3535718954317755 1.459364197608092 0.16189220770849666 1.2042664113092099 0.29015747639154543 0.6312621332549193
Ni 0.7311692331447522 8.764229891586968 4.277241977565111 0.08552620399827851 0.012587606857023483 1.028459776457119
Ni 8.498690965176756 2.4761695779079678 1.3785444456324245 0.45379070910589586 -1.314127078287795 -0.15221033558938948
Ni 6.842345097867537 0.9047685332578673 4.952391878182538 0.0829450735346636 -0.041559568609341326 -0.8500208461885039
Ni 0.5662409443250338 7.142798957056801 2.471233673586431 0.1531744992748717 0.23255191006293496 -0.2141726362247989
Ni 7.537544041894878 3.9086090082961826 4.0494604466988555 0.4876763061097472 -0.4159898362080385 0.02567246506543966
Ni 7.623117896927937 4.240078163148586 12.841172326380306 0.4066626452698415 -0.885061639842721 -0.38951287296343245
Ni 7.812382102966108 8.910116316000138 6.950021441589028 0.2660315298776193 -1.166550641925991 -0.4130703485683983
Ni 6.96560635495786 0.6205867962159038 0.5252065809948618 1.579890442105692 0.23347442187720435 -0.6264958222145274
Ni 2.0348651893223524 6.7072576685445835 9.368383671536806 -0.21318584683149736 -0.17255573201496088 -0.45825105887009465
Ni 9.294135126253659 4.716488375840605 1.5077942363636831 -0.14452248002682852 0.6723609601777581 -0.6361469721510463
Ni 6.28300623853577 2.064707866831757 7.2204299148593645 0.5474760518761991 0.36678586367956184 -0.09717690086332942
Ni 3.78938373926988 4.484173630452894 0.7438062390154725 -1.0600717469354453 0.27108760424428796 -0.48309485738665187
Ni 6.183397325910715 5.815813349935904 4.763192211593139 -2.2187632978283336 -0.27861476585926853 0.543612969376367
Ni 5.286135366849395 2.777405182533055 9.860706948879436 -0.4069979171220732 0.18294093190402685 -1.193917463974718
P 0.31312995233177454 5.544884016043792 12.351816954674842 0.3479121667035105 -0.47820796160799584 1.1074872601049313
P 4.163348939616181 6.262971739226989 12.679420105645201 -0.5390436048381297 -0.307575928978309 1.0311092982648242
P 2.36443452096444 8.518080069997822 1.4637574251561565 1.577848986195631 -0.6820655890600318 0.6878814244108604
P 6.188960444593553 8.01632676108399 5.804819827493055 0.09365474664268386 -0.5643427457245507 -0.5953913875002391
P 4.609161999552594 1.188089441314104 12.826351887327204 -0.11433310092764179 -1.327121947885566 0.15176887717659668
P 3.97537552255344 6.437373691921303 8.217421684386396 -0.08081902833059629 -1.3521701491034455 0.07208987598771456
P 4.613088906858126 0.9957164336590537 3.723387153366277 1.0053103349238492 0.47507404396470443 -0.5788805343294094
P 0.04872001177190253 5.488889226687125 3.716562333910273 0.7883385386873584 0.006806481398872149 0.23162271338044627
Ni 1.4114413843794653 1.1211411257927013 2.432291842806568 -0.10672160712897104 0.3926056529561432 0.5595651218302493
Ni 1.9557270990400262 6.360108154659671 4.733297720723453 -0.27907884997988064 0.9952930598971633 0.9005121700698363
Ni 5.825585167883699 5.813022700531278 9.209212119746239 0.8915341349409419 -0.9651993258355765 0.02689425328768271
Ni 8.566557377082091 2.4184749467315463 10.240422523210645 -0.4132436409214689 0.22361886923936325 0.01408810266194993
Ni 2.541545312494516 5.171355138731438 6.987047087044803 -1.308473222436127 0.018532768696864856 0.7026436703216996
Ni 0.43196889367176894 8.822006333332256 9.303312454067699 0.41624257564879286 1.2551763107851996 -0.9336765726369468
Ni 1.417658987613225 1.394833838899818 11.23577808136037 -0.07082129368793609 -0.2614930185773174 0.5223502033428488
Ni 4.25196796582367 6.954152875316724 1.6002192720360477 -0.40648832447550637 0.041259006649787 0.03925174641177111
Ni 5.738602353053515 7.96364984479797 8.074587703198222 -0.7209712649862939 0.6502415025708995 -0.3037758385059285
Ni 5.422895367802485 2.934772356776982 5.081881646582468 0.15662749082047867 -0.342640633891926 -0.15264228092048548
Ni 0.5809113973352159 7.342925788627636 6.709202033064614 0.20713604109299166 0.0765671950327778 0.13143222250177364
Ni 4.909843110322037 4.460557646240456 7.273686777178007 0.8835840268559298 0.4622568375953781 -0.1439259840934102
Ni 8.172003183571368 7.000930340581237 8.923224187144994 -0.9418755635079714 0.6418777039872364 0.8838491075918584
Ni 4.59313621811821 0.4218316551830427 10.447862310631713 -0.12430872408311494 -0.3462918574912682 0.8434241668075927
Ni 8.033088837638159 7.278050007517487 4.652567960373537 0.6944716760338685 0.4393130843150112 -0.12305685395388485
Ni 7.347379919599189 6.41272144050324 6.817897372871637 -0.38726315769730724 -1.0239246075909267 0.606228330214743
Ni 2.248454404503126 5.205761027970882 2.6656083131597175 0.47870701273160143 -0.5587531674519152 -0.4130968309309595
Ni 2.440436539440265 5.378763110931281 11.646666209448203 -0.3500662369320358 -0.641750948601385 -0.06482136735075933
Ni 0.9257502171528438 3.2733681211838697 3.594469149942083 0.035647831110596676 0.2616513985320526 0.7594030865999308
Ni 3.7933742770178633 2.3152936392660415 2.1604471395494853 -0.07091950982869721 -0.1310912942225871 0.7378122478030326
Ni 1.0284315711419496 3.118182562109683 8.341816472358662 0.9017326727404986 0.6514213818116136 0.03940755526334504
Ni 3.5722130391854496 2.588468218770345 6.84949443258004 0.18806796871794706 -0.47890833010913 0.5222496732092425
Ni 4.165048781435937 7.101121017251556 6.134206448864676 -0.13542231749777325 -0.5550415229282828 -1.1743878785822226
Ni 0.7607573888843538 7.475540720758219 11.381047290481769 -0.8411405129797385 -0.6339396800870825 0.6432151918517374
P 0.40722210559634914 5.604905703401268 8.013894260169728 1.0944386544510896 -0.7964637388976541 -0.5587053449331152
P 8.573002231896032 1.3529740978304277 7.999671947275663 0.07769693776184683 2.7838092402674963 1.8126948344990652
P 2.1232933242024887 3.394793185506327 10.33569456667952 -1.310620607796433 -0.5998561081398122 0.27584877307835715
P 3.947214506737377 6.083070298292287 3.708314010556013 0.7848683207505709 0.9277059568758087 0.2730673536784781
P 7.0177742277042725 4.043541906544615 10.210887089837646 0.0465127988495586 0.2914587117014722 0.6860983643685088
P 6.372316109547009 7.729262564999006 10.202346066448111 0.21037794506905702 1.1038841161347053 0.3741335622938847
P 2.2557991755745848 8.489864513802516 6.018179973081006 0.5728682666970586 -0.7388861975935016 -1.647324307378634
P 7.060879307433057 4.105163445026569 1.79057610367173 -0.8035067617873646 -0.4587529382071777 -0.8162373219801556
Ni 5.54581120249093 2.9042206543374114 0.6234356220250563 0.318519058253374 0.34222257251790095 -1.3931036540930137
Ni 1.4448564567293196 1.1129964291590044 7.062708228150355 -0.014291219811691517 -0.2721137315159572 -0.24032666891234739
Ni 6.83797277746485 0.7873576408477321 9.373585914710315 -0.23492375272922122 -0.07380917267166644 -1.1108199240225902
Ni 2.813510913592255 1.4996422676794208 9.220441074826155 -0.3946519939622107 0.5289602524601986 -0.2831406787540801
Ni 6.398795463669732 2.1333923844257443 2.65066788527228 0.1675351388719179 -1.015672909105096 1.4181582830687964
Ni 4.287655553975337 7.1003120016261105 10.731428650394545 -1.3216408701663367 -0.41594998410903844 -1.5924999033395866
Ni 8.118699052924049 7.069633038301639 3.0906214904652984e-05 0.3441776393617427 0.388024461343364 0.5978997557443896
Ni 7.870222175153846 3.846069373430297 8.143570374865407 -0.3161258754308491 0.5286000409073026 0.2767396603237428
Ni 2.8600883974662086 8.335587961049054 12.530838477491082 1.6272951566419007 -0.09197015985140934 -0.3506560479972348
Ni 9.235958721727252 5.143621355886116 10.145989492575799 0.6007382536344493 -1.624526849868144 -0.035202258932745825
Ni 8.647877082534157 2.4856050635170943 5.975939358363232 -0.058238057706286796 -0.4553729659913513 -0.10124361473353533
Ni 3.7255714955549792 2.7945672218683444 11.808751126496695 -0.6228695383158498 0.8904876959542987 -0.3225171236691736
Ni 0.9226323254727568 3.2714682979735543 12.656336799136708 0.004377817352721493 1.1271718830180524 -0.033496331985232636
Ni 3.176622578469099 8.429761015876172 7.984252473057204 -0.08674542111736028 1.114036374077359 0.6004364061233143
Ni 5.854482478819548 7.998637498082679 3.515814651022382 -1.0625160947108798 0.2839968561067883 0.2577680043172464
Ni 3.1732228948295864 8.275502643249126 3.456224741667249 0.3934960259808965 -0.4480872309632154 0.38658515779367614
Ni 3.599774110829834 4.750830634637598 9.602032838203339 0.5529213912614864 -0.39606404381838883 -0.4925148651489711
Ni 7.350334190141546 6.090905932776938 11.234208227444478 -0.23486204625335033 0.1203376552505089 0.23927225950590408
Ni 0.697489639955567 -0.2409175812070529 0.390706369755095 -2.97001058809035 0.03817445418719232 -1.2839726661916016
Ni 4.964301678996678 0.2451426425857831 1.524744477226244 -1.4222640777070537 0.03258616146613742 0.3857086687259938
Ni 5.99358771608011 5.651719528918611 0.4693354164978151 0.00958970057096413 0.2896792512035463 -0.1300610531858599
Ni 7.977512191189028 9.056220901930281 11.201174028743008 0.32111073023995024 -1.2648835107706344 0.6680024260987463
Ni 0.12266949397552986 4.85339381780501 5.878645684837063 0.25518198875762504 0.04940040480999879 0.1905987055596008
Ni 7.990865494040479 8.871538087748567 2.5974901065035416 0.24501353286505548 0.2769744020423682 -0.1178100037326487
P 8.596600035982057 1.5673177882574034 3.7476012637377516 -0.33916038865280945 0.11694251352603084 -0.05034631366303588
P 1.9848971118720942 3.2305266532880963 1.5350944231940198 -1.1648660551347163 0.40448646355412915 -0.689031993075536
P 4.7349230240249085 1.079063223206337 8.286883402384603 -0.005644085659654796 0.10729702001646683 -0.030139499697857768
P 8.675865387149283 1.4195224505707114 12.576511500075915 -0.06530653451729398 1.3243976069758676 0.5003593008940543
P 6.501604078543738 7.713300414007073 1.3149030951058196 -0.47379492014196467 -0.01248450562025592 0.2090926505987302
P 1.8435284488729284 3.100556929550823 5.754703582012518 -1.0681910336084701 0.256565499368713 0.2549439046048899
P 6.888213556811325 4.297336471291059 6.2729962609319445 -0.45103320096541677 -0.7975060641192394 -1.0375100595848457
P 2.240218807237357 8.696290759175977 10.440278470897903 2.122965279590402 -0.2813087677516639 -1.1762316166591806
