# total energy = -340861.3839823357 ev
CRYSTAL
PRIMVEC
9.31293158169289 0.00000000000000 0.00000000000000
0.00000000000000 9.31293158169289 0.00000000000000
0.00000000000000 0.00000000000000 13.63041673536033
PRIMCOORD
 96 1
Ni 2.2881313871260014 1.3535228354869013 5.550809832544458 1.1061145481271208 -0.7902876919939292 -1.0753379290658964
Ni 6.508873002116747 0.3157055833034396 3.906027858889961 0.1966199720530162 -0.41507812302704644 0.62826422696886
Ni 6.487518450232371 5.265885350369777 9.182007495691257 4.256669028644231 1.829775701240752 0.06115934511813983
Ni 1.760889084299105 0.5718586949628184 7.70392513294821 -1.872900043234052 -0.06000671957093537 -1.019740137195934
Ni -0.0864677749153369 6.013937258595084 4.986033621972425 0.2876755905099562 -0.3499433382009264 -0.17437478750157065
Ni 0.9730337069269045 0.2069985280130961 10.395782343970756 3.475583829085176 -0.30071853973684337 0.17920640456225911
Ni 7.268975843677591 2.052905363796052 2.164441687670117 -1.4319003152452372 0.380180539818913 2.6689727173408744
Ni 4.549264585890552 8.503051019997894 7.474348333854223 -1.5375603138789133 -0.1624070736167332 0.80473703465004
Ni 6.880654539742645 7.002206921423794 5.2899648660052945 -0.4782701823044989 -0.044636921983084415 0.4677978220182653
Ni 6.740522859758253 3.3486787111734824 10.458604585857557 0.8415431477347958 -0.6389271059993448 0.11230630030560014
Ni 4.529726055644838 2.386783270297042 10.515144324167736 0.062088798910944674 0.20509689917577578 0.909921122088562
Ni 0.8264053259418415 3.1721986596213987 12.659685208557555 0.28072512733405197 0.1574168194909934 -1.0391920752729586
Ni 1.682222752084833 7.758267950722179 0.8323525639851745 -1.7692753298628499 -2.6407191218118196 3.964248981470753
Ni 8.802117188625445 8.093170279686005 4.1018834643868525 -0.6507500667762018 0.7334092336393304 -0.08562364880809124
Ni 7.893892171870095 4.351280975550406 12.500455499986469 0.847127840911425 0.2619167363782973 -0.024043156992132785
Ni 5.051063959913211 7.786011173602056 12.799792674920099 -1.1112667817520216 0.7622950634357453 1.5484314522654623
Ni 8.854306856641164 8.004781247006278 8.921762281939426 0.8381161243311178 0.5479619903736821 1.9055389123149957
Ni 2.6002449727574812 6.7476100006147774 4.765942974884293 -0.12586244172348002 -0.8865189411145378 0.3457735230939529
Ni 4.630212586317502 2.1120517916275707 7.554590414074966 1.5489364169263389 -2.4454037275028404 -1.2474632584116583
Ni 2.2092415445562015 4.728035618586795 8.522281292211611 -1.265968002084065 -0.370027253434995 0.10064351925569119
Ni 8.75760137614951 2.354774724799179 0.684689516312648 0.49791675289083276 0.6539742301404543 -1.0980914207123282
Ni 0.9785655882262152 0.656290663056557 0.09201921337075628 0.831126323276846 1.059789439808336 -0.4594677048860151
Ni 6.039557133097448 5.093987261106011 6.9173270013258525 0.4787571492432464 0.5780793785843529 -0.2326023036848962
Ni 9.088191817837947 8.543180441746598 6.808774540698082 0.8253526540178625 -0.6175468405513558 -2.1997260786912243
P 1.4189089274102356 4.0639491005880615 0.9594694222258169 1.2736681989418002 -0.5654683746885616 -0.6505891157183052
P 8.118538705038398 2.8692117468406333 4.540168645713722 -1.6758018459930366 1.3341325748754442 -0.04436901303367843
P 9.024090910458897 9.429901899713887 2.3761227576315185 0.2891573172618052 0.8096540123356831 -0.8091644742937741
P 6.199832683873773 3.204020946489656 8.25283583345037 1.5746649320406947 0.731194742486515 0.4123450403665995
P 7.8667729153994 6.5680473687427074 12.750246016858492 -1.0192331156525285 -0.050019012230604176 -0.611913039304346
P 2.680503816254888 0.8235434620979389 11.751082086784104 -0.07153528903582518 0.830266546379712 -0.46308087615857024
P 9.020384363729729 3.998274307788837 10.44940434084815 -1.2360305910946843 -0.797732835418065 -0.749837811508999
P 2.8483228415302735 2.783188198756908 7.888535373682614 -4.223940170952641 0.6292908684611613 0.8020877699526509
Ni 2.853389076255568 5.092525130863599 12.752903927502977 0.9053314458353505 0.2244331376105425 0.57577438460026
Ni 5.942032114635526 3.115473593974763 12.814213749317375 -0.5028764108889533 -0.3639885034400828 1.111469641791447
Ni 3.8233495157939665 4.833448690012549 3.227996157292594 -0.8278257981487033 3.7911836568092254 2.5523125109419524
Ni 4.576234835457561 0.9977781658701175 12.814295703114402 2.1931229715524103 -1.0489854072142968 -3.753269655372271
Ni 6.252413495011666 0.6011171317945431 8.54950205963544 0.9221089224040054 0.7009742530390766 0.3911789478119456
Ni 8.23023800521337 0.5560639631721938 10.319561587563218 -3.7130457748552184 1.3845413663452995 -1.2561996098433914
Ni 1.279457091423908 5.235338935114324 11.09355094125437 -1.7293234720602604 3.3361187089765965 0.03212156312489307
Ni 5.486136179879369 8.531557903259158 1.712416207237182 1.2676852418854878 0.6842466558717507 -0.19956002851794663
Ni 0.31009454208654624 1.6383774706754815 3.9565831074308835 1.5576802245572399 -1.0540245123001009 -0.940968992533302
Ni 3.3894786639887693 8.922226065927145 0.5186129405172307 1.3391017459552614 1.7772282661613394 1.585609089757024
Ni 8.30017812063058 1.1416350184466368 5.746638430540058 -1.471897167353149 -0.26551962323820727 1.7518242242659376
Ni 3.4279224451395347 3.614823667018098 5.90560923961599 1.0793673619402635 1.045289446419948 0.47344704988424263
Ni 1.62586089076593 8.822568386156231 3.5482017490873248 -0.867614648010867 -0.5203905085133167 0.20858768593785368
Ni 5.404135818195143 6.024712320317817 2.1673044828071677 1.0531601074172765 0.038958640651384525 -0.8610997297104848
Ni 7.831355836979739 7.884877254197145 0.8250651951018234 -0.5165042860850331 0.09177269912862258 1.7192789433400648
Ni 0.534401153255819 5.7027549661116375 13.313890706255668 1.3213387655448856 1.0643030114079737 -1.297831683561881
Ni 2.1905784298696385 8.08752664320893 12.415278497374306 3.343709891060293 -0.7995729739505972 -4.558590587550239
Ni 1.0822837061225508 6.364522564171771 6.895300987081745 2.8025114446626893 0.8885462559572116 0.6473762652079624
Ni 9.095865673377732 5.705520906761293 8.779282811928846 0.9183042039459346 -1.5890687661708505 2.931395189710997
Ni 3.8932896312111773 4.158512606839241 1.1247059716017092 0.8340519815640733 0.9791722430759008 0.2609705704149441
Ni 3.1896790320099617 0.904939414529093 9.283199946570129 0.514298536682966 0.3626900963436334 1.253811569227189
Ni 7.033768446210602 8.888075546188809 12.156654664993196 0.6746165889811543 -2.8412489704422033 -0.8912271452234846
Ni 1.047425403591709 3.3506344267843504 6.123532767548651 -0.9935483092919147 0.1049064082971032 0.4671537606763632
Ni 6.802910187744924 7.572558784073097 7.991118245231498 -0.9489119015294625 -0.7770336551975005 -0.5103549786541856
P 8.5646653746717 1.1458630893387025 12.335540246746648 1.3209142764129573 0.5281534402881871 1.7358540740899266
P 3.7460987491647035 6.669101988235671 0.7219729062009653 0.2621771891285356 -0.14202259642311024 0.21930172992124813
P 0.9557861578253498 7.296523494996381 10.413611019996683 0.5861014775578809 -0.1895926328925896 0.1929900886099128
P 7.231975566906276 6.951311750883841 3.1113610034330534 -0.0687034760139849 0.4931234452672475 -0.8996963590367603
P 4.960113871076396 6.909161423003908 9.235097724181124 0.4402674778084804 -0.059663734409219835 -1.8321971661980512
P 5.977123240453375 0.7793275260156706 10.797320560262575 -0.045098177890219096 0.8383377534236207 -0.5588601253434247
P 8.710980841159023 0.9300815356465156 8.153415633432202 -0.20264998029718 -0.35353542642755886 -0.19022640982184658
P 6.209853398146599 9.00705755878139 6.288161182498878 1.3926737656444468 0.32560116191113603 -0.6647247837887391
Ni 3.1552956889846158 6.459141948011833 10.330887974829583 0.04859307841735502 -1.1785481806074993 1.4208900801776625
Ni 0.859252966566082 6.221624943537725 2.5866303982264 1.13469724486082 1.1329550653587326 1.263663008099972
Ni 8.228375418917306 3.921256364446582 7.411988944661993 -0.25605333561898486 -0.09741009992005806 -0.19403627048624
Ni 8.704415224465397 5.08118198032057 1.3800386139976715 -3.1627787904974434 -0.5862210338548807 0.9126932855170604
Ni 1.6014423844245282 1.8930302690733805 1.9736839808655529 0.5483587115914685 -0.09543677824377113 -0.3738278581280078
Ni 2.482417763668459 7.867992909423322 8.750822493324986 -0.9701052477776261 0.22455500790038746 -1.039650502966616
Ni 0.6407203729146083 3.875483306220804 2.94348889444823 -0.5540565333071943 -0.8980405686008921 0.6724519772296677
Ni 3.4481128805888708 0.599118576698866 3.020950133328949 1.3192152914439796 1.8864993791850413 -1.3034397737772778
Ni 7.71535396246086 4.839772170487687 3.824463342399013 -1.5466046834693687 -0.3522475608540708 -1.4193129654985297
Ni 4.558242251837582 8.18411105559134 4.920512492542627 0.41868383810043375 0.484104786708405 1.2597166218577145
Ni 2.005800556368588 3.411578250391571 10.47821948214141 2.176569180958787 -3.5403853989415928 -0.1055502125286892
Ni 6.374142822390943 2.9920027484086664 5.955155897677594 -0.0753160962344961 -0.9334775692522632 -0.4696968388131911
Ni 5.506028601521335 3.3342064156530635 3.717710140133241 0.6820805014583672 -0.7700443683638609 -0.24559254529697702
Ni 5.745072926758216 5.622365741573506 13.176551043129077 -0.15831542004586283 -0.5998247406812445 0.39870842341977136
Ni 3.000784842794609 2.9636541849825693 3.714711376196577 -1.1173368992055015 -2.531118907583473 -0.3247632393908729
Ni 3.121098604588877 2.58018491834887 13.47640694834616 -2.275565908639674 -0.4771540664221846 -1.224153380041124
Ni 3.727621893107746 7.717048915990278 2.9009073778407584 -1.2865003177094618 -2.3660702825788347 -1.7600592105812203
Ni 4.516883523133475 8.5148318783205 10.551550435910606 -0.841001673409029 1.1518192492530872 0.15098237671955933
Ni 6.139661833579419 6.7714511052044 11.069915652450462 1.1237266047819294 -0.5177235032041148 -0.09146622363179731
Ni 9.481774928059275 8.100182917090686 12.857313064915152 -4.338897535727844 -0.6992937800128601 -2.1053938463655415
Ni 4.532287111801926 4.609444749116387 9.323545428329176 -3.0443504364545055 -1.6445423737581224 0.7264094052827296
Ni 6.778268171047994 0.9261533411481163 0.15488615732866357 -0.44628694452968304 1.1061896243394305 1.9804287196453505
Ni 3.7376239815176113 6.015194504344929 7.504308034426416 0.7284212935064359 1.0587519996827572 -1.2395314051590909
Ni 0.6662871637075337 2.546108902062375 8.73781977839216 -0.2542293950363686 0.5701626948404374 0.14278184318663797
P 8.304341001002285 6.2703129493168435 6.987742076248559 -1.9883052941799497 -0.4206810710361207 -1.1809362212237016
P 6.645577523316381 4.399922416672124 1.1946432931394761 -0.16056153576756219 -1.7801462111390827 0.14701105077663715
P 4.667976523470204 1.3131233387252685 4.5764397199501285 -0.2339351635637068 1.5117549227800353 0.5885663941586058
P 4.478244170421624 1.5020175279406207 1.1459459744288774 0.9203757417629828 0.33452031877763677 2.523000649351713
P 2.1993418983926203 8.361624842537738 6.128412743644339 0.047108780562344674 0.3583518739795957 0.5296801613453587
P 1.6602349208597953 4.74558118149572 4.567811288933611 1.4594003204377188 0.17479464864780864 0.27137042559202945
P 4.6477208975005055 4.384835467674003 11.665755145975107 -0.6046478731015006 -0.07957641417274683 -1.2238445905514534
P 4.770996171505516 5.723178224847981 5.40108024537645 -1.1744562699263128 0.549557616995576 -1.309566712610622
