# total energy = -340854.02976502344 ev
CRYSTAL
PRIMVEC
9.43002592941147 0.00000000000000 0.00000000000000

0.00000000000000 9.43002592941147 0.00000000000000

0.00000000000000 0.00000000000000 13.80179614931810

PRIMCOORD
 96 1
Ni 0.2347784067576312 3.496898708847501 12.279195743100912 0.23411102701993872 1.5408860358180365 1.67557713157674
Ni 8.990171577699563 4.94593531738877 0.8183876090590817 -0.7932490886150985 0.375733816901469 -1.3329619516061109
Ni 5.657732516995128 0.11287457857672314 1.8571832087172386 -1.1860110646434479 1.2878604312817818 -0.19954665878150793
Ni 2.146735919731693 5.9334947584313475 8.822825398690867 -0.8248895983385149 -2.3246197287435324 1.9689261183223898
Ni 2.9433656305017553 6.25189957606613 6.903340839206038 1.8896533514329907 0.09548845741731297 -3.194420071551808
Ni 4.234939669966597 2.2682512308539144 8.671295258779967 -0.13467618336036807 -0.5820321925845137 0.777768476480996
Ni 7.940100496316369 9.57911440253483 11.04164349184233 -0.6516077867908069 0.23624504264380602 0.4678770119956329
Ni 3.9093586027769476 6.722137237436664 1.9683707556968977 -0.508436421475234 0.3332926170181228 0.7379526300356388
Ni 1.1032187062074104 0.9603726769602111 2.1353585937291353 1.5274090843775243 0.026445338675722196 0.665944258018137
Ni 6.72470220442605 2.312525201497934 12.603248203125194 1.704632911292116 0.5909330946185694 0.26553530696749106
Ni -0.04491238338365701 3.2581021681406868 2.4180603910752447 -1.0509924103419965 0.8453810334236473 0.07220968939503047
Ni 5.4118445969647135 7.6837735378401755 12.239666961387258 0.9597933243286567 0.5304581771619639 -0.594877423978298
Ni 5.404517466998707 5.184986468789385 11.535058270369174 0.5336355464486808 -0.24640732788878855 -1.3815683997599044
Ni 1.4603526393768014 7.572546384752592 0.7801450828504012 0.8259265242434615 -1.1229089939766401 0.3429280832253578
Ni 7.87052576672924 7.508742830891585 8.852471513474823 -2.040799250313608 -2.745041375470679 -0.37033552870403313
Ni 6.941517355234844 7.813587271575121 1.670555456167366 0.38927221770753606 -2.5662445476420124 -0.7133368883694876
Ni 8.84680689703907 8.93744830403168 1.109604719608929 -0.597392477090668 0.9337755601086563 1.8346913933748146
Ni 9.00972945099364 7.979612303983768 12.848229897686195 -0.3295948564515614 -0.38552946283565215 -0.9709197732591214
Ni 8.10811526414693 8.288209894894422 3.7526117726508668 -0.4100397892721906 0.6913570416642867 -0.38743053651310694
Ni 1.0175092026539514 9.048005925294829 11.074202541563865 1.5592771367307148 0.9920737816289172 2.429416093825332
Ni 0.3798706681256837 9.106236333969337 5.1470211853361745 -0.009788446845331528 2.700845397679755 0.42272818337313645
Ni 3.475822601416323 6.604092175770671 11.172733108053981 -0.565139273483917 0.1334680219848798 -0.6617623587263054
Ni 1.6131190556564836 5.873915856082271 12.908433067736366 -0.24057452325709533 0.184222883940244 0.4001621251471625
Ni 7.15103366615472 6.260414889269868 13.578206300829837 -0.40027396813467836 -0.464542034085129 -0.7449434595311751
P 5.700648563938883 6.874630182971154 9.843551183109819 1.5147289178066945 0.719383865894516 2.341900627311167
P 7.000747346633158 9.13355511841145 13.585936092893073 -0.4866509501690264 -0.31786908337420094 -0.4728711227761146
P 5.866352975473857 7.130928851370259 3.4166209000950976 -0.6741681885898261 0.6793918988826105 1.330397276202728
P 9.35646206582004 1.515244818954828 12.019832316350518 0.7177373314300284 -1.4682032634413296 0.2710238408858881
P 8.203452823936287 5.679553596456312 5.819955363043037 2.0661359293061836 1.7029303267787124 0.5798804363488336
P 8.599174422254842 1.0096445612232567 2.9672066214670827 -1.6278204330177515 -2.7387336880850963 -2.209049927195312
P 2.3753008825580477 7.901644851526952 12.585926188923704 0.3306394956659918 1.00936676438141 -0.290678381892022
P 2.937104093439428 4.927461897049764 0.6339872285786695 -0.8996503362901732 -0.6094224116720085 1.1921022651428501
Ni 2.406834888486397 7.981196548300742 5.18155299643337 1.8087044823927494 0.9331327843183349 0.31479481532425146
Ni 3.1364359766073244 4.26934983373231 3.0067212581421905 2.129184778137552 0.9595207873935604 2.627521392174623
Ni 1.8768957344327353 8.2196347480311 2.9455930025712163 -1.7959803499578617 -0.5967515010725594 1.899590665151361
Ni 2.3022181834119033 3.0157882278491606 1.5000756796197974 -0.6232387487298104 -1.2151750878019136 -2.231264258508822
Ni 3.455057684833122 0.07030649958116052 10.002672493706223 0.16439299369851043 -0.3543918608905832 0.19964898868732714
Ni 6.875573185540781 8.199463923066762 5.899094967693899 1.1234859495260328 0.023447175279346717 -0.4195168755246904
Ni 7.713176357961167 5.829811625900786 3.1881596675514023 2.4193947050335884 0.8079306018866731 1.1959000416223855
Ni 4.371260121431972 3.014298283789149 4.823921157907216 0.4459035930483353 -0.4368340266468993 -0.96904903859897
Ni 3.1670364099917423 2.0010797428270033 6.473373159568884 -0.383019809039921 -0.17226108359267753 1.1620416983120438
Ni 2.8859084839343416 4.157141957972314 12.307102961146473 1.1527217064626984 -1.0321009727541322 -1.235887894869233
Ni 4.747338976225183 5.652923203890027 8.548128750158329 -1.3940649895650183 -1.278471276757398 -0.17758609535001674
Ni 4.091971050385346 8.929781693140608 13.73020605602041 -0.9862774866621142 0.33338903338667103 0.25059616915915556
Ni 7.564870343835823 7.0313949301460585 11.13102410439935 -0.6035484693897347 -0.34708529992684095 0.1309506548796648
Ni 2.172215849163033 0.2904617654915755 7.683501010097553 -0.7859199019435368 0.6229896088334819 1.2512654057665675
Ni 0.029474488316282434 8.848438291484525 9.180720334933948 0.8219408001228361 2.1577502484800712 -1.9194889467371843
Ni 0.37513773822872243 6.962989523745266 4.888830853782397 -0.6622279855088143 -2.455349268751326 -0.5038503447664484
Ni 7.814794314864243 2.943205320064919 10.624222461394073 1.9666589195547675 0.12018775993620591 0.061057529432952916
Ni 2.6273277493167386 1.197915024249421 4.500544830725357 -0.6561655813648183 -1.1094464407138311 -1.6092118167776286
Ni 7.7102813400724095 0.966577633868361 5.511374746178635 0.0059554462524865175 -0.04780914906347895 0.4944131106129485
Ni 5.670425331582316 0.7431171439514013 7.0882155499789725 -0.1832281241271425 -1.207582105946004 0.26712322027990126
Ni 1.4370604759069978 4.490144455384933 6.258217693282635 -0.21590401709360882 0.3850682069285175 -1.597627711484455
Ni 4.149484777106937 1.848935708243275 2.590997632319263 -0.2510931634002321 -0.3320944829449636 1.300704891344618
Ni 1.2032807088706023 0.1701327516019456 13.63926571721323 0.10131046341572875 0.3645299777658496 -1.4070791424364992
Ni 0.09467934399575727 4.686383290124451 4.229422161931705 0.3633760666670645 -0.6551682504485554 0.8823648097368482
P 3.799942014623049 9.310028619291574 6.353973946212908 0.49613703528259073 0.02275503430832855 -0.6110792305491412
P 5.853905341554772 4.23832504919156 13.432790589580401 1.58414561783762 -0.18723030330800014 0.33346848047435473
P 9.024666611696544 5.8301605368515474 12.28710376264981 -1.861371473769162 -1.6924186286141112 1.1322251291712435
P 4.367384380870803 1.83430973838835 0.5367089695010183 -0.22366900575100832 -0.4343184593138972 -1.6620343598952991
P 2.1094213080515263 7.908189289360168 9.302355407382512 0.13533207177681209 2.5014275511666275 0.09221287198983473
P 6.013301065898937 1.7746553958337035 10.503332360975515 0.7423196487550828 0.17007513168495228 -2.313784585801241
P 0.4150456069753654 2.0901086154255517 8.87945458900215 -3.403517093025912 -4.689366664525253 1.1379247506591823
P 9.182440371620949 5.45014936134299 8.67703720142643 0.15506657409126198 0.9846085836001236 -0.5323674783695348
Ni 1.3550003922979983 5.297816726245336 2.146454904965944 0.1614238837678575 0.9898531198285144 0.27309486448230386
Ni 7.318001701132996 1.5833767546104272 8.615591153989492 0.17629591578368345 -0.12418865356548288 1.1154625650009242
Ni 2.46882787741372 1.820475890691912 12.970941879069276 0.9994636463350852 1.181692896884068 -0.1371858371560992
Ni 4.8154614818550865 5.232042297013805 5.24023793234644 -2.1385070839797424 0.34575963913688196 -0.13481990802708393
Ni 1.9587955076048984 1.9319670844989913 10.44957461348875 -0.22195330861148227 1.1446569271766933 0.264201418647416
Ni 0.6163794845985817 4.4332814004363845 10.313764326413542 0.05093046830128003 -0.20485907213335683 1.3544702579915318
Ni 5.943462295592312 5.381083853143458 2.104263083995663 -3.0352991248855146 -0.6649186449671001 -2.6836364900006364
Ni 0.06218819045923592 2.2671950679759316 0.5209014174263498 -0.5661754280579152 -0.9257357205233153 -2.3264603814966964
Ni 6.376564515770907 6.327745272741283 6.953220960126493 0.9029477760945223 -2.0530832098872835 0.8571541147991754
Ni 0.7627778045255684 6.688085414647408 10.753407212415075 -0.0849883292169375 1.125213987960733 -0.879825331144446
Ni 1.2065057776587291 3.7037840425981154 8.341501799111791 2.82162296868116 2.7358291128437915 -2.1412231973593254
Ni 5.9421703820719225 2.93294545210737 6.724924753032482 -0.08147748785020162 0.9902891789246688 0.6188624740389859
Ni 4.710250685161728 7.391442741255598 5.826648795282253 -0.029120828625356296 1.5288445312724703 -0.6582821134871888
Ni 6.704814280232602 2.3642488924420113 1.0836646049236112 -0.5556745285265915 0.07068348255849118 0.4347066958912513
Ni 4.553382207704164 5.914889317732594 13.625753433393031 0.5182006999508495 0.45986262633158864 -0.14081597770951876
Ni 4.824476586420726 8.14463775366861 8.409903433502304 -0.4389631571747601 0.22970801285623665 -1.125901500946061
Ni 4.790424763631472 1.364713318765163 12.033992442936047 -2.908260403465746 -1.3041131456952186 1.0229239342405545
Ni 8.479545116271877 2.8285456376238907 7.019855407701524 1.4986019303378448 0.6487204379406827 -0.6308119330913782
Ni 3.631729216252866 4.065302937716275 7.124362724477941 0.5668256600474044 0.16412534185942054 0.5095314543116257
Ni 6.04918231367327 3.731432877939599 9.350868174577007 -0.5091897547014909 0.09717201576732297 -0.3848787166255307
Ni 6.834995784969703 4.431348245168647 5.048931944048643 0.5016780197054779 0.7955085740732364 -0.3257212324287681
Ni -0.04602795542352654 2.15092285114084 4.345329436772351 0.6497905310764099 2.476511247540922 0.5730626420960518
Ni 1.2726479778924138 7.663300952053558 7.18884524018908 -2.2271908597703964 -0.23978185215247091 0.6911984045992353
Ni 5.51389633504982 0.27184972377483413 4.672680519785191 -1.0218684963928466 0.6150952936870697 -0.8976793286067315
P 7.029103433901862 3.684914561179866 2.7610492857002202 1.653391596618636 0.21853245585539138 -0.1259208057652412
P 2.65647595874393 5.972780245482037 4.498240132445186 -0.31610196417144915 -1.0714079978838709 0.13716141167606702
P 3.521831696788457 8.900265712711262 2.0629133643200595 1.4701475316518937 1.2708736669157983 -0.45577225831229895
P 9.380668941782382 6.960716887552464 2.2505623886528388 -0.765301968582869 0.5524840466137517 0.2545415269601487
P 0.8943662690965526 1.723007145095196 5.99857796677934 2.1003945933787374 -0.5759530762699694 3.521688336752722
P 6.522550743574968 2.5086885960318814 4.55035516945566 -1.5590169410907924 -3.462113562512883 0.40401389479308486
P 7.776687581025589 9.178847531830668 7.574438990909835 0.03372541727690321 0.7178638297055637 -0.7124215756440698
P 3.3500354886536883 4.060559634791048 9.735289773103714 -0.054353635050216065 0.08593192407712942 -0.06701220435449104
