# total energy = -381171.2506342029 ev
CRYSTAL
PRIMVEC
9.21156734855717 0.00000000000000 0.00000000000000

0.00000000000000 9.21156734855717 0.00000000000000

0.00000000000000 0.00000000000000 13.48205993410753

PRIMCOORD
 96 1
Ni 5.399664012105273 2.4972189828529503 0.7814946105987242 -0.4075787293262078 0.15179175999473213 -0.20404068999711958
Ni 6.600060161556018 7.6363430323213235 7.065246140242058 0.05227309837210352 -0.5471824318951802 -0.4133685965351075
Ni 3.589185776477118 9.139191774517789 1.593026299056535 -0.7740578603986282 -0.044371327026523584 -1.1819973154983645
Ni 4.5148285153221925 5.737645618989394 6.877670079106029 -0.2562991330812037 0.4958899522687911 0.10379877705522123
Ni 8.406909039763761 5.785693152758099 3.129698073172466 -3.591056185823583 -0.9559004170321538 -1.244575909561534
Ni 8.341709568135137 0.3117056118543599 7.975864813217355 -1.3479375990793365 -1.635925321513073 -0.43434725566930354
Ni 3.371065080137168 2.995454221825677 13.251044629272608 0.7304246970897098 0.6804511933850604 -2.0501071579780947
Ni 2.4213064587371718 0.6021831674261313 13.077004965926669 0.09418670788675393 0.4073208476791308 -0.7946189723794316
Ni 6.5386927018230585 4.381712159783166 5.051215301574415 2.2052668060037957 0.2178205173900313 -0.06938636101362244
Ni 6.095220229003505 8.498923383094972 9.081029940120626 -0.10392219000696296 0.9997189568790008 -0.17774550374601647
Ni 8.530519058100083 9.081039151687682 10.316499131140457 0.8777208832069335 0.18000884585889643 -0.07119924585264512
Ni 0.5577226178693763 1.3462428906623858 4.938222535427856 -1.0838796479883204 0.6172776460503692 -1.0425306527278884
Ni 0.07578908911721653 1.9654536397931666 8.98918969540679 -0.06601075967317017 1.672115912501017 1.0160179511493406
Ni 0.4273153842017791 7.347173519271629 4.134475542289818 -0.0014578154924491024 0.8110174683421129 0.17661601812726357
Ni 3.409726027074909 3.530554152160053 7.0953246701529 -1.0371655317612332 0.29438231310617047 1.2558815643823402
Ni 8.350147363559243 2.4257464340585893 6.781395386011009 0.3051675766471325 -0.038905675926262026 -1.063496456346278
Ni 5.896499092885353 0.4193777768688624 4.624090596810713 -1.4745104366062798 -0.014176034390065907 0.1699990270313782
Ni 2.633734406635967 5.4796112025919665 13.03697610128098 0.2271032282435379 -2.0575659282489855 0.09532390681499067
Ni 3.9504634364480973 6.435956094437635 1.4010425030837872 0.20674651896405685 0.06733693468376145 0.31351337750866654
Ni 0.14090749895573895 5.319504955576271 0.7841908362762741 -0.316629554540145 -1.2810778611423097 2.429166696818687
Ni 0.8128848676584668 6.901950848711269 12.983277271122876 -0.1848939418653396 1.2779300595419476 -0.4188897834636528
Ni 5.953997694454421 5.979375561696136 8.805510127135822 0.34549352995968885 -0.15308605332612343 0.532917951556366
Ni 1.0674179674175723 3.4888165418253125 13.179455093576625 -0.316053627432017 -1.9238063431656158 0.8442281507661268
Ni 4.337072905825507 8.255562993019161 6.646655031199853 -0.39664999822884595 0.3531711011096047 -0.7072986525952076
P 6.329147974413068 4.749741898406841 10.994713651897401 1.2537020402325183 0.40147364486973436 0.015680386849734284
Ni 9.116439203887287 4.980878538998168 6.45996880744152 -1.5808129539199614 0.5671457623909846 -0.8060678376463214
P 7.68870157947265 6.4594363788656315 5.6678035175641 -0.3047276608962365 0.20990331942548365 -1.5085107048111246
Ni 1.3976618579739106 4.284502492631872 11.062448146780076 -0.8013542342207359 0.31543322023919873 -1.9350649467985706
P 6.9793740698243765 4.34386183074643 0.9738487115671588 -0.008254269588992237 0.6370455727059159 0.586317450223429
P 2.0288660674127543 4.2186582113092665 1.6281343445804357 -1.1603180307527177 0.33998339877473704 -0.3055218746627577
P 4.760491797162224 2.739989832637121 3.956566099623283 -0.7032676770589437 0.6952232094879123 -0.4260240805155889
Ni 1.8522342690970088 8.782510686508195 5.257976293419815 1.2571478326892735 -0.7620742056741908 1.3072262374029036
Ni 6.629712195912127 2.8619325573361474 2.6435622275289563 1.0117414352611738 1.306167714231402 1.066105354724035
Ni 2.7526096795050514 7.323591907606008 3.644726920046598 1.234766636780596 -1.5581957307410776 -0.17052944561355146
Ni 1.7833593822126892 5.912508796430217 5.531014510239494 1.0657991363375259 0.19311118756880935 0.776636933979714
Ni 5.671377605582172 7.703799337878883 13.140046167393864 -0.7445606222704596 0.785984436632885 -0.552016877169346
Ni 1.274291340381067 1.0514635332750497 7.0660143849346015 0.7215826733180476 0.0750777549714449 1.2700946226579288
Ni 2.3021272041552097 2.540365962947394 9.176739042998353 0.6471546361154596 0.40202283250498505 0.011580248638431668
Ni 0.03853290615565031 3.0157196693508213 2.3691349063970994 0.5698284514294701 0.4481221979662089 -1.3963422156349694
Ni 8.501198640158023 4.411161539664024 12.014146724202254 -0.9258205669276379 -0.42364735275329624 -1.0258434218801946
Ni 4.7080227112062145 8.446970144894149 10.941041535283762 0.6568417814962365 -0.37974010984738465 1.3355014301985129
Ni 6.9930993047391325 0.05767914828338313 1.165417987022347 0.007908199103483156 -0.2210048286552839 -0.12543023928206787
Ni 5.237660182275858 0.9943702406564844 2.477867322779849 0.35821431996046693 1.0958928703991127 1.4170136279413919
Ni 4.0869420139628865 4.156120882560083 2.0713295492315766 -0.2761552485751825 -1.3877354478025647 0.5476593715315987
Ni 6.015705982168485 0.8796024055380643 6.9726781817307275 0.6925739447905234 -0.18913600497114524 1.2106057232636764
Ni 6.74459886024558 7.042648323938111 10.811667839439945 1.2554902424811927 0.16749914342765992 0.9910669376309578
Ni 6.982506002623717 4.234308663738912 7.379904059338148 -1.6779500026842908 -0.30432194081738556 0.9104322573970255
Ni 8.248552990488873 7.236266251906749 8.861447368088749 -0.3488282507598766 -0.8688204953935101 -0.9032987316760378
Ni 9.183582316164912 6.526459740771517 10.814836618507515 -0.05806168002942258 -0.7868760952092191 -0.21270376498875626
Ni 6.475694794721031 6.581305411028203 1.5426979812845452 0.60450646242763 -0.2588956901637864 1.1438012640446171
Ni 7.13765642656281 3.00082456541984 9.855048442895983 -1.0536311335164241 -0.5501083472927236 0.03659476840489826
Ni 0.3046338918247903 7.536710723034069 6.807536892161739 -1.1684105779528653 0.5143869826317141 -0.33146199156728723
Ni 4.655350970774953 6.032636842419038 11.119220876865063 -1.1869837129693621 -0.23629620759671563 0.5313498357382979
Ni 8.200026455233209 0.9101746754431558 3.2581146871990714 -0.7227633238897101 -0.5550656912979989 -0.809957916729347
Ni 5.562681114310943 5.3247187025304665 3.342876763786398 -0.12387317920759312 0.5076339801785967 -1.880548303807929
Ni 3.1941016654073744 1.6354400384132504 5.5219954649341 1.1822788512945253 -1.3772237496379636 -0.4647603207435222
P 8.939825828705656 8.097520137024206 1.8378071127725173 -0.4996350211335202 0.11785679781018413 0.43876389667976046
Ni 1.2030030229278437 1.5807878110647593 11.191417454830095 -0.7372376062464852 0.21214069339643465 0.5585215110570833
P 5.19035878543876 2.8659856468411764 8.282595257704292 0.36745203650865105 -0.1450259020258083 0.24835673830567548
Ni 1.3587614102926908 8.556329868993473 8.882856892242357 -0.2986986810933372 -0.4744875753336151 -0.20080418533769287
P 8.41338477140475 2.2689747743174853 11.582841810308139 -0.4135388035643846 -0.8654320385372515 -0.6749996833521859
P 3.405129455113524 4.056884670656276 11.26972130175384 1.313685619875002 -0.12312061731228474 -0.0025628756311697797
P 1.0276332092988916 3.7124641783993924 7.600618732961317 0.5175093303107796 -1.2428373296038726 3.5310872614691187
Ni 5.088948643709528 4.91684893638577 13.376966750940209 0.674277974694813 -0.05604310693749703 -0.5143340179065916
Ni 1.615036417382253 3.2058740481060717 5.708937770256615 -1.2043417446318354 1.8905324116038345 -0.4483340568666988
Ni 7.7587739700743645 2.459921347839628 0.21928135378911706 0.5691008292348264 0.12857135601421082 -0.1595822025734284
Ni 5.841902134939203 2.751145040343007 12.027372692182526 0.0761560756372882 1.0979515527003543 -0.5939582545981384
Ni 3.703971113572946 4.781024380132019 4.870825183899461 0.47586568662806433 -1.050827602629358 -0.8803619203742064
Ni 1.9080932117299516 7.679370262044028 1.4762724500806508 -1.9649316524510159 -1.4311333551722256 -0.49287841913597696
Ni 3.132596032168562 7.654701685465692 12.961652196300136 0.9256115362406252 0.6668030064740065 -1.2909940918147573
Ni 2.462159758634451 6.457723027393051 10.284007170660711 -1.6924631086988013 -0.019003280575380175 3.248051740834335
Ni 4.556639818193388 1.8804032411569593 10.158097945186988 0.1488326773664082 1.033946510603303 -0.13663767796211307
Ni 6.4878724863702315 0.7112591752601028 11.042225072463394 0.7974554133869621 0.03036395700383803 0.7526130602612909
Ni 8.6127046593816 4.586079986507188 9.109180489046462 0.975933938644261 0.6717711491125592 -0.036718695577272246
Ni 3.7475602488861197 7.523400008636872 8.979577425182931 1.4676499620410208 0.5394277276504258 -2.307368140751936
Ni 8.266487911548625 8.47741437401715 12.605024535379473 -0.5530062376658089 -0.22502551977890278 0.02220738933497466
Ni 2.196912685231484 2.8111399765844904 3.5819675925313437 1.0815242603822663 0.2877786917467237 -0.5178322608678372
Ni 0.15153304155585434 0.7742469496383682 0.6667728333155886 0.7449100351900784 -0.06176406858167426 0.5716667901897896
Ni 5.4885556342042 6.937599613221409 4.889268583460754 0.4269193386363486 0.05548286355865283 1.575333418862629
Ni 7.451687959099033 7.8674520382114785 3.645063142244174 -1.0960170546818027 0.1799725933043223 -0.3775801260815885
Ni 7.797352012908593 9.188768428417937 5.72858143700542 1.7584332449420232 0.011926062013624622 -0.5125599567253043
Ni 1.3942627897299205 0.23610075407828107 2.8774761555879333 0.10596827390271428 0.7844176063663975 0.5457539269787698
Ni 1.1245296831702514 5.132206162608654 3.506103889720966 2.8585604651374577 -1.569359203557065 -0.6198940006272936
Ni 2.9127804074901458 0.2494704225046421 10.399183999356456 -1.5804488857123231 -0.07505358660172881 -0.14670354683854736
Ni 5.089722415342306 7.889467683477431 2.8285903692170513 0.3451315186345798 -0.19882649278603176 0.5415967102772865
Ni 3.7850144805394086 4.7670596444737825 9.101576340441005 0.11285985881622498 -0.3727055715981065 0.4786548193374273
Ni 2.302679898178623 2.0264802715450214 1.4332369299475958 -0.8234263835294271 -0.6736051169975045 0.4078684926524846
Ni 7.400130818281654 6.011247583712954 13.085916235897498 -0.15599911320786036 0.9751009012200046 -1.5323294044972773
P 5.373189968383788 0.7448979758384309 13.027215524827506 -0.016921458345686986 -1.189050365690404 0.012945247306758351
Ni 3.8884695901552697 0.8693259813294048 8.07747945173525 -0.6727486825344801 0.45406350315130833 0.17778329896248737
P 3.5956799312522207 0.05403044657215149 3.961730104115372 0.5044548111196667 0.1791675809045237 -0.23767509022211328
Ni 1.381956136141924 5.867620830162022 8.40266619197736 -0.2075031946244233 -0.43093797287743846 -0.688240607522492
P 1.1993828770744883 8.226528133655863 11.355102395647389 0.7427806475519014 1.500395789013474 -0.5380994957573055
P 2.4320102996572706 7.294299124365117 7.017977905046365 1.03332044698353 0.49175741815765633 0.9510438602708007
P 8.287131033323101 2.870038736346205 4.195967358178045 -0.47429705658936383 0.5323445955513993 1.968124705467017
Ni 5.245867688523542 2.829701284204112 6.053835421687045 1.0067768921670468 -0.014736020658593975 -0.48736803084070907
