# total energy = -340866.2096739128 ev
CRYSTAL
PRIMVEC
9.22366956353327 0.00000000000000 0.00000000000000

0.00000000000000 9.22366956353327 0.00000000000000

0.00000000000000 0.00000000000000 13.49977274903654

PRIMCOORD
 96 1
Ni 7.639688603942605 1.357013904255675 3.3265735340906284 -0.47979561781008984 -0.05810564589348058 2.066798245480531
Ni 1.8462281023607758 6.0524242419615275 6.980286638117962 1.2476949148064898 1.0391717635579845 -0.22601693715789464
Ni 5.706619654749131 0.24432024293608762 2.0289886537571804 -0.05415591721711318 0.8074135530409386 -0.8038644022370993
Ni 8.46327926294829 8.997274375697337 12.640768576463286 0.2784604996695914 -0.4138691903206098 0.4472922458657458
Ni 4.587318156714626 8.260100274734729 10.318551173096584 0.2976023627053649 -0.19172896250930208 -2.917363908428911
Ni 6.500574664166557 0.023591379069994086 11.132074197018053 1.1175135339926818 1.068492881119605 0.1476736240613005
Ni 5.279739014041309 2.293170223882312 3.603642415017104 -0.4194767663153744 0.5436700478665476 -0.20939938320587162
Ni 0.8330827371231078 7.4356056961337575 11.572679657703256 0.5373446198691519 1.7989186066505793 0.6835133772501519
Ni 4.693565603837925 6.806320855436902 7.9605459326920815 -1.35517036938235 -0.3936482352880446 -0.4445889880019698
Ni 3.629993515953518 6.774702116940621 11.93419030906719 -2.8245067179868584 -3.750855903724456 -1.1698807347404885
Ni 1.0373307486131347 0.9378442511157911 2.323985580779111 2.5597445417399656 -2.9545145493372793 0.10165113458459912
Ni 8.04252313868199 2.08971452558856 12.934334912370637 -0.633886972472276 0.73946675268732 0.33758815906968315
Ni 0.983040230880021 3.9817012515432837 13.352746379890805 -1.0711709421724003 -0.5920831490626125 -1.0879342776736685
Ni 3.6027744677322437 0.7224724944021597 8.263372832616431 0.4785211219730404 -0.8061426567483149 0.9060922352607751
Ni 6.770200966302877 6.440676155474943 6.75583971314106 0.4785494041078146 -0.6199081416946808 -0.22140643496907675
Ni 0.1403971604863776 1.504601837359235 7.510800738058229 1.262587515647606 0.6528200619313531 -2.6145293507903293
Ni 6.114905378068241 4.140053206766202 6.220479497329746 -0.4216272369994739 0.06228883073689274 -0.1397152884461723
Ni 8.77764036138186 5.492925683488379 9.91500272635031 0.08833616264324787 -1.3233498824376435 2.90147809043659
Ni 1.4827048463469326 5.940624145895766 4.672230334288407 -0.6405864959796387 1.6831796265143466 -1.0536740709392176
Ni 5.932848592642451 3.4536092871716058 12.276639325373829 -0.466503528686874 0.5413539981388612 1.1512793175892173
Ni 4.186088540440339 3.7013847166423215 9.85718323272785 -1.5056858337678198 -0.7807123896006684 -0.7361220045848033
Ni 0.832643690462541 1.5564480827173446 4.507857167720572 0.7395217742949716 1.8363433271559408 0.6181438507054063
Ni 7.873185793275561 6.190954531773563 2.0828124538217083 -1.1836621047952969 -0.46435357222340673 0.26957322448229054
Ni 3.3789252365285503 4.212136182655479 12.331165046675101 0.31584999606164316 1.1766165108024251 -0.09881597912864917
P 0.5990505749684532 3.871819678700167 4.020691546575805 -0.19678349421407398 -1.6110126174317934 1.6837020746767197
P 2.753477442276985 8.60881954145845 11.413896034755242 -1.0457717853730055 1.5683418180361441 0.3541820588726223
P 2.801329838811031 2.2494869258897827 12.569624570112783 -0.2506473341120651 -0.8058264110594767 0.48547492758305427
P 8.848957772715947 7.901207300729384 9.879038717228125 -0.8509197038536894 1.1420261744220654 -0.7554371599736474
P 6.026902348898747 1.1263852760873472 13.27074888182835 0.08895554139480165 -0.7447002331721174 -0.2213583553399607
P 2.365446896827722 1.3673444139160704 6.233412004110853 -1.0232039273748186 2.028185161094023 0.6928945613547357
P 5.271216343571482 5.600012484521585 12.4468713667062 1.6546714917723244 -0.5461478199830787 0.3177829514182979
P 8.026326375321583 3.232259670358954 6.104583169710251 0.4164156108915474 -3.018870547015846 0.8295690060920551
Ni 3.427432513585711 4.62702605322177 1.776691781576173 1.3604563003716377 0.0879407269770421 -0.9950228369549121
Ni 1.0442300532791846 1.3664497179901254 13.489593350048354 -0.204051488630397 -0.25701312842909285 -0.36852084409279756
Ni 2.731211504491097 5.677998608788231 9.825444586530155 -0.5104452243751468 0.32907909315740747 -0.3990673494210869
Ni 7.917920589572808 6.8938627011394145 4.602869263221257 -0.3789566947141409 -0.13437382162860081 -0.7614134321617403
Ni 2.2000480582293194 3.016222887085935 1.533627802404144 -1.0107721293693688 -3.695914000270938 0.46507142422603776
Ni 1.2656995777932512 9.181895341199548 8.919555737841542 -0.9420149172993131 -0.5444004982746689 -0.07562488572416654
Ni 1.3395903928730974 3.444533196541401 10.443936811732696 -0.7811872723545579 1.3590805030700335 0.040416456143833615
Ni 2.894405886117326 9.030313559271924 0.29724565760693494 -1.5076964364399454 0.1839547178805219 0.85077289386318
Ni 5.734262991760027 6.3578568284743255 3.9228044333419545 0.1754687918966978 3.348184381891879 0.3881496740673186
Ni 8.423359222046335 0.2943448135996185 5.312052294838865 -0.5223347767238811 -0.8300235771309704 0.12037493624634753
Ni 6.671802861787611 2.6502184640197286 1.5478977412394992 -0.24896223310015833 -0.5309955377226726 -0.6428434103346156
Ni 1.9881711498284766 8.60322999783863 4.262377509548491 -1.48666789790442 -0.6181582488831096 0.7015185555783209
Ni 8.452893411271857 3.472213428229657 8.578403569444058 1.7768672832774948 -0.5458894241153696 -0.3194168874772951
Ni 0.5558229262413023 7.427221380704027 2.7790768141622184 0.18916762954002905 0.4036585683361951 -0.6740756288760197
Ni 2.3066460047875244 2.5697327253620412 8.2495760680182 -0.6274345319787129 1.2100621920553805 -0.10555766872785693
Ni 1.9990643033185902 5.991354327263779 0.37771387129287753 -1.3535564879280109 1.1543412443439927 -2.4626499161777975
Ni 8.880899339639114 5.016412478063961 5.873211113793148 -1.8750708256331254 2.8302266511897707 -0.20789528785651937
Ni 4.817153549319745 2.443663612827858 7.7113804962518815 0.3768172797736349 1.8536738480145882 -0.0956560933434288
Ni 2.822313686558709 4.342438959416556 3.9494525364311044 -0.07541354104430883 -0.8461634201156265 -1.2127991313705693
Ni 3.6893939465007914 3.3359429374058336 5.729236091969924 0.6852568423038199 -3.429970659231751 0.6682788196885845
Ni 4.451149126253538 2.231869717451073 0.8660896378550051 -1.1227878950177437 -0.20114485650656327 -0.32259477098464445
Ni 8.564259994878656 6.295772310149218 13.411929131841662 1.4919702839539402 1.503790930737952 0.7581427318302685
Ni 8.16148080215531 0.8638648888102843 9.278177535968302 0.411286260084782 -1.3299056812782903 3.040226386983803
Ni 0.7063735019367542 4.958958241747351 2.3358795023925754 0.5597245302262489 0.759119493921241 -1.4815318622294356
P 7.002406841928283 4.963662313110567 8.673644411944366 -1.4601706229448401 1.4317990137806824 -1.0148265019444005
P 0.8214028046383233 8.096813656415103 0.623265474085807 -0.5113183710087195 0.9122523413248999 -0.36364448983710274
P 1.1308679793864116 4.7475332931441505 8.398032870773555 0.2164884288421691 -2.246310354208667 0.9075320530310952
P 5.92114375625045 1.7469814202662626 5.652638129938895 -0.5153555171925704 -0.35741470687730703 -0.05810564589348058
P 8.496438354224292 2.407672855064588 10.859379180092434 0.9648239447740287 0.15227332761684098 0.037975965023141045
P 0.2692481316933954 7.531919251378266 5.736809646864701 1.8690896683490261 0.7306010747665741 1.0783090958790784
P 3.1857816005565143 1.2530815981366252 2.9064197154322056 0.042854633271681035 1.070521995734492 -1.313045672298158
P 3.9725698188970413 4.612203616592971 7.508438556340348 0.1879137025282699 -0.9350192027077704 2.4050222383619997
Ni 2.1404539306259127 1.300380574510293 10.667736235121957 0.6328765289298908 -0.05887749106249861 0.3024856589395952
Ni 1.3554458804679363 3.6876783440036185 6.149862162498537 1.2350599996512988 -1.5709792556589912 0.35649450905588276
Ni 5.903351298094286 8.687562006610946 7.088271824544849 -0.6836825558381645 1.2099511203988131 0.07189035838239877
Ni 4.7886800820682796 1.7794856310191496 11.017272718949172 -0.9502560742621828 -1.0266983136813221 0.2897198746334946
Ni 7.479261323118267 7.121862583545944 11.446240676028554 -0.7343651697946965 -0.914614156688857 0.3492650811869792
Ni 4.237870220113071 6.640488504379538 0.7538006873142427 1.2921886263434905 1.1280637987047026 -0.07752621651193745
Ni 6.583347872820474 3.105544900970997 10.026335182380551 -0.10978276255279804 -0.07128923446329014 -0.45942862411796365
Ni 8.102310963341528 4.61887232952553 12.089504909976565 -0.40949702939484317 -2.011487645833684 -0.9259195543993474
Ni 5.319234766153642 5.627923307943332 9.895683750918439 0.34383851085476913 0.04513083090036743 1.8295363315364361
Ni 6.129414209939492 8.976327422627019 4.48671651759412 -0.2024185810126643 -0.18078403346202415 0.9316281747483504
Ni 9.077114457501251 6.537100394751526 8.123785510298076 0.22028980486613028 1.132497923216656 -2.8473548262296253
Ni 4.627385776326016 8.51386186560687 12.556975229980402 3.8155476874758865 2.9277151697562482 1.6624580776962787
Ni 8.19573751008273 8.443476044876085 7.3415002873291595 0.5350095439780721 1.1150473318403764 0.2732501591132455
Ni 3.645415491089394 8.443005637739764 2.5946292536435935 0.21953570030892514 -1.2701884679233155 -0.34430542318885865
Ni 5.56671503820549 4.816710813191442 1.708288127386478 2.423494071913942 0.09907206100351325 0.030181151569070603
Ni 3.8800471917511246 0.5732215337166628 4.840910032070918 0.7656472677374299 1.3445100614550265 0.5593890012637012
Ni 2.537689698076136 8.51262589391536 6.684763039576737 -0.5953301952450005 -1.2131464874076592 -0.6116397310383015
Ni 6.974117848063611 1.6877746867751213 7.6523056612322975 0.594117405883822 1.0488067155445873 -3.203343599293683
Ni 6.491664599584466 7.786750787893806 0.33570835875322863 0.394334719832108 -0.29856061285357616 0.19608338282325583
Ni 3.922845017487049 5.547087069850738 5.707744020041632 1.1655347990669667 3.7123829444602388 -1.5489482440008808
Ni 7.58697533366657 4.207118506534716 3.48961019097115 -0.26850544533940857 -0.10871112675517405 0.8499059178771944
Ni 8.242501513634696 0.05457368438184072 1.5966042495543957 -0.12363483794454193 -1.009486834899042 -1.2874369705911182
Ni 6.869521437752107 7.193899441088524 9.081269720538758 0.3306163557375403 0.9870133363868744 0.03022023233712215
Ni 9.016487278931805 2.632186190460735 2.114671930087755 0.17299050555953432 1.6285166877538275 -0.18158981719277112
P 5.789669573483238 0.789771153004966 9.07419608852219 -1.2106517460102633 -0.6172023127277436 1.9218571898590453
P 8.122289431131186 4.1349063992746835 0.9803828917432711 -0.3578507659734611 1.8926962520243726 -1.7008081382293867
P 2.6324629005409244 6.391080485435705 2.268204518080712 -0.6941310048649981 2.672108948977011 3.321660110349105
P 5.100274079699957 4.5359607658315175 3.840725766989311 -1.4043440028935235 -3.6710486044878263 0.11857362137155064
P 3.050996120496373 8.016152668039961 8.749701866952092 -0.4524905022372336 -2.3241672145871455 0.5437914039357602
P 4.458315917330438 7.883018224791616 5.650451197938466 0.5049479487060013 -2.3367355381704593 -0.33188082427226073
P 1.1047926661632528 5.47300255771476 11.571802486749057 1.0328774459088406 -3.5104901540440574 1.1777994753669327
P 6.975316925077765 7.916002066350163 2.8527850005891398 0.20582992068705844 0.8206321086137416 -1.178087438920997
