# total energy = -340889.7563660168 ev
CRYSTAL
PRIMVEC
9.13072775153091 0.00000000000000 0.00000000000000
0.00000000000000 9.13072775153091 0.00000000000000
0.00000000000000 0.00000000000000 13.36374301246784
PRIMCOORD
 96 1
Ni 6.383154864914472 1.8166496090223412 11.394448917872086 1.1720939403417234 0.9949055946507577 -0.03558201086966775
Ni 4.4532933615301085 0.12688059392327328 5.566332736277128 0.33568220029622187 0.452089410144073 0.7196476610788638
Ni 2.6034718183020065 1.5273790206455982 4.707364994122869 0.8437139301338694 0.43520677545612146 0.809641928150825
Ni 3.713393962567923 4.42261411602189 5.243317717059694 0.3465661941985773 0.280215277577169 -1.6852750755907944
Ni 5.099274094034695 4.850644375228511 2.5785878457473794 1.3352214370642488 -0.8779774793024299 0.1374069520279698
Ni 7.59948651130919 6.041273022782266 2.7583435714603968 -1.8070962573653653 0.43545231580802424 -0.5920538384865739
Ni 4.707949360703977 4.516651481941277 11.356442263280433 0.7642804692968902 0.6271928482815521 0.20807655062939004
Ni 5.683038047106842 7.8892045053495945 12.513194084439967 -0.1079109994513819 -0.2532675453437315 0.41379925631462283
Ni 1.867526024490136 6.251005841033389 0.7106317639764584 -0.5157465819834022 0.7246960221360487 -1.1058929190346178
Ni 2.552339742454976 1.4942253478954968 0.5280309034716671 1.1454539691566916 -0.5306854626814216 -1.8087749306193688
Ni 0.5332956811383452 0.07268698503490224 4.83890408538492 0.43137428908390874 0.5147399950957586 -0.10577107029024364
Ni 8.821095718389548 2.255655003080414 1.304651350547067 -0.8433346924175799 0.780085811760263 0.8145982437148359
Ni 7.105413697709431 0.7233435632611432 4.777417764178867 -0.9363024402955682 0.016894975983125744 0.15898262131621652
Ni 0.845353826959987 7.712543183298106 2.8214204654544064 -0.3557437469327873 -0.5201310842043428 -0.16197384273405652
Ni 7.460955108675058 4.109585373831938 4.242026581003576 0.691969221326989 -0.9991016350099761 -0.7488227399809233
Ni 7.6632007301057214 3.9659225021574427 12.716069726090888 0.23516312243353696 -0.3801406877199131 -0.8408240101805841
Ni 8.003174250121493 -0.24462772079837083 7.024691672184282 0.052056868596239377 0.1662768409847846 -0.049871173798830236
Ni 6.943799815121498 0.7214927647300374 0.3404200126066498 -0.15186529354514489 0.053104593134463376 -0.5831431662605053
Ni 1.6019131519204741 6.820735865431092 9.556078220415372 0.6224494200592958 -0.5701981760640631 -2.0295360186949627
Ni -0.05705974435415367 4.8226130407909436 1.3414390529734392 0.4395640239835527 -0.9904691561459588 0.6185680827270185
Ni 6.541554731306308 1.800679966047974 7.117502781356122 -0.6179885560744647 -0.12230583472047325 0.21585748012638956
Ni 3.658801340873388 4.41682523457778 0.6707277441417664 -1.5191311606394484 0.20611891268238694 -0.8692568115999804
Ni 5.888050279069943 5.716776086438052 4.733464266551646 0.27471105992948813 0.40832460635329676 0.3271420240356947
Ni 5.626372750194937 3.029694193398322 8.990270756693363 -1.9207649852361306 -0.7541680634532366 1.5987811083626078
P 0.32977814932098665 5.543347042038322 12.645989563851401 -1.0462027022628368 1.3700616846718856 -1.0634949136843814
P 4.0805313978774285 6.139875752616566 12.811499528004322 0.20219720903047758 0.47722348620753946 -1.6164852105105902
P 2.248076498981658 8.355163807961317 1.2479495307238422 0.39082285002410755 0.9889987422480193 0.4649567530250444
P 6.351854729913826 8.065966265407212 5.852103516676698 -0.386946654898153 -0.8670893716350164 0.020102427176829897
P 4.900571195002004 0.9079413139423178 12.775805686771964 -0.5270746054017116 0.021478738699066236 0.6252094993029361
P 3.9962365185524678 6.226836804467838 8.247340869164457 0.42591995083755685 2.356333000686413 -0.14584942636836817
P 4.886126383575218 1.10342106605108 3.597546027081429 -1.2150020525591592 -0.1520918077336542 0.05806245136037098
P 0.17076469801898686 5.757836969488784 3.937065749924058 1.4498378735602642 -0.8215713325985593 0.18576374606480264
Ni 1.5775615007983264 1.350398123120065 2.583398826240915 -0.9058760054849109 -0.8439077913122304 1.3353363653755583
Ni 2.2182281497059537 6.527867770289396 4.926317108263766 -1.3760482412726238 1.0167316893869134 0.30759135559727674
Ni 6.038022483674849 5.68839778434295 9.211186890390456 -0.36031593968450204 0.47873555197669165 0.9825951527145208
Ni 8.72875666784651 2.5352652814132 10.315753862784177 -0.4408688588379053 -0.8591698596776235 0.269843961645174
Ni 2.335850185609783 5.243923084314812 7.173617495379889 -0.9349191867947962 1.023016493954361 -0.23349241959933334
Ni 0.42985640477258635 9.099802054667181 9.068061818585138 0.6701806646969877 -0.5271486531727567 1.3996352845639444
Ni 1.334693271252763 1.0843652370702315 11.56025289146113 0.8875196144649102 0.06057827580368923 -0.08132733542558251
Ni 4.015447569906423 6.748959213960823 1.5425369419158936 0.733902371225665 1.5095797695055873 -0.3592918692953619
Ni 5.72686554069001 7.8193179145400995 7.9319162239919585 -0.5069809199756301 0.5633348732853266 0.7426700901159662
Ni 5.503765336896023 2.6708474589582982 4.985036818937383 -0.4505467482473015 0.3773350999503179 -0.22629461629931352
Ni 0.7377500256310441 7.4461450681350785 6.921616711858934 0.3679914539518888 -0.6543750651232988 0.17510652346127265
Ni 4.859154213565909 4.51171175818534 7.33078836580583 0.5511370456675541 0.6558084551357157 -0.6057830151472082
Ni 8.207118186928504 7.197387519139276 9.245959441184786 -0.3320960256068603 0.2757140472727058 -0.42593563456684064
Ni 4.715199158600861 0.35533140422553994 10.615476395307724 -0.8319097384100897 -1.4316545177830182 -1.0289611415735698
Ni 8.183305248748315 7.490273875736632 4.744690496418419 -0.5013828570625624 -0.7122873640590508 -0.005649227865977368
Ni 7.329408712830743 6.29099842892803 6.848878594748183 0.10084843617764566 -1.092830943644337 0.40616230859465535
Ni 2.2306733317380076 5.2952195132627775 2.8807418910920077 -0.6327536301987812 -1.2102879349129412 -0.8999884363558822
Ni 2.326125960471017 5.536937271101784 11.611756587930833 -0.1351397532603479 -0.6521505466681543 0.3065734558557236
Ni 1.064615472774316 3.4142987110462863 4.0234625227954455 -0.49409892180663934 -0.031706329964345394 0.018215494566762178
Ni 3.958910103184136 2.806493551598205 2.215494409793704 -0.33951828621286045 -1.670620044681781 1.432275953417101
Ni 1.203311228509385 3.362070947859677 8.286014979960472 -0.42135881382943563 -0.8816700976626686 -0.9387976959135961
Ni 3.8877269490228064 2.4262900447642175 6.969271806548366 -0.31822595249298746 -0.905948253483743 -0.044902774049961375
Ni 4.338857949638888 6.832021445028758 6.0258585280599535 -0.546494147578904 0.5669570434189461 1.1416783041643435
Ni 0.971463787454423 7.691085972898013 11.597176641732165 -0.9061179462923878 -0.36326242390733565 1.4675895411167308
P 0.07232997357675602 5.6400688419396765 8.148876013320388 0.8762090745480975 -0.2825374979524425 -1.2813966779343093
P 8.691621997762605 1.6002513594554457 8.122563081860394 -1.304873678010327 1.7277219319010955 -0.0421465514610629
P 2.0947167943518865 3.3929236771966615 10.698157875025155 -1.0651671591804817 -0.703486477937969 -0.0485380568097035
P 3.95552260315927 6.332287580174507 3.6537812667125498 0.8815315152022755 0.1656572051229147 1.916782346439299
P 6.752246275979561 3.912352521979849 10.688576089240536 0.2469410889050715 0.7459179076293024 -0.25338787297167975
P 6.347179797264954 7.746956896488723 10.35210329027472 -0.6679368629681336 0.15356993494107743 -0.41911501210058144
P 2.340114235506312 8.681450366960176 5.953681037637955 1.2737291340867225 -1.4175944401455263 -1.162945955293868
P 6.96953933687378 3.8995055879232825 1.495228814883995 -0.15592815076060887 0.7969424783062856 0.33280487874842685
Ni 5.370118873650847 2.9788634315696756 0.007482631456543066 0.8110979438710613 -0.20303590288168905 0.7004034681372712
Ni 1.409565239457343 0.9906931002640381 7.119119833254785 0.2636308908559266 1.770148219386106 -0.0333754901366522
Ni 6.941352780063103 0.5013052631137641 9.25892233548479 -0.2867808466098287 0.30175880807589966 -0.05602279522252287
Ni 2.6405882269302525 1.5425268981152809 9.48885871520497 0.3189823710430377 0.853278433893853 -0.9410224714790568
Ni 6.497325485698626 2.0637179733696245 2.522206514470982 0.4967289032303187 0.203239791362379 0.03408460038853485
Ni 4.161721829740249 6.904044626150432 10.440611087420363 -0.04198148663810834 0.6004045244441144 0.009636751758815662
Ni 8.356606462958428 7.0814637986117965 0.6359068004899389 -0.02680066513261191 -0.15825988421757906 -0.8993536309853608
Ni 7.554910298043976 4.032293762752454 8.56702773808792 2.4335465710539377 0.2600660563228037 -1.2975000112540749
Ni 3.216819329542792 8.456642717062012 12.578542703518035 -0.13019577899151125 -0.30415559044285034 -0.009163411666822928
Ni 0.4819554246967951 4.734410209954816 10.053811542802109 -0.5502309889135168 0.9890133975360387 1.5767542104695553
Ni 8.449192043152873 2.390369761481679 5.844325962711252 1.041416079507471 0.009994906429182786 0.26613694510723196
Ni 3.7410874600757875 2.4284083736207367 11.606063579128937 -0.18235857703799563 -0.6901421954205792 0.4677587412502138
Ni 0.9096962398312105 3.4039718578707525 12.767319588326924 1.5342317637263125 0.022328488293871223 -1.033218374188027
Ni 3.2984480363414437 8.614640831429334 8.139495103548024 -0.29867862648867916 -0.8912708539772263 -0.21735514771783856
Ni 5.8063485264486525 8.148106292964334 3.6705662836821205 -0.5780258996385981 -1.0268998881691669 -0.7622019895013067
Ni 3.263422564386228 8.540426275628501 3.2429523856645397 -0.7989566805228369 -0.27009361576213486 1.260899843532538
Ni 3.2290453741069305 4.625781940963366 9.337434724875122 0.18642631934946602 -1.0078739818859674 0.6900455219417148
Ni 7.562990992173372 6.272883064913653 11.389076397617018 0.6110779449975605 -1.153546002136207 1.1354904301860769
Ni 0.3189737590799526 0.019277705667113332 0.5454696805538534 0.8119914022196081 0.08806799658352575 -0.7679154949463162
Ni 4.764094206129583 0.08633468392214437 1.5872254631334148 0.42370134591968317 0.5799418857143883 -1.5326160824997603
Ni 6.160995126086956 5.651975311029771 0.279044173207337 -0.541045722869823 0.16454160346123273 0.3679631718171147
Ni 7.915373171309879 -0.23976378208342208 11.468390464910808 0.7526999635481424 0.1385876025996323 0.4060782335212813
Ni 0.03776377723138068 4.743641375790771 5.931150053645075 0.5775384184792183 0.6806789931251502 0.8720318032419562
Ni 7.843359120916034 9.020118192896284 2.3763540942628945 0.40734424471789843 -0.4125985511383023 0.9628688779301868
P 8.637622873377008 1.6324919594225644 3.614651532597827 0.9123932377781384 0.8834675558827235 -0.3218283251322651
P 1.7209047969987772 3.267184424252117 1.488427335723557 1.0182283285370979 1.0156402560949478 1.2063268933826643
P 4.693851516934725 1.1336529058956364 8.47762421654217 1.2739757028798897 -0.5918831172366645 -0.030168810273896427
P 8.726747907723949 1.6747854907303221 12.555423700652915 -2.269749044847581 -0.7841381274527657 -0.40928671315625
P 6.367148699028785 7.591214071895367 1.4018296868399136 0.16256828178494584 0.3048595584884105 0.23513278341623378
P 2.1328558444970733 3.3229640405645284 6.091541331776595 -2.0763792043007467 -0.6431748255321053 -0.2559448350655786
P 6.713312852513179 3.981837360764831 6.39038183599178 1.0346913591891278 0.24350326686811613 -0.8797481980496075
P 2.355727780095316 8.701373615084858 10.220109488766742 0.5395130882753805 -0.3196125484278689 1.1442123834401068
