# total energy = -381172.1956850203 ev
CRYSTAL
PRIMVEC
9.19658165994925 0.00000000000000 0.00000000000000

0.00000000000000 9.19658165994925 0.00000000000000

0.00000000000000 0.00000000000000 13.46012686405234

PRIMCOORD
 96 1
Ni 5.183175118727117 3.92820036743875 3.1391170937188284 -1.083305263542089 1.9551380633993618 -0.35562084820167783
Ni 7.188397818039856 4.914671716006815 4.319058773281124 0.21229084582105376 -0.1551519347162167 0.6527354726373468
Ni 3.801903709350042 0.6956036981859175 7.888522555846862 0.03869690234956562 0.22825456823916176 -0.8620032153613606
Ni 9.03545770326903 9.024007958907239 10.672171529870333 1.8561091969289585 -0.22565723982563074 0.6601759880757921
Ni 3.762523946010943 3.1909839758486394 7.598012652497384 1.3335497057887808 -1.3004495808007024 -0.8148101026153258
Ni 8.399615233044376 5.264776389186674 13.183104147043272 0.16029516948005296 0.12596425740866693 1.0797995643816758
Ni 0.15100511445562909 3.519154801395676 2.835712663004159 1.1138993342788623 1.827209997396105 -0.29916919297185246
Ni 3.213193720935964 7.957287237406672 0.2581682840746975 -0.4749781418167884 -0.47520002801960737 -0.28059142996966513
Ni 7.042245739808898 7.850487332769363 11.115265600773364 -1.1367800955317777 0.16142799753291553 -0.8619775043297478
Ni 4.481282797894942 3.6340568946134946 5.2893450575099825 0.18820089475138554 0.40725862698262766 1.7574839936548765
Ni 6.642553097473404 2.428844847535278 4.800271756156188 -0.4620457500258365 0.09946466845624159 0.03914144608615194
Ni 1.7951451808739156 2.186137856810813 8.344040289126072 -0.512355296913666 0.17915292561650434 -0.25752297818597586
Ni 2.6243641769582684 5.548454151904528 13.39577418189622 1.5291695187120566 2.2439539381613485 0.8461459366141298
Ni 1.2673349572500088 6.61872475398634 10.10611916007805 0.4330473059109574 1.419367472885549 -0.3267478739210695
Ni 3.9355484363102913 5.712705103150746 6.714934794661723 -0.36392242608883774 0.029457128918852493 0.06241610034337638
Ni 5.783739501102919 1.9440930199771493 2.384367418895184 0.17438147236979 -1.4962095188462683 -1.2511869871201484
Ni 3.413955101994472 5.324094341904374 11.092234600929809 -0.027588451141229906 0.6267891850852302 -0.5637249096348936
Ni 0.6944817152042804 2.6215684160859927 0.153756731735185 0.37199106202958515 0.48055743567677883 -1.1908357397256006
Ni 5.243210404826519 7.263478711991374 7.961288670155118 -1.009388618758281 -0.8573063241063235 0.05407672723974558
Ni 8.486219444012216 5.597242018442109 2.5411240756189755 -0.9984940833329642 0.6826363739618373 -0.08077891912128024
Ni 0.7062708134351049 4.516386150689276 9.429990143547172 -1.9499531767643128 -1.4517690291447063 -0.1929299247959387
Ni 4.874160773104262 2.432891343534625 13.158727687279933 0.6207059550056278 -1.1585622244038756 0.7013802302282437
Ni 1.2562990590699716 1.538119112260852 2.314347403917394 1.3937952808433995 -1.0436555103609508 0.2848118958089159
Ni 8.940061560084425 4.941507341747939 6.96890024084619 0.2788351094001908 -2.210665608421864 0.25488451212186425
P 6.378077797588816 0.5640190055526086 0.10555376780114636 -1.112373127442323 0.1259899684402798 1.0187551475748455
Ni 0.2662033376079462 8.613398973955327 6.815050623634656 1.3904471903067732 0.3939976482076634 -1.8268873239493635
P 7.060408988896875 3.7796111950263676 2.151399608314601 0.9747885121859083 0.5032543630536623 -0.09235891064939578
Ni 4.905465937608301 3.2613838096554595 10.816800654152445 -3.224590167377285 0.09892910766774575 0.9027726839692388
P 3.397787511160718 1.6750378223478453 2.6503932624740676 0.9725794203497314 -0.3974508968635865 0.4435525763176555
P 3.2545783391111027 6.994543069925687 9.10935591679892 1.1456290612819755 0.1738464258019264 0.06566623184955787
P 8.542787618766724 3.547599828954721 11.736826699094868 0.814244974140475 -0.027986972131229217 0.11870243363993105
Ni 8.614438187700614 7.764563668855958 8.72749268763146 0.5369874936400494 -0.2863126487241585 0.661843605586202
Ni 1.2884503091011463 6.669802569396279 7.264686223183906 0.6923194055775561 -1.2323577702287873 0.320998373031802
Ni 4.567647897735549 1.405688334100407 4.589688425717446 -1.2350530576727634 -0.4807029601157076 0.0013878814864621259
Ni 8.806977824614995 0.8928924499504404 8.315289935050712 0.3008164987672884 1.8572474242984596 1.3203362924223003
Ni 1.1197298190920126 4.958594590763363 11.804962334458418 -0.4757186195272388 -1.4166017372149537 -0.28381893576802736
Ni 2.784062820205222 3.415785221775995 3.8894652844850013 -1.852443060931281 -0.9138358837619359 -0.4001353856742851
Ni 5.519300987545597 6.476012197354828 3.339497736290125 1.0915528482628618 1.2007301160211772 -0.0340473193926962
Ni 2.153103734925235 4.20500828353953 6.138720201961991 0.024008189989139297 0.8320948578377024 0.6133793394372274
Ni 6.962943614803514 8.305552594223194 1.7850418160900916 0.2142410275688891 0.330701716362495 0.7665957476936281
Ni 2.923768094582675 3.4464926084619476 12.418528844206667 -0.34354849041817603 -1.747469803951984 0.5207368361091419
Ni 3.097905371281843 1.180261720609516 10.164683912744962 -0.11762745540819743 0.3710528664860319 0.7735089298736937
Ni 0.5160100894949023 6.813287638900395 1.1999929868972408 -0.9125217929362026 0.9227766378949914 -1.1509425030750888
Ni 7.137503934266251 6.194624383509333 8.852725301203975 -0.43947172138006246 -2.0689116922791078 -0.24676599677978792
Ni 0.6929927886081569 -0.013926383845025132 0.03618211184143325 0.5203617121579103 0.8092580624488449 1.7798744455349345
Ni 6.2873443213852775 9.24826660650741 3.903948061529937 0.968841293463538 -0.19965438800396582 -0.5805512371636131
Ni 7.599972444082521 7.5877317936844975 13.233565791471491 0.9771428713506977 -0.0395682492109254 -0.2586288096556449
Ni 7.39412535327938 3.348732943750453 8.18494218267175 0.8875155006998521 -0.6481000307478645 1.512787734919924
Ni 7.663502431272269 0.1146114812324118 5.7194370010405695 -0.27542711215990634 1.7272838159224122 -0.6585327960454143
Ni 7.851269042223783 6.781283534178287 6.462476668237013 -1.747103421751501 0.5701593524063278 -0.025832130571755513
Ni 0.5120693541864474 2.1691701633590057 10.396574803594811 0.23355129786172682 0.236484926568754 1.0182265287648853
Ni 1.8242983452328467 8.571526936943904 8.757535161452065 0.05734048559268189 1.0685319618876563 0.10893121318578014
Ni 3.0204701523852497 1.0692957644092431 0.5620058737929335 -0.16664528006779686 0.7145234524784211 -0.14633150821110927
Ni 4.706424317349516 4.5516642385381285 0.4793286032608224 1.1557622930612352 1.1979636090196337 0.015109601947928816
Ni 5.035560783987305 4.656027048994012 8.813273804526705 1.1981032199212915 0.22997746446753942 0.05161258196996917
Ni 1.866685390826006 8.27696042135508 2.2008652629320724 0.11759968749405551 1.0408308964279622 0.8465627124365742
P 3.918470383876684 6.75153259200127 1.9845478637306204 -0.7385151874073281 -0.009644465068299518 -0.5003407889512932
Ni 5.4691244371536945 8.235033204852757 5.786400991880671 -0.45952658314840866 -0.8087186450056072 -0.3925424038183756
P 1.3526700399271454 7.3581483252124595 5.144932052900562 0.6686007218043775 0.18442985774472753 0.3460244627624944
Ni 4.694809034515027 8.924822824014157 2.2290914118438807 -0.8586787789738181 -0.05138375378861474 -1.3456480317142114
P 2.104297475224021 0.6983635923891084 12.072347432829812 0.19491121689202562 -0.5561360415440423 -0.6999478686570914
P 2.586161576091707 3.44011018068116 10.28176007790425 -0.5215215367939663 -0.21772898611748953 -1.3688980033810878
P 5.565118358156385 5.970292163254629 5.49418144397147 1.1848612673097207 0.7017245009415399 -0.6657815071880275
Ni 3.1438790837835144 8.197989373295098 6.519641701151423 -0.90939327460955 -0.5483707957763266 -0.5460634877993885
Ni 8.307585038804682 5.868338857234719 10.920187707277575 -0.6266963682611079 -0.13186082539876 -0.7164520369597015
Ni 6.141155456827053 4.8578000540523565 12.086857799620196 0.32827793741235073 0.604836849183855 0.08840069733259613
Ni 1.375670691050706 0.28897775281881605 4.681485946437176 -1.9895954737462835 -1.40130650161878 -1.3978067159956378
Ni 7.1806542961501965 3.176692487705491 13.405532674861918 -0.555767859571346 -0.5997892594576186 0.5685809521756143
Ni 2.326045455988233 1.7422372456824544 5.875802803037152 1.074347025907537 1.2405747588219407 1.5290093389851087
Ni 3.3850502453445914 8.532404677895672 4.087490682453042 0.4859174144371115 -1.0316471730461652 0.7230307186184839
Ni 6.973069051383699 3.464462729331775 10.373840853343935 1.5699202182668575 0.17157254216608517 -0.5592105667043079
Ni 8.140023318104452 1.024903863980044 12.594398756920102 -0.19364263459224715 0.8315269011493743 -1.1617784173483283
Ni 6.691451322992785 9.099098049440576 7.661302608901715 -0.8972625527842869 0.5478905137057983 0.9948539154772156
Ni 1.9407362676140547 5.714342094714119 2.6235272880129497 0.5336522586192293 -0.30433093967845004 -0.783626992144302
Ni 8.68529785059827 1.746476869899952 3.9534817708528514 -0.6775245066565687 -1.8632149547358041 1.6994619086141378
Ni 0.5598980172405464 5.446528435630069 4.519238010710635 -0.006547828420846788 -0.21135445004971343 0.9347217260720095
Ni 5.751625037399011 1.0865945348064512 11.448604905301385 0.6847778457848723 -0.7698744184449 0.40625204009498417
Ni 2.656929273171195 5.006361636719289 8.460887459398123 -0.26071551698134454 0.0013572853588428237 1.1189402391368792
Ni 0.7645854190766026 7.282065003842921 12.45850546570567 0.45776563459324393 -1.3749256976324062 -2.0612230653855983
Ni 6.36645331817251 4.188969444851209 6.529722994138887 -0.2974524673910619 1.1425784473811098 -0.1243930562668051
Ni 5.440808161740083 1.6983879435804405 9.187720910117182 1.3333815556420328 1.1256047956412485 -1.1870497903206072
Ni 5.336730445320517 6.326448187269875 10.473150142091542 0.23180397615331688 0.8581072227410641 -0.5666791071672111
Ni 8.31680921036683 7.748313308785853 4.3370546445800375 1.0669260508531173 -1.1902225316216342 -1.8899225459339775
Ni 6.574562768102559 5.8688446692346385 1.2235224414752615 -0.7525305278498138 -0.34520119553025064 -0.31462049452991625
Ni 3.4100465547223755 8.010333121325385 11.196214833582118 -1.3134619338999702 -0.2670368312136821 0.8026588119647725
Ni 5.038154220059614 8.653376515112512 9.789510277190969 0.5040215802369901 0.1609240613133035 -0.38782082997299017
Ni 8.367004153922366 2.288284291048873 6.418878432818594 1.1264979968794793 0.3406567706926778 -0.2635972094045138
Ni 2.9902501845355816 3.621098910833768 1.5267824858554089 -1.0473622697885767 -1.2327925437733607 0.06592617037916389
P 5.535293843324834 1.8008746513457181 6.744129343638829 -0.13010913281497594 0.3182336658024713 0.16290303941654524
Ni 5.213238744685902 6.920841663246673 12.889484879381568 -0.15677918590699452 0.06448403861599863 -0.08970373241473584
P 1.0296676933610933 4.635583047615494 0.8715766126156989 -1.0285829322985447 -0.09350407999743252 0.8999874079146176
Ni 3.5111813649605987 5.6392612007626 4.226075813165221 -0.046479631618778015 0.7630735934729826 1.094444053767728
P 8.833684698210684 9.130927419108167 2.6012908728383564 1.0796630388038118 -0.9717340416303006 0.3153036366398699
P 7.2009051693105635 0.3558782872443826 9.721737906809178 -0.5677949659392092 0.37264232246033885 0.50276971010776
P 0.6773650371270428 3.174650846542184 5.105560566485098 -0.5229780667348348 -0.010819716323323302 -0.2638201240485972
Ni 8.24125929074266 1.7850841203664485 1.6403860217207107 -2.0238723926512825 -0.47730781839122954 -1.1780031067373067
