# total energy = -340890.19878039666 ev
CRYSTAL
PRIMVEC
9.04021324881650 0.00000000000000 0.00000000000000
0.00000000000000 9.04021324881650 0.00000000000000
0.00000000000000 0.00000000000000 13.23126588840232
PRIMCOORD
 96 1
Ni 6.5305414801650326 2.0833532758987583 11.331031157656884 -0.19538712808717962 -0.32931512042761346 0.3320988538203377
Ni 4.8877268301431185 0.5035751279879579 5.93888032351321 -0.6107498722341804 -0.3781645378301487 0.05169948525682064
Ni 2.901438322585656 1.7883982422141673 4.676353086921361 -0.1695953638350563 -1.0365027013662536 0.013323713692099634
Ni 3.92014377898011 4.5077485920019855 5.158526414353188 0.9493813849667134 0.18371174863178036 -0.7512845712578545
Ni 3.865332966792974 2.759181528824025 2.372193509424455 -0.4589128608238096 -0.5462977152973817 0.5648142860443305
Ni 5.181994807630081 4.682938882184157 2.294605880264618 0.9397834568656331 -0.45404807653234064 1.3218984947030976
Ni 4.990595415311751 4.431232228097662 11.464151008011365 0.8570463855767174 0.04627728579998481 -0.7698240248229387
Ni 5.600737479658471 7.9420170762748885 12.156873611227795 1.2698642518146777 -0.6917074830251699 0.23153401032138188
Ni 2.2021055155309894 6.4643942407170245 0.007223130288227186 -1.051377818705873 0.2690536045333947 1.6516846412298585
Ni 2.5626201748103536 1.4983068431917363 0.5194108693219849 1.2505228711735885 0.9265741572642107 -1.462122090244256
Ni 7.895794466558111 0.1342489729740067 6.807935899851024 0.47474442853942755 -0.5429637658281423 -0.36938242076214445
Ni 9.226079908577143 2.3084455425402712 1.2375807684687405 -1.8513482852052052 0.3603941012206051 1.534946787515466
Ni 6.923429142651082 0.8533219894121188 4.542651046841519 0.8222007386524421 -0.9049568361047512 0.5145903568917718
Ni 0.4677858282406956 7.220788873027374 2.1206938762185614 1.6181772535010326 1.4874438568384964 -1.149523511240375
Ni 7.406059000845807 3.858950576325529 3.6386640869821663 1.1394913238153537 0.2828943670712289 -0.5870419870942792
Ni 7.759874862198292 3.897109315933298 12.401109433186392 1.2063477193182708 -1.0863134542407937 0.32207540814606467
Ni 8.416022571146748 7.301662619658764 9.085950276964224 -0.6918481223680923 -0.26822159555040254 -0.2910159677370988
Ni 7.174864590343776 0.9182415679175219 0.18553952616960842 -0.13916404392839257 -0.7662103393297514 -0.3337960390171026
Ni 1.8333281014538283 6.393754015345051 8.766441120406224 0.9666514849010707 0.9938046482770949 0.5071819802428427
Ni 0.09176268334249069 4.874265952797474 1.0330956676495229 0.18167543492804195 0.26120299814072434 0.4649086733959283
Ni 6.385066370530299 2.167825027354572 7.099090427937154 -0.14426022750437736 0.9736754816273877 -1.4545507056549014
Ni 3.7559825488125034 4.3801188630793435 0.35236852323090173 -1.2547153119883812 -0.24848040836773336 -0.19140680328319296
Ni 6.2583316227072 5.920580220080847 4.652258206874789 -0.45463557360469437 -0.038439792033437024 -0.7021831857455133
Ni 5.310718402341053 2.944704782610006 9.517143130510695 0.242097387659525 -0.6290278446077618 -1.4107807596578026
P 0.3428573150003087 5.791350373434779 12.156304981822124 -0.007855234378360665 -1.0485488338975104 0.4728328133390115
P 4.101607977072206 6.262607643516124 12.171996983767439 0.4086195118858963 -0.14733680954717207 1.0387981822686496
P 2.4759697319910074 8.44375794501944 1.284277085353357 0.4861141038289499 -0.9867551976294812 0.6423155628556034
P 6.420983137282648 7.8781298901085535 5.633542605052612 0.45580722531529244 1.0124256058123917 -0.6658113319846984
P 4.848031254303812 0.8816196645412913 12.473709576764232 -0.2235913584355375 1.3133207803364157 0.37219469339995903
P 3.940854907253362 6.389423753257365 7.818619975138163 0.470108472429313 -2.1562952612010995 0.7401948891025961
P 4.672732481564121 1.1257596602407447 3.7281079556576606 1.0090883139090427 -1.1373040863560477 -1.5778340737972956
P 0.22749153920533693 5.583723798554036 3.2895174957096174 -0.27151029360400336 -0.5467576856529358 0.6242263094540604
Ni 0.5456835367107782 0.2774043639204307 4.7893476148132015 0.10826221214321355 0.2595279244311466 0.044394466954975155
Ni 1.739156201313074 6.907681091384383 4.636328447324244 0.3828894541096438 -1.3363984880914854 -0.6976780987863082
Ni 6.229240216865503 5.936780282003879 9.226148614196905 0.7048013400946508 -0.8865048000471506 -0.7055945254199073
Ni 8.687708096243233 2.733263237789798 10.133071835279809 0.31608653755248145 -1.2879385928178853 0.2914414853102916
Ni 2.276976560646255 5.371658479028087 6.598233692036392 -0.2881155062608522 0.29003586321201663 0.8203220335724904
Ni 0.5840176564532045 0.18975045744402172 8.827979659202244 1.263674835174514 0.11510057522128564 0.38247962026573484
Ni 1.6184331952192244 0.9370000101554086 11.25746551931711 -0.18169291842953872 1.1407622201079772 -0.01645968821792004
Ni 4.313727537876915 6.7358989615509755 1.4871014990212013 -0.46991692524379713 1.6255043832900649 0.18012300283925753
Ni 5.983988274951466 7.989740361370698 7.8835187611533755 -1.3180863200458592 -0.32948532745689063 -0.2482389817808886
Ni 5.527068782889055 2.7606098824980423 4.822796403381964 -1.3041874505765796 0.07544825093698618 -0.24013692149904453
Ni 0.7374147048508582 7.635788896821312 6.645045723649031 0.37787503161418795 0.18827725651527574 1.0625173802624603
Ni 5.200744209654841 4.524653790548901 7.362418275998012 0.7686395175965344 1.062550290382925 -0.07497131130056765
Ni 0.9147972467162522 7.519179187700108 10.990286540464282 0.0920102690607254 0.26361315024411375 -0.14444868936609961
Ni 4.645864968151591 0.4739358852307844 10.299468710153647 0.45171942839916396 -0.710764242546305 -0.026604232851089663
Ni 8.364493356324603 7.333809617537281 4.447041752813622 -1.0279758948421651 0.3957650245207313 -0.4644332764214066
Ni 7.683096332113293 6.436324378958645 6.696846144864977 -1.9788341214647212 -0.18532948674086147 0.22786607455149144
Ni 2.368300793652101 5.477935224545482 2.3088957451539804 -0.09094891767574659 -0.36369385501779944 1.0425293671763076
Ni 2.4082856563114614 5.487734815574817 11.09751250835998 -0.7692709805329461 -0.9887449743660005 -0.2579760065629944
Ni 1.0398776355371675 3.5376342811635033 3.7041061898062924 0.0928088537026208 -0.2136247341411289 -1.0939285475838902
Ni 1.631984474696136 1.004485201146167 2.6200155839304107 -0.36784695795422456 0.017499442336344057 1.0529929857117928
Ni 1.208703615678147 3.4296037342995294 7.925475294295667 0.10843473316533583 0.1282419976992501 0.2720463686131315
Ni 3.733454337700786 2.780426029671752 7.249648849413026 -0.4035593237541695 0.13849684265803888 -1.445108329295079
Ni 4.3071733833600625 7.082030641745773 5.78470943287191 -0.7287586222411965 0.19180609560414064 -0.3554015331020202
Ni 0.6342288082014791 0.0494689502505732 0.41377778697921014 -0.3115737372837924 -0.46362877824224025 -0.8840015740093227
P 0.06621323300383276 5.531462326468628 7.853959976293029 2.734338387230878 1.0181326834994981 -0.38289639608817927
P 8.498315631239029 1.8270089924782702 8.025569438055717 1.5169881461545163 1.2214529503908256 -1.1892174873958874
P 1.7816723236479082 3.322486248961352 10.444998965088452 0.5581440731130065 0.12612520846656342 -1.109419701240954
P 4.1911603283052195 6.150056990088805 3.7207112532774005 -0.5359461968597287 0.5183932755776298 -1.0928610255513242
P 6.956136633743455 4.121297561262141 10.32667251949449 -0.18334176688687134 0.07866650076396775 -0.7696404480572229
P 6.650053097699906 8.105527411097373 10.121587148523659 -0.7430642402305913 -1.7318004728458432 0.5525398395523516
P 2.491988989651506 8.686532868536764 5.700941914018667 0.19209225938599175 -0.054633885294796236 0.4850272985226744
P 7.09414452733554 3.814825296054144 1.2248304518748536 -0.7370252331253629 0.6498550657657582 1.2792536634493776
Ni 5.402512726429487 2.579172805045327 0.39854141177548286 -0.6864416066405403 1.130889955299588 -0.822778465532783
Ni 1.7746932791141017 1.1793862045082837 6.993968117636037 -0.5679299488551768 0.7293967700458277 -0.7709599381995949
Ni 6.8757510586209065 0.9135406570916419 8.975230266695059 -0.6337080236922505 -0.222200648735598 1.6915138574116546
Ni 2.9149896020625676 1.7390838796080603 9.158867732022811 -1.0368492860723948 -0.5437394676519023 0.48329103255785794
Ni 6.310981823957055 1.9409247180877205 2.450007143912459 0.931395489912254 0.12216493826723476 0.000852320697966274
Ni 4.2792572052248365 6.901443344326966 9.99964823376427 -0.5532515209073955 0.6623799377056463 0.0956676633076546
Ni 8.20259217943867 7.499444402444539 12.70274247230767 -0.1375607039970147 1.3464162773388038 1.1546109530656115
Ni 7.766627901403931 3.946432718752531 7.945097076887152 -1.0359707401221836 -0.15330639686704564 0.18362304557271603
Ni 3.1914483596899466 8.376146191044908 12.204347386441306 0.2768126796535233 0.4588580963264743 0.17947765594577478
Ni 0.16398404199032318 5.040660115607373 9.956606875046775 -0.404732003906032 -0.1440825642759325 0.9984760856108352
Ni 8.72887722682219 2.6202424932798904 5.7783848997684775 -0.08088716256437037 -0.12779719685234764 0.2001218145586876
Ni 3.60930509083192 2.5881858975326395 11.379735305876938 -0.0740685969806402 -0.4582155776464689 1.1946576845748522
Ni 1.2966287285483569 3.4885640043118173 12.68091126162802 0.9593621503285089 0.756629894730168 -1.5172812519149028
Ni 3.362299347571305 8.483643365334407 7.889591976331888 -0.399991146786937 -0.11229961543738079 -0.06964552821228005
Ni 5.709373720801933 8.103348719733841 3.269802598922927 0.39596402790541485 -0.6273255172046744 0.4951183642100892
Ni 3.1998376774715167 8.422658087581741 3.6957702092821694 1.1574070277535098 0.1277789420199025 -1.3457495902890824
Ni 3.5376885224422634 4.328381723355283 9.342861381747754 -0.9685965244425836 0.7972528104578528 -1.09418025858338
Ni 7.146460240699708 5.938000710775982 11.552853579210472 -0.13591365531189495 0.6251447075032718 -2.615242831917586
Ni 7.990291814371426 -0.06046908158313245 2.263049208303273 0.2385371811120924 0.7720274602321606 1.3205232116221257
Ni 4.577557117766304 0.2879298840638386 1.4862679913709202 -0.009645236399247905 -0.0035964591020067093 -0.6734994446575756
Ni 5.897663279804681 5.576988839774651 0.15807083858415372 0.6216986579362003 0.34289260200173205 0.802483976949805
Ni 8.253524740194454 0.29845811627118457 10.844212968720562 0.3419796032691594 -0.10689335682014493 1.1827267374652213
Ni 0.11342393801535822 5.147135745813555 5.400539247903931 -0.08932655158097519 -1.1115133505451888 0.299598052979155
Ni 7.325185254214417 6.118660329899802 2.1913883428692955 -0.6333326426307028 -0.5115747099938996 0.6530643167316753
P 8.653762095952503 1.8606385853095657 3.574545471359788 -0.7085068139706959 -0.8047617172403883 -0.5437163277234507
P 1.9579745600446623 3.442901887808894 1.612560672772125 1.0210987081063574 0.1711727356245052 -0.4477118499016677
P 4.832852736464097 1.053971327801681 8.137347153260706 0.10561397588708908 0.9347392095735062 -0.2621334803747937
P 8.96808126615447 1.8074821321246148 12.416735441575877 -1.3425436817572751 -0.9325193191040521 -1.3414455635970897
P 6.679334348017262 7.805446576569947 1.0098415274237322 -1.1260243996771704 0.03134971795587504 0.34879199820530254
P 2.0918781968772295 3.4347204949292376 5.576687800677531 -1.244834048318927 0.9189179262705336 2.5399655593408257
P 6.7491971150603405 4.160812332838914 5.758498238932379 1.209942635758381 0.30720157635802575 1.760036327763085
P 2.611374044202605 8.430577314280724 9.989486130188554 -0.8410890909165126 0.5047725994704015 -0.2595351235199982
