# total energy = -340887.1638762504 ev
CRYSTAL
PRIMVEC
9.14833621132430 0.00000000000000 0.00000000000000

0.00000000000000 9.14833621132430 0.00000000000000

0.00000000000000 0.00000000000000 13.38951477327348

PRIMCOORD
 96 1
Ni 6.406872588623213 2.156116469298952 11.344842575063055 1.014623127684343 0.09519946542198443 -0.4395714801827204
Ni 5.068031882215639 0.4451452318911338 6.042969156368922 -1.717923714863751 -0.12355410530527754 -0.2130904589042137
Ni 2.9628076072052685 1.661255519154741 4.491565943487389 -0.32107936278138255 0.1549012521579913 1.2742947767822055
Ni 3.3387310383946254 4.100448955534689 4.593754688524656 0.36728131525874164 0.7939237460846198 0.0003604686632122824
Ni 3.888472857411244 2.817230133231837 2.475239710680841 0.7133091204553458 -0.37225305744172016 -0.04595204125008215
Ni 5.365325363753665 4.681176189265566 2.9764358836445455 -1.2794662936808159 -0.6085328099782036 -0.10166758964483137
Ni 5.023095254794191 4.784634723367592 11.35362589265005 1.5382288007008476 -0.2553344551750893 0.20749188177051361
Ni 5.6328501592922215 8.04565979406723 12.228630401473342 -1.0047637183917597 0.2137761721173286 1.0877432447087847
Ni 1.8909062028193577 6.442532803136407 0.4213092419182955 0.2607075465615446 0.3603575915557149 -0.5976331323465642
Ni 3.139032007453506 1.7051766812578293 -0.010976173774481434 -0.9570561279031518 0.4775878115254937 0.835578959731561
Ni 8.545872520889281 0.1979013828775376 6.633165832901905 -0.10476474051291634 -0.9926201410506904 1.0229496452721674
Ni 8.419726113007696 2.274084264616453 1.098246782978802 1.2796282731799768 0.5292083639152627 0.7640922645454841
Ni 7.144530381553504 1.0208262433733 4.903762527715436 -0.3217033695186266 -0.14064577068024164 -2.321200161539022
Ni 0.9891455551077314 8.069106979751508 2.4163390628815233 -0.1700548199699781 -1.3267254837780957 0.49505228685884417
Ni 7.608963965491743 4.050755193288495 3.829735964829932 1.1324112770401207 -0.17553126970351707 -0.30058252837961136
Ni 7.625028443861462 3.98434742080228 12.845659148085133 0.6649800943326547 0.6274445592810419 -1.1202075358850772
Ni 8.443365413752204 7.112895434968942 9.0722796787569 0.1051817734456769 0.20614462371399983 0.2689325055744981
Ni 6.825564491554278 0.9923383244420322 13.535728210929179 0.41685629797339174 -2.5411156137848687 -0.7900640060188974
Ni 2.18486054164386 6.566007896847172 9.067071530957422 -1.7224514275307756 0.44677031192400474 -0.1992918624582245
Ni 8.960273854141873 4.936826444414661 1.2599637516788047 1.1779768814850615 0.24397197897441852 0.3420729343139141
Ni 6.650300666607191 1.7683276460563335 7.062273116598303 0.47280247432170835 1.8187880918809967 0.8018352876222127
Ni 3.7895701947375326 4.376628077119803 0.09993825433171369 -0.8757071952110144 0.2020318870972069 0.23108406726815683
Ni 6.414410817653196 5.9366572562056685 4.7493148269610925 -0.7236642384374247 1.0467500901258748 0.7129201125470432
Ni 5.525823774071636 3.3137652289009103 9.194312079848698 0.23075008096750585 -1.7869789177901998 -0.03229845502238954
P 0.26003505269044225 5.811078045168574 12.342013050686683 0.04831565638625227 0.3029726258783427 3.1094723657648187
P 4.033062311074921 6.355275972447122 12.38037385404654 0.38327923334889474 1.282143840512979 1.665070318508145
P 2.738517848554692 8.624822662307663 1.207863977011634 -0.5589495997334374 0.5623087460136574 0.11769841785544892
P 6.717760497756572 8.165438959952617 5.834989966331884 -1.4687514226353156 -0.43257627981180985 1.7313073352595088
P 4.851984774482554 1.0638051268476405 12.433704079932806 0.8945274132413111 -0.42992135868746606 -0.8131617683786254
P 4.139521499451017 6.334134167485606 7.930596595493685 0.3267640718709856 -0.38845126446813744 0.36782536068766974
P 4.972431768910645 1.2862377732493255 3.87875457986446 0.05093046830128003 -0.9388208358420478 -0.37003702362700785
P 0.08425343191435378 6.0319280294074105 3.6131609980980257 0.35635386971296046 -0.05133387438728579 -1.6098664196424919
Ni 0.860516288781078 0.37652264721055145 4.711689549831831 -0.8278877617348903 -0.23526416678777548 -1.1839097020297287
Ni 2.2012086184358237 6.568084569164897 4.394719826791761 -0.5681454073000924 0.0825655787080578 0.29468467483793764
Ni 6.170461284505737 5.5638625559972015 9.26064392114444 0.5900828308031322 0.9612411125187769 -0.23732593441281066
Ni 9.04753983316736 2.5993350615860633 10.363431023380016 -0.5718951041505119 0.3615703809168934 -0.133938276753079
Ni 2.6958500085112003 5.268362148354657 6.624649646731989 -0.4064037351815001 1.3002078971035413 0.824102069440213
Ni 0.13877843050852515 0.1790603844706827 9.40225101720645 3.042386627859915 0.03622427243935697 0.2853711107464956
Ni 1.7992124290723774 1.1573743095159155 11.333140023394177 -1.319435634984902 0.8819488052453521 0.8989887914467743
Ni 4.093752373435239 7.019006060533617 1.5441860904522207 0.9731576614507045 -0.3466541259266933 0.043328744694622154
Ni 5.887036680649086 7.741532505386733 7.8379806694575995 -0.45982097446037584 0.815546209450402 0.539330025730297
Ni 5.448867969945166 3.148216936999747 5.000729402448923 0.5185241447285391 -0.708257159853735 0.2297319241156366
Ni 0.8869339392299612 7.239316292936569 6.358305901397037 -0.6830148403471785 0.8447876228140225 -0.4396763811917009
Ni 5.233644212470212 4.5841855288579545 7.0111384914003825 -0.8362055375719664 0.7793599893378319 0.5663777738767084
Ni 0.6962716347886189 7.816292708824859 11.513509534775288 -0.1155209505881559 -0.29522949159781414 -0.17079452634948003
Ni 4.950265350294569 0.3255389695599555 10.228692498138043 -0.19107435964443867 0.08341198586875312 -0.26867873769247924
Ni 8.16067267679167 7.795846177414652 4.538242584454349 2.5877379416290984 -0.8127064260087616 -1.542092654531628
Ni 7.43902447221389 6.236256118466455 7.071993223812327 1.3628078313229497 -0.4689051961498311 -0.7655991881083136
Ni 2.691550290496526 5.080629141165014 2.478077524570526 0.04562679670017949 0.379770705975004 -0.9500544997743381
Ni 2.4165696009537996 5.347065284695601 11.521529881123087 -1.4348781669266384 -0.6775656443071492 -0.6059478228598468
Ni 1.1836849244312417 3.5483011240970934 3.573554191347534 -0.9168638719549822 -0.7128463218863142 -0.4892385083905445
Ni 1.6970346620385524 1.243515043188625 2.313828296409967 0.6440631416743294 1.4320874915553787 1.0706639206289947
Ni 1.4839882085795395 3.609036928138419 8.209125009815327 -1.6678293693105208 0.13874829654721266 -0.0834531235193337
Ni 3.5244697082923557 2.904944380731193 7.211981064366682 0.7049049555520505 -0.43622853185241645 -0.5027262584643342
Ni 4.2431172585960635 7.240029863160281 5.856734646649073 0.24297387672720736 -0.3863511874059991 -0.8015591511426905
Ni 1.0016238856864885 0.4658460870477404 0.28246128405463944 -0.5941387460400607 -0.20359151827484293 -1.013086122214526
P 0.6255659739549699 5.725504508340352 7.767177121426595 -1.239293321006356 -0.6453165544654564 0.7698224821610419
P 8.797195613015099 1.863973501042334 8.101393287873613 0.23811731996585445 -0.5640151871818029 -0.4455598365556714
P 1.9425485606764572 3.487711693434991 10.317411232952319 0.5699392659757216 -0.30219898093711184 1.1168931267998636
P 4.2823270275554135 6.293579593104646 3.7750133621738096 -0.327554686093081 1.0322015028877385 0.09951377652662216
P 7.164665869532862 4.127226135596288 10.674857769515638 -0.27556698017188025 0.24624817660310494 -1.0242763345033907
P 6.438635611914595 7.642080942540936 10.014593986015868 -0.25415431882405903 0.462298746576907 -0.0324177542090732
P 2.4568771702573216 8.63857261161842 5.736108344831436 1.4285625091212557 0.3119540034413466 0.4728875778363469
P 6.874306826835523 4.267213976150643 1.623719895720254 1.5569173782492864 -1.5075133738948618 -0.8744360418080747
Ni 5.673962782181469 2.9874715216043364 0.27796396197801415 -1.1487388105555507 0.07933884424064401 0.4525694351042851
Ni 1.6214968500233056 1.1565967009387934 7.112831396615531 0.13996211434965572 0.5466898085294778 -0.25348480356086023
Ni 7.174710742682037 0.5520343920686976 9.13431363170521 -2.4264780942429307 0.7152575024309682 -0.9563192497371272
Ni 2.8435864898281706 1.5449618693621021 9.318191530019568 0.018749769803677385 -0.46894119159408915 -1.6477909626024074
Ni 6.531280812626525 2.1164035418485234 2.650454134612441 -0.0246836187896091 0.22174453503478586 -0.43445395645049695
Ni 4.203596446205866 7.036278119281926 10.165332951274147 0.501534295038762 0.9059639372130268 0.5330084543876433
Ni 8.808347434844647 7.709467587000704 0.3042864697304024 -1.5770583719735356 -1.1426452960633031 0.14414195675895822
Ni 7.76261942033104 3.7584475549802514 8.10736440691229 0.8292974975982234 0.6781667682262579 0.7426315235685468
Ni 3.0639058705673237 8.521226903162617 12.240573554384316 0.8283230495000959 -0.8664368256526819 0.38365101486601666
Ni 0.10027674277116679 5.2224283522872526 10.39661020911538 -0.11956041076485216 -1.1068252010409 -1.630214644281541
Ni 8.822939031085935 2.538782224268767 5.553595378278331 0.5754835928327187 0.2922071598317225 0.5413084896129065
Ni 3.917491379842195 2.714430279336314 11.089651566391272 -0.3237479107524811 -0.17012346842438444 0.6683238139939071
Ni 0.8832828382519686 3.2864574453396274 12.910344288864618 0.7431421446563782 0.33079761851041095 -0.912562416366151
Ni 3.5491244743552226 8.459512227147737 7.90894522820575 -1.0027258620261248 1.328995767869511 0.48448093910090106
Ni 5.908315710653624 8.190953669618418 3.5547150226079194 -1.4361477776676814 0.14707712812788218 0.28897219783419265
Ni 3.3681429392822384 8.596645786807244 3.427621761929487 0.1365741717140293 0.0022180906972413413 0.4285280778843652
Ni 3.665454717492667 4.734922664448996 9.387630146289318 -0.5055817256352584 -0.8983503865318272 -0.7075863590389556
Ni 7.268279925350312 6.458972363290385 11.675563162247503 1.194579008818117 -1.8024232773697282 -0.21015477331465746
Ni 7.874842060514041 8.996510413835756 2.401797782489343 0.43896290006444405 0.40097665062865784 -0.5969600175389397
Ni 4.81312264229886 0.5724232889608353 1.400489514401804 -0.40311246602473805 -0.6539040390241513 0.8442795728293524
Ni 5.851504542842713 5.646993487059639 0.31800622953169416 0.06554333311844841 1.5188897340526035 -0.48543327571184136
Ni 7.712276126214546 8.894689431913788 11.24037680914525 0.4908207652759999 0.7463015162209663 1.435321168001328
Ni 0.25179240177294954 4.915190629298268 5.446934926505803 -1.0215769332943567 1.280930022710536 1.1856709076952097
Ni 7.253221763962751 6.287889327987354 2.367145714625549 0.5362231046701991 1.2200774101995375 0.588021063178097
P 8.803498816657886 1.6839525412705008 3.2503453030180838 -0.19544600634957307 0.6084155676740489 0.8544369729783285
P 2.2606453587365456 3.3111762497559045 1.2098656329725077 -1.6174894834053886 0.3183185122067937 0.678221018502961
P 4.824768474283287 1.3969417896228877 8.21417306173128 -0.09536992956157768 -0.6740990259147874 0.14931064544409123
P 8.798348303376478 1.466514886434799 12.269187720355163 -0.9099442620170135 -0.08175825231541402 0.2186198733628751
P 6.25719666003154 7.991053375280867 1.2611740765582546 0.6694928946013438 -0.3156710472816176 -0.7396089346921392
P 1.7542300599699225 3.486577299746013 5.9199057377872215 0.5071655251826104 -2.7935478077114984 -0.8711938807216931
P 7.067199495642775 4.318032983749613 6.1226639723541 1.5935057188962813 -1.3209723833444025 -1.7064848768991903
P 2.1370879299999674 8.532241499949144 10.11190849752501 1.5136122877037483 0.3059167961083312 -1.1973316318625895
