# total energy = -340893.25181263074 ev
CRYSTAL
PRIMVEC
9.12054370158551 0.00000000000000 0.00000000000000
0.00000000000000 9.12054370158551 0.00000000000000
0.00000000000000 0.00000000000000 13.34883762595883
PRIMCOORD
 96 1
Ni 6.48605649255994 2.0430930198754016 11.501211874314231 0.5324708367166184 -0.3046875516869204 1.2624144804048518
Ni 4.6372857791952535 0.4433149767540188 6.0504273980783605 -0.1372837961865442 -0.8547421629235731 0.001243899709430116
Ni 2.494222478569643 1.807947159251199 4.831505023560866 0.9631491281747672 -0.502330308577496 -0.0021039337168802475
Ni 3.2252431858417885 4.357695508563227 4.662308903204584 -0.5856841875148042 -0.03785075229918643 0.7815305146265895
Ni 5.1235658137503926 4.689929558092271 2.715527001901033 -0.9218284150491091 -0.12939822279088037 0.3951996389355646
Ni 7.263975036125998 6.058476277994615 2.704607886846371 0.4682626774698258 0.8821362386658098 -0.5386268290156853
Ni 5.121568414655028 4.434344558779881 11.480187196713157 1.0866857499785478 1.5795371725313314 -0.2129076534694462
Ni 5.575890063684327 7.953834729163522 12.569533093204349 -0.261250306438892 -0.19902703883261208 -0.25280320411280327
Ni 2.04903049389861 6.5729387929364105 0.1497876031191273 -0.6206396205440666 0.23931391137711686 1.3148457016213744
Ni 2.542533999154796 1.4788961795133984 0.3934903579500488 0.8499539975063105 -0.30571882116491217 0.35779702991739026
Ni 0.5740187539957867 8.987976710108981 4.850687351311421 0.5633618698685201 1.7756375246354517 -0.45604453813707907
Ni 8.879351033278857 2.109390252862654 1.429793907779533 0.3260428774342449 0.8061624542426568 -0.035748875464835204
Ni 6.988671421086764 0.7190974203435124 4.773984489886261 0.08090798849997678 -0.07907762015945737 0.4990683499967728
Ni 0.5458362736091299 7.343734191783381 2.3700462745358784 1.2689060016664664 -0.8661486049883018 0.02952937691768463
Ni 7.831272861384916 3.95783262665002 4.037142139497351 -0.8132283599505027 -0.5806337695750903 -1.6567599988702368
Ni 7.569075467807048 3.727411207721704 13.10500751698588 0.4390724290591148 -0.4099665128320939 -1.8369933020351137
Ni 7.909746020364461 9.05439251016582 7.085189576003202 0.08489936904755702 -0.45312916426249705 -0.49247475593965506
Ni 7.049213590927096 0.5108763171139538 0.3503219120218658 -0.10006913480945992 1.0983791271560759 -0.4686858810501734
Ni 1.8888646239730178 6.626494626214873 9.437828380614818 -0.4899818143144723 0.12070737988510179 -1.1385035059807875
Ni -0.10457889153965144 4.677407051435028 1.4531944870442728 1.13054645591724 0.28536134055448276 0.6063211470388655
Ni 6.263050075752774 2.1237915915456735 7.3060189190018585 0.7142007790316797 0.26638788477577346 -1.6510945730543436
Ni 3.6903817998350283 4.579871955883278 0.5250168082438802 -0.5396768675467544 -0.3021377886818732 -0.03723291620952942
Ni 6.263433138592981 5.816955157244109 4.931274652347157 -1.7079810018287425 0.09812898036395357 -1.2623286055592646
Ni 5.369738411846269 2.672556471773624 9.536169732239767 -1.1813501688326689 0.8491153036550989 -0.3544219427975702
P 0.14018458253689078 5.528554441287321 12.75402710170061 0.20747902625470718 0.6021852704936209 -1.1487483236372475
P 4.116821946423547 6.187787348195915 12.462821818520878 -0.44957641391423214 0.07649854657837149 0.8317966098709932
P 2.44783539272934 8.37928985702008 1.5361576897436728 -0.17281181388982497 -0.02798722924154535 -0.7970453224327371
P 6.462406922449067 7.723696047093453 6.000970337190113 -0.3367060135750459 0.8435738050115794 -0.661411660255106
P 4.66089886713087 1.1337656810307188 12.723204223879671 0.40489269785361237 -0.36236536601436303 0.3541548051791127
P 4.174691796926246 6.217520321031029 8.379733115449463 -1.403057679981932 -0.7185068626062012 -0.6959130364660854
P 4.792517434917228 1.0697759456285232 3.896458663213809 0.28052946638347814 0.7018276021783075 -0.3428301241949128
P 0.33046466402904084 5.4780266285552575 3.5527126632821635 -0.048866643793715844 1.309118826439926 0.01800029323216255
Ni 1.6550503627457251 0.951436889636008 2.6621590518251486 -0.7551990758209123 0.1868106992720783 0.039366931833396714
Ni 1.8455602819419996 6.792543246900786 4.5960983153835695 0.004481689920437443 -0.4409917575690147 0.6309327749399586
Ni 6.070716047793609 5.821734322202883 9.316407492867398 0.13909256726050884 -1.8355385718664583 0.9474564000298585
Ni 8.807973657386954 2.327599263623419 10.204999275349925 -0.07715289233291873 0.4260351362591824 0.9520563606957152
Ni 2.3693622337497944 5.388298718508678 7.289252623307752 -0.8141195043062044 -0.38659698486821803 -0.46357915595122734
Ni 0.3481950012043356 9.14754062414282 9.126880768294322 0.6645831160045522 -0.03458005196771464 0.3137974844079886
Ni 1.439075885219501 1.1239793375178118 11.633191615635642 0.09364574778161937 0.9917181980617115 -0.48946887923379573
Ni 4.236164262235653 6.931430888107262 1.641039383337964 0.012873513528558473 0.2506018255861103 -0.16739424241867945
Ni 5.770558950859992 7.779769150464705 8.153149621358267 -0.4305273677025811 1.5679641229817514 -0.6839206399908996
Ni 5.236031239526402 3.1089653727513396 4.728184767067609 0.4200611780639346 -1.0446320153416073 -0.4757566718540258
Ni 0.8412160296927366 7.641474344606168 7.085602736637997 -0.5396722395610641 -0.8637312537960609 0.19249412281010075
Ni 4.875669432873586 4.5067434355790015 6.659614969022674 0.5323073145555607 1.3340934941073928 0.9942813308031972
Ni 8.109796028390653 7.098573974050911 8.991256457664658 0.2034375091954819 1.016944576728668 0.9126223230698088
Ni 4.607206225695191 0.30511320044238993 10.652719474766323 0.42559033541228 0.5000057742093775 -0.4891462057870544
Ni 8.328178329483892 7.258748964520318 4.930299666213392 -0.4268990269213745 -0.9157773237590229 -0.6063031493167365
Ni 7.46501006288415 5.941259048891276 6.917180950451563 0.10854040550526468 -0.5467777402575938 1.162478014518514
Ni 2.483341669799002 5.387988620018986 2.5168833817310308 -0.8456515134762146 -0.3452479896077861 0.033201426452633145
Ni 2.2287234481309444 5.313546741405429 11.496019548720664 0.8193563272251115 -0.45225293230513075 -0.08722441763630785
Ni 1.0768170054532804 3.3900878947441946 3.563192168124969 0.31118961447149635 -0.16071965861198126 -0.46014056258332364
Ni 3.6810606040566585 2.576945810966723 2.656338320762765 0.058319561676499564 0.24644795131873687 0.08146643210660809
Ni 1.1509487855771465 3.253389184053188 8.395484294617022 0.19094271916258082 0.7541369531049851 0.10665681532930663
Ni 3.7267454080232483 2.6206423363817626 7.008033423550463 -0.5391245945877102 -0.9728583850427308 0.7988659205812435
Ni 3.8749998477271665 6.855812459341641 6.149863214961043 1.0430492442355197 0.7048476199515539 -0.49464502411809647
Ni 0.49032043546494175 7.315907412605489 11.225291710513138 0.6999365558031816 0.06896367165390704 0.8838439653855359
P 0.22247924937469155 5.580787795712689 8.101903109773625 0.6872342777451648 -0.35982408764974805 0.19068458040518774
P 8.639882034886604 1.7663027561944113 7.977799870090376 -0.27190187261546717 -0.47255204887379904 0.3826176885054959
P 2.002707251865008 3.2326581879629384 10.612766932587117 -1.2872649637896283 -0.16866565293193533 -0.65049449912197
P 4.13651320051895 6.233034366059411 3.969904578442829 -0.18966256689857658 0.7700777927049577 -0.5495342199568084
P 6.924444551545393 3.964673034510859 10.449576690332652 1.4496866926943806 0.5246477411277739 -0.33137020318442933
P 6.348810549240066 7.938475733379985 10.411012294922006 0.5669534438745204 -0.37171158311595337 -0.21886309972193274
P 2.4325949640153905 8.5997425215592 6.015160079256637 0.5274983232026915 0.22393048694251114 -1.1405493327662226
P 6.859059372939585 4.05536772220177 1.7246300794517986 0.7074976559798912 -0.6290658969345488 0.8538535896710328
Ni 5.350922729957054 2.800818679436263 0.7261156788087332 -0.508790205270227 -0.3449176028515608 -0.9286570079351684
Ni 1.484131371662894 1.2215326741571908 6.938138136028411 -0.21577263372206712 -0.354027535572629 1.0434727049261834
Ni 7.000765262184727 0.8320170492014802 9.301163415935923 -0.5942390190633507 -0.9370349475862185 -0.06261741772090507
Ni 2.8777139843359083 1.5213796726011162 9.303565767176652 -0.24464432245109477 0.6289761654342201 -0.1698812705065913
Ni 6.5914078941606755 1.8331654628981593 2.5637246706532935 0.048250607476271745 0.7169955681679975 0.6597972645801347
Ni 4.002523291340835 7.071303548045699 10.48130706226313 0.535037311892214 -0.0811956949437247 -0.10970511523732719
Ni 8.185514783138233 7.275932069066745 13.565623253301533 -0.6020577437768212 -0.5180335782453659 0.4465967624606179
Ni 7.80057311090547 3.7629448464228084 8.305152604569926 -0.26708876749754 0.8432421327037735 -0.10810614618132348
Ni 3.0743985116945667 8.498750739901773 12.451662833163898 0.11679750330773433 0.042239882505817575 0.11468225673694442
Ni 0.09412857243705229 4.908074725046335 10.404057880263487 -0.5870658983536793 -0.5736210857026831 -0.4835067481130899
Ni -0.3022949524037242 2.468192446523197 5.7456735470622595 -0.31184730266015326 -0.5300090054396872 0.32516253171182063
Ni 3.651756296780824 2.9399252136942855 11.953444006755639 -1.09661560749775 -1.4630911390257448 0.34452885205357436
Ni 1.0108481120433486 3.4693271794041545 12.693970144791207 0.1785379177403248 -0.1926699862663327 0.12415497211407006
Ni 3.1458488519369836 8.417970083337172 8.148023875734546 0.6298901926080571 -0.10649226472698434 0.19709665457911862
Ni 5.644066128697356 8.206975422733638 3.452196061957469 1.2290189356635413 -1.3677906292495217 0.8193087618166276
Ni 3.3096264572130987 8.516973586443049 3.6512008556625237 -0.5242268515402714 -0.21228364673220212 0.6646877599032165
Ni 3.3540252645018516 4.166091124109218 9.207307547758925 0.9414816705036625 0.5729497706672714 0.06037952952932183
Ni 7.386737555868523 6.248712580876455 11.516202400127664 -0.5595409534605331 -0.8191205570652216 -0.2894442523746047
Ni 0.4997902961074873 9.038249147614241 0.3972717354155205 1.0323948498454671 0.154010879133238 -0.08401850910450046
Ni 4.745181812520221 0.32920238076512065 1.532139178139025 -0.7582854280557199 0.35442014302535735 -0.5114039887439902
Ni 6.008322407558943 5.555277634663667 0.313059930267922 -0.05119323504436344 1.146622021322864 -0.019509016567205113
Ni 8.051533994503933 9.032101901083301 11.353800172858769 -0.07503815998276109 0.4499170850831025 0.38561662323281976
Ni 0.26665916361189723 4.872522845257601 5.688446694898481 0.4272618095774319 0.7287545084761384 0.8165044595986133
Ni 8.020296131939434 -0.2704168276634515 2.5212886043934106 -0.4075319352486723 0.43581278447123656 0.4818072489234799
P 8.775294748899773 1.6209395288796746 3.5700936836293646 -0.7165862485447207 -0.5582368899371288 1.0393928784298552
P 1.9580074666303788 3.2691312426769317 1.4465337538965783 -0.13064263672094273 0.6221059206769479 0.4462591766155411
P 4.875760638311732 0.8546788644172493 8.358428437153284 -0.5943344069906344 0.22678338301027395 -0.22108041908822568
P 8.742342224098158 1.6952537198798299 12.615866367836148 -1.7431290104847852 -0.4306101572243745 -0.36585461011454407
P 6.3432743791446935 7.822316487359123 1.3405302334131095 0.18433292715554705 -1.0518089927060208 0.7829340798423354
P 1.8515615997719088 3.4378248210690368 6.286594759609781 0.34092365120081936 -0.5904435565766606 -1.2082300239426482
P 6.87121705784425 3.8704304552761264 5.942395468650557 0.5139241840626827 0.5349527225982078 1.5660627921939805
P 2.195305775594792 8.808867470680772 10.30342088776044 0.6903085457951144 -2.2924608846228 -0.3339402779044507
