# total energy = -381160.4801134982 ev
CRYSTAL
PRIMVEC
9.32245157147269 0.00000000000000 0.00000000000000
0.00000000000000 9.32245157147269 0.00000000000000
0.00000000000000 0.00000000000000 13.64435020270555
PRIMCOORD
 96 1
Ni 4.641266320748728 8.031785952327926 12.10663131427284 1.2633418773151275 -0.011509800411812435 -0.17247062850032233
Ni 6.907768667194998 3.4863823991022502 2.6770211541153692 0.45092290063979756 1.5472317755304064 0.6327621148392134
Ni 4.281969722177694 4.020344446697101 6.6392046911535365 -0.8029902271622623 0.6861675270435473 -1.165438896919051
Ni 8.761733895248765 7.3757370814828676 11.092174274473098 0.2073363300292558 0.02674075842895395 2.3420222404906954
Ni 2.187336089341751 6.786558154374349 8.996415421755795 -0.6498620077442937 0.43385668918613024 -0.17555389541133637
Ni 9.184162134553642 0.31073128811578427 10.232198644218016 -0.8954861776101545 -0.1411013701604215 -0.40562957601963684
Ni 3.472920779311986 2.0317630207406916 0.7198414733816236 1.2174124617728646 -0.5400113680680377 2.1966057878946876
Ni 4.401716610131949 4.4491772100988705 1.49768537474875 -0.5537361738532979 0.07113702515614201 0.3234612327499978
Ni 7.087281790935529 0.7416793157352898 8.59171102701134 -0.2000361968234168 -1.4764248800201734 -0.8988162704246521
Ni 6.999622780625381 1.8283284867634435 1.0118775175033663 0.06442027525759873 -0.9954031031124664 0.05514039261756955
Ni 3.7505899936146316 2.7252135665154875 8.32791082362419 0.5032003698872753 -0.9591986281674513 2.316874023359842
Ni 4.3420902111163455 5.024363137688561 9.746363751863639 -0.6934172666274251 0.38643680514126993 0.1452750419221369
Ni 5.654402369188165 8.786615517977445 6.344254448730937 0.940339072258787 -0.04823749485014918 0.7503864849236174
Ni 2.2314592517152416 4.62930561563037 8.719994483692705 1.068548931168521 0.7990081025860627 -1.331234941612675
Ni 2.2124787407090243 1.1784790460849537 7.585713179592268 -1.577885495860521 2.0188456288606518 -1.2102362557393995
Ni 4.233558232170185 8.834542240513283 4.555262045558227 0.3640643509833408 0.4986047800967929 -1.079738372126437
Ni 2.125975714369785 9.08927822442531 9.08881489859181 1.2006398703002163 -1.230491663554326 3.930510708678044
Ni 5.236579420864167 2.9643624117230005 10.62576923528137 1.5036533767188234 0.5813256534357923 -0.06213199344405428
Ni 4.171610542761386 7.665991605146217 9.950565523589319 -0.5798907207614787 -0.582810208401119 2.0760526741992633
Ni 3.529219063185536 6.657321010916986 4.876831615646423 0.2747354854095204 -1.6808170398194406 0.3482045011329487
Ni 1.0187295192664163 2.94989396718388 11.526473723363102 -1.182658603231447 4.182400656947958 0.020239466975326435
Ni 8.94539550985264 6.7322082628388635 4.708583742151427 0.06757836127060621 1.008467135385276 -0.21407596274593454
Ni 5.453317092958248 1.385996813765897 12.651628347564186 0.9532948610885067 -1.4050109470535608 0.5209998599625414
Ni 0.17490317153396295 5.125399865726569 9.908458807448955 0.5037117623060552 0.2622736054970838 -0.9791421611689138
P 5.522471037282473 5.199485386829914 3.50677526149228 0.5091200778058199 -1.3442724915229236 0.8701641539055981
Ni 8.00484406784464 3.693583203436331 10.911154642589834 -0.3198364915132169 -2.6604255991018118 0.7179052244664604
P 7.377601571758527 5.67997385331884 7.9195082124179645 0.9731630607673433 0.5867182852062734 -0.034920208915952766
Ni 1.3049753888370974 4.635020278325268 5.013589180630661 0.5628301657347662 0.38360653478132645 -0.29157389712309784
P 2.8165269777659296 5.5275890630891595 6.698052665479051 -1.3409190016696584 1.6185171533389546 0.23131829476615004
P 2.481515365035365 3.90726311147833 13.533994641539666 -1.485101581858565 1.8679951497332665 0.9539031840964667
P 7.744533258008389 5.296979583344169 0.27208506592704435 -1.7311325002445412 1.3640026229619993 0.8020430327576445
Ni 3.3291033218989616 9.068815443649944 2.336458021589027 1.1322562395194953 -0.8921712543043087 -1.6663584411919496
Ni 3.0060803816408903 8.431001287700838 6.728574371291603 0.37983729754688134 -1.4783519218395573 -0.29951294946451645
Ni 7.503053799956302 3.0905511135796604 6.244868726832026 0.1981677761561103 -2.046892507695539 3.502536960635252
Ni 5.782222500036027 3.4859349214360917 5.056650515792163 -1.7646892531540639 2.203522312508863 -2.1168337127713674
Ni 1.68582549499476 1.0767897464504645 11.386837385393246 2.0067362471916277 -3.0705209242022864 -0.24996059245768565
Ni 0.9087609505628595 1.0643722412145697 5.4545746916491815 1.4565361115160462 0.5627607459494115 -1.5311400121748662
Ni 2.3805252492542484 5.480995451100419 11.409487213261963 -0.08589412886065853 -0.2397525415764323 0.2779208251160375
Ni 3.6432419659935147 4.02385901086672 3.737910527495006 -0.38908272740454924 0.06374253246428377 0.8854254509400429
Ni 9.16756817110027 5.246890052088566 12.175385325432936 0.4928048855855641 0.3585362220762599 -0.006555027509698387
Ni 8.664659209046533 3.5517327832641286 0.1809646294201332 -0.11062377039685466 -1.441097665473789 0.6514329517758393
Ni 0.9333451870925727 5.522396457671446 0.6815280627070889 2.346297727937598 -2.3673154678398456 1.4364835637405455
Ni 3.5230476003731015 2.7600142775106793 12.278032040823977 0.2412666642281135 0.19557173329415997 -2.2817239578212702
Ni 5.2679494697521445 6.829115144916286 2.3184069589852263 -1.1234484114198782 1.1936266722071764 -0.13855674936169685
Ni 1.9118669735643838 3.5160744067421335 1.9451928727515286 1.0227311015034581 1.2738317211028578 1.7084268311169093
Ni 4.032389053877863 1.0191303846756832 10.833504216079428 -0.5213297324981344 -2.052031114473685 -1.485649483942235
Ni 1.908632082936114 7.946224493577895 11.196225883286848 -0.28006229693907253 0.030452660062902395 -0.13298568303182257
Ni 6.2731148222631345 1.437540647436514 4.555180007986099 -2.3945233957132053 -1.3414579048922637 0.14623149229813523
Ni 6.385524940982668 9.039104791107304 10.719042225811531 -1.3885186058254926 -1.1885204613288627 -0.8450894703251576
Ni 6.134648451941255 7.174250939843684 4.527153922407518 0.5842299715667809 1.0600784318036647 -1.0550958909874089
Ni 0.623762424986595 2.892374442179773 7.015760876206355 0.6433689438207824 1.0552511856183504 -0.5147844751804489
Ni 0.4802097251927148 9.140150841596691 12.978751301938432 1.1601498806059698 -0.594207394494467 0.2649516665498792
Ni 7.835343256884403 4.7987411694309605 4.96842656492849 -0.6099386891867946 1.4527077389088916 -1.148113775377042
Ni 6.658430382631003 5.227760381860296 10.061234208391387 0.7912497987968824 1.2200090188554473 -0.23110540742439553
Ni 6.046756380346649 0.030241100026065212 2.660962299371111 -1.9907977215845005 0.1323364794835979 -0.12831707391155964
Ni 3.9799316199721733 1.1238215136539849 6.2524963565497504 2.417215180883766 1.0112986912968003 -0.4775037364521196
P 0.4505317012298989 9.077569225494168 7.954642667172499 -2.203304797181418 -0.1543399803378826 -0.8133682279624767
Ni 8.949329584334283 7.29179772927266 9.010606057243843 0.3135473160703955 0.2505627448180588 -1.6268166743435855
P 0.7323167778160637 0.7224638789543392 2.833399682515514 1.8080352242398667 1.718723842167543 0.893299454371481
Ni 6.376053330382317 7.426199510793602 8.955687496174281 0.6022824581931175 0.547217913118806 0.22126219608172862
P 1.0665257274829572 6.310656333963546 3.1822038620602724 0.39547628963571896 -0.6872365917380099 -0.5952818585055684
P 5.253108127157892 5.326699558338187 11.747403701842005 -1.4613785272100124 -1.0116506753195802 -0.12243953208486008
P 7.165972603019754 1.598492770482852 10.638691085136832 0.5463846185842332 1.9642073726904818 0.272245371997815
Ni 6.871196690437929 6.56181249654631 12.313520748730888 0.34656747975015795 0.054902822685466736 0.18422725481561822
Ni 4.465165214212654 9.22884464400983 8.488422926965473 1.004506093854999 1.8425931647203944 -0.8083864584771691
Ni 7.005439990285439 7.779259389392554 1.2173173107720867 -0.5165590505823684 0.3266450297946181 -2.080569074012378
Ni 2.9858040498930887 1.6414319815312988 3.4851350551078335 -1.1207297269371344 0.37002828187625947 0.6211715817881367
Ni 2.999741114703647 6.378523779997566 1.9365155350086074 -1.3492231506599794 0.20300530675406975 0.5093846443211162
Ni 8.177057712155966 2.7322520173061036 8.517021411058682 0.803653314667558 0.6323484243405626 1.713815349122332
Ni 1.0556837165299948 8.383932230691805 1.8522200651557492 0.46742295517734983 -2.8072479309064104 -2.1456490943411626
Ni 7.614764734822462 6.150375427416447 2.8925068209893454 -0.19211282821128203 -0.5492169458267058 -1.3266835747965666
Ni 2.4197354797513753 7.191963597462452 13.304182231387518 -0.4227803767673106 -0.6829096822278821 0.6748590440092636
Ni 7.749259740857187 7.743144212753022 7.008843617283657 0.32158149922878165 0.30437850508693387 -1.1831800229525558
Ni 0.388265183983962 6.211055263437797 7.001052844666812 0.15910654848859052 -2.780765825455482 0.9133010943043883
Ni 0.8441144114800428 8.079451646225172 6.046889691401359 -1.2192361452451648 1.792411658769997 1.519888350520447
Ni 5.83439093794899 6.128309185004012 6.39049473981244 1.0188194251538776 -1.5516664142629921 0.27490492110784914
Ni 8.136094860799718 8.628404195636326 2.9772516329986374 1.3280897111154741 -2.9211004926532076 0.4709633642304405
Ni 3.177716033966759 0.02674704524947862 13.063004820760089 -1.1907354667023107 1.6649116814430938 0.6879097065456347
Ni 6.056638178807646 3.9002899178473625 8.157560737343388 0.3045230010845981 1.4488323151138855 1.1131537143620893
Ni 9.055484338178976 4.2241052664725895 2.7677015709172252 1.480531445989379 0.06851964213795296 0.513585055555709
Ni 5.112395046053842 2.3098703902581175 2.5463222502818885 -1.4459858468040259 -0.9447204891559342 -0.1486149049286473
Ni 8.272062814152212 1.5405723800694782 12.613218915640452 0.7232551759244641 2.2125990779991507 -1.0159238487736373
Ni 8.920989332144252 7.032353907414589 0.15299727528523518 -0.681988198854877 3.1453140580537764 -0.9761077452179641
Ni 7.51736376282199 8.871328633652052 12.605783328421122 -0.7581293620938298 -1.389471199546749 1.4049582394387545
Ni 1.9135729821666128 8.181075688700012 4.194627675214407 0.10447549140727166 0.6836789562937388 -2.0090245290051723
Ni 5.705237696554032 3.5161116965476467 -0.1099378046140084 0.819985219058362 1.0182416982735367 -0.8956080478999995
Ni 4.783489638976063 6.4133804257010265 0.004499015035167259 -0.2128724293561366 -0.8109611611828806 0.5710391839081197
Ni 1.091938729940201 2.151612455660108 0.4841027808882926 -0.5088647672619043 -2.6245818499303253 -1.47367431385823
P 2.813739564803818 2.6584461697441077 5.480280419079703 -1.2800972423965955 1.2716077168683455 -0.7857280976477049
Ni 4.488023864992243 6.72757500450385 7.981453105091351 -2.281393828175361 -0.5149719086009067 -1.0451315806858452
P 9.061394772352818 3.011720464724761 4.8989220964324405 0.9442864869423092 -0.19497292336789646 -1.086208553231813
Ni 7.99635131463901 0.7900469902213201 5.734801986610032 0.007596324290019176 -1.7990587317728695 2.5603369239083262
P 1.422689982390883 2.8963364840155505 9.201899962791131 -1.5914426657196656 -2.332011393221913 0.7436368249046097
P 5.782819136924238 2.0196997686571727 7.393831959608145 -0.4365360357905062 -1.9059790851762077 -0.851626757223043
P 5.093703531040351 9.081251593788595 0.618362861148284 0.13804587116354936 -0.06093128826773377 0.22635272323075853
Ni 8.227324369987755 1.3205998173471272 3.5616938225618413 0.4058974849690429 3.8540368446900204 -0.8773007649503793
