# total energy = -381172.18545177125 ev
CRYSTAL
PRIMVEC
9.17413767256931 0.00000000000000 0.00000000000000

0.00000000000000 9.17413767256931 0.00000000000000

0.00000000000000 0.00000000000000 13.42727781984904

PRIMCOORD
 96 1
Ni 5.226735671641478 4.546519222698818 1.6419009508009625 0.6914917674699381 -0.3525609783294315 -1.2065189547888124
Ni 2.4380821714910748 1.0644660375530106 12.001140137427171 -0.49409403671063296 -1.5816115385618568 0.10094639520809068
Ni 0.3745121587242115 4.393191857250322 12.649596638637759 -0.6476284904280847 0.7642853543928967 -0.19109235736656768
Ni 1.6259599689183977 3.4898053316068838 6.903728617032104 0.377801240953459 -0.015840823686998524 -0.361859372912222
Ni 2.248994016805564 1.3908635130467322 7.372354586035136 -1.019969736708237 -2.3723003226489467 -0.7706706890939501
Ni 2.7720574848272217 0.42905332550024516 1.0379876409660755 -0.5268568329639507 0.9009024635297194 -0.3092427751577706
Ni 4.490153319909638 1.3016725451241409 2.546859006253611 -0.08597820393403258 -0.13793351395540115 -0.752611003378762
Ni 8.954096128056793 8.068223031518913 2.3427105869166165 -0.40230976761778453 -0.24753552795596082 0.5183549661405267
Ni 4.51170336965765 0.5093784066299553 6.388282435645514 -0.023840811173339582 -0.7202050762442307 -0.8656876061914833
Ni 3.891247254498959 6.207028994661495 3.199492492415356 -0.39331476320802583 -1.1844964277711343 -0.24877351412811993
Ni 3.5695836341222975 8.510838484964022 8.197823324313818 -0.4577694912479859 1.673271623372015 0.045316207438296154
Ni 4.921998335549653 8.065938671200797 4.135493995436042 -1.974904447393012 0.8381822016823629 1.6119652111530496
Ni 6.905245102014371 0.10588331169292223 11.179619030654052 0.18823868996785648 1.531311504755724 -0.1922015312703464
Ni 6.100397990735935 2.9457973069335823 9.831385901246767 -0.4236836053078703 -0.23282264722581839 -2.152645580263654
Ni 7.616011429910152 8.905253018283098 0.41882507924053547 0.13340065908205412 -0.17803500996197727 -0.6121495807951844
Ni 8.872327037633625 6.514142432449672 0.3326102016279716 0.7631247584258921 0.24443966263945643 -0.7825260457706394
Ni 5.901300851684703 1.1057588318977531 4.454405374465576 0.8910206856396333 -0.46288572942862866 0.24714420605481305
Ni 8.86785005837563 3.087583606999788 1.2904222999108643 -1.1472629973409725 0.6288540380340589 -0.44078761197800853
Ni 5.196167444412711 0.47548730668142236 12.950005616504335 -0.6663090975567234 -1.1793819893627042 1.1084074579263556
Ni 4.177984932180568 3.4691818697790717 3.297981449022328 -0.6889530602084843 0.9000144044978112 1.0168859555765906
Ni 6.510527822147111 1.9306697825967514 0.8952802574623645 -0.3923302878075695 -0.466795606005996 -1.3131256336064738
Ni 6.988509576902814 0.4040583869994119 6.585488784891269 0.722925046278555 1.8894795448592878 0.012717961787300678
Ni 0.9155385886047905 8.508921090158857 13.23968544018602 -0.127250066099626 0.6496540054985458 0.5194489705356538
Ni 8.327630952623542 1.7301781745963076 12.63584735828129 -0.6471345815108016 -0.5859181579024813 0.4341400247545039
P 2.9718059876639416 4.836513719307861 1.5896019433090558 -0.47154237666236215 -0.2323526495679353 0.7734960743578871
Ni 4.461052954732672 0.1142978309048746 10.706535348082454 -1.273727848535142 0.057950351262538904 0.07043074311773677
P 3.6548113745050252 1.7985163272454932 4.592612843366733 -0.05732274498086903 -0.08017265299584903 0.3052675925601065
Ni 6.392383275252735 7.639598138255038 7.433273613426247 -1.099344319282823 0.3752473641833537 -0.5846068952902254
P 7.966674499947718 2.845349671901238 5.260874473311253 0.5745801071818427 -0.15566101314215128 -0.065540504904971
P 7.437381792343727 5.069821218303893 1.7333680223176287 0.7021433336465134 -0.6886105892674012 0.015717153624940673
P 7.998976639225176 3.1322524840636743 10.99679314244704 -0.918391107232786 0.7061349713044097 0.6388096065848741
Ni 2.2987270179481656 3.1136840291083843 13.398073260058103 0.28764936525771106 0.8117371201169568 0.1907473153223231
Ni 2.3022223644590176 4.221534564429955 10.72173505962886 1.0492209202638705 1.9402050962386133 0.2493206448808416
Ni 4.530537874609828 4.594288958347134 9.741852737983349 -1.0476558897695958 0.5980146840556991 0.12411152047064432
Ni 4.06406048868512 6.40118127342572 7.962469992583088 -0.22219576363959154 -0.700818958408135 -0.8425723603302585
Ni 6.170506751985107 4.942098871521511 3.8373280942673764 -0.9345129524953132 0.16370728048539546 -0.14413964276611307
Ni 6.799311332563418 4.188636106193952 13.150837585018039 1.1749869456188022 0.373606229035505 0.8682497104917047
Ni 1.3066724502380898 2.7513147592077014 9.139612790887515 -0.07769153844520812 -0.415899076266445 -1.1941645469885176
Ni 5.940740470189046 7.734541290593127 9.815192630574048 -0.2643718827870092 0.003314923305845904 -0.7654693473986688
Ni 8.39214348980022 6.324834098456392 7.731520247007762 1.4871468944233677 1.4035662441872343 -2.174968155020254
Ni 6.6482499791573915 2.8073503930352253 2.827690374004283 0.6375767626190374 0.8137307535082179 1.764223369261239
Ni 4.006722127286622 2.788185619121392 6.735498782102693 -0.20123767333068568 0.45341147138960614 -0.33421255772923086
Ni 6.68228603048354 6.661020379008065 0.43168171598675226 -0.5093303940444132 -0.01680935824785492 1.049870123812095
Ni 1.6634454960662797 6.7030104078274135 4.252217468381519 -0.4220740947289054 -0.09945849780865453 -0.44256887224814745
Ni 6.866089881782565 5.000409691529327 10.831623799895635 -0.07208987598771456 0.6699384667791947 0.6283516444763437
Ni 8.554452336178176 1.2169035116326017 2.9272811445638887 0.105751787016534 0.875506392054118 -1.5320422122741615
Ni 8.148221513342097 5.994932102313994 3.733132823934026 1.0219939662271171 -0.4622519524993717 -0.8330729054802556
Ni 1.0604294169105566 6.896144357293202 11.358430316149388 0.7046763844810122 -0.945933792737745 0.86522892138751
Ni 4.340651569933651 6.325971691546538 0.4619508663224649 -0.47413456286957056 0.2865671879371258 1.0947232755710437
Ni 5.823118849150623 3.2886623598209526 5.216591827449747 -0.23819728127417045 -0.4295986852407247 -0.34188832910693373
Ni 6.2186067565950784 6.894924196962642 2.767872243152023 0.25208586633080454 -0.7074755444927041 -1.6177689623190201
Ni 3.3796881553082962 8.10008481218083 12.632154767807226 -0.6401406666914717 -0.7191552948234775 -0.28716291253959575
Ni 4.583903834330638 4.6781772746075925 12.203690421955265 -0.22061247831287167 -0.7874677060466309 0.15820254861708238
Ni 6.79072433956038 5.392457297289873 6.282918380153417 -0.5741185941643919 -0.3160852520009008 -0.4934831425995113
Ni 8.468362226840016 6.8382371993496305 9.848263562601137 -1.448929502813382 1.9712419109397596 1.231620892062763
Ni 6.641140022343978 2.7920387570073704 7.246030377857095 -0.5620979155544319 -0.6197718732271327 1.0871454632237858
P 7.855162854699919 8.80841081941549 8.601138606149506 -0.6392785758014926 0.29856498372895035 0.4173142114464168
Ni 6.282926636877458 5.860200714234259 8.714289669826412 1.0997652088703254 -2.778092649498693 -0.005314213124061815
P 3.703223299801005 6.407639866453647 11.183190522508843 -1.7457011420873354 -0.5132441272765226 -0.5611365800824271
Ni 3.945337971107846 2.5381169703213504 11.237960125316686 -0.6170282490437243 0.6398131081487239 -0.332959144938104
P 8.859327284337358 6.947225956695895 5.389655515598497 1.3364848771577047 1.241956726771132 1.9907095327460682
P 0.8513095322868668 1.5177326650115048 0.5520197992347902 0.9648450278199511 -1.4650582900544447 -0.011862298655224732
P 4.3645318506888975 2.428807118151254 0.06536297975294053 0.9085095864530162 -0.23005048379731996 0.3518636951520908
Ni 1.985723783677133 6.858209297391955 9.114919681521084 1.0879520182854812 -2.1022573576190893 1.3448905847228967
Ni 5.512739418297186 7.003472595693366 12.049894258063977 1.058125936062984 1.1868703273199495 -1.788578401066836
Ni 6.979399658043821 7.888795243961821 4.968590111901399 0.04720056894520258 -0.6963904903231362 -0.15974726739638295
Ni 0.846388524758202 2.5575661425077207 11.306923036751671 0.3222016493112838 -0.7143257346453181 0.253094510100977
Ni 2.0699148464857755 6.128553419717053 13.447687914822778 -0.3676685233948313 -0.8232098966432467 -0.42223735977964705
Ni 0.7552774097890976 8.345190252418217 8.194869251934568 -0.9248242644526394 2.1192986293720923 0.1968385158217255
Ni 4.404586136427431 8.246384788056327 1.7927696473126902 0.11929995801461389 -0.7649080755785601 -0.25328245774206704
Ni 5.437483965728886 0.7948684015675326 8.681728819862323 2.4761836889981743 -0.3585336509730987 -0.8371133940982164
Ni 9.236338478204761 4.809725236862483 5.744457956622143 -2.386976179493566 -1.7783281840937373 -2.08249225917702
Ni 2.6651512567669506 9.090533905771748 3.7369327518206275 0.07071510712737498 -0.4123123873564512 -0.3414736101670184
Ni 0.32901944408375206 3.4233845737628634 3.450327181723681 -1.3716850792079214 -0.07116787839407743 3.21125488372096
Ni 9.028865351320436 1.8588638058501843 7.0415599462824865 -0.18788876282760544 -0.8065828296095271 -1.0341038621167737
Ni 1.6758856269552977 5.987134085163799 6.450746387846146 2.421980463482893 1.4017104219254182 2.4192504661462397
Ni 1.2877462039076735 8.539792063935808 6.001066848276742 1.8060863280436121 -0.5200002150534335 0.04611813451430122
Ni 4.328220613182456 5.163057981006761 5.64157825765272 -0.5789484114528675 1.1520776451207966 -0.7503512608103078
Ni 8.440390280615372 4.090069169415479 7.8792211137289465 0.020614848036874175 -1.108172459097414 0.41268185488072795
Ni 0.35194653191910985 -0.026602247447555915 10.868186408778447 0.18627822380737596 1.1174613405985077 -0.7143491316840859
Ni 8.804566855667336 0.12317105700801495 4.77033607611617 -0.878005761437204 -0.30857660232868145 0.3025525076217886
Ni 1.9818981682046253 7.335200245262692 2.047700589159324 0.6986085810203775 0.44352455129319746 -1.0825264763945357
Ni 1.4498532192535072 1.618538091418976 4.888885202488575 -0.1252461482957198 0.9903128330737526 0.4826690827031429
Ni 0.5695965298913315 5.185167653162023 2.094615295162466 1.1623317187486368 0.9498521539555449 -0.8447709106434742
Ni 2.4021929443245273 4.03695091141591 4.857922487333386 -0.5055254184760261 -0.04105743216194219 -1.2829642795317453
Ni 6.524940392668237 -0.13853590303524765 2.4690081900949687 0.5907510605147503 1.5700315470337414 0.38018439647365493
Ni 2.0278881211151325 2.349808617350859 2.409779956304776 0.39106607638316515 -0.143041781716244 -0.1809151597232497
Ni 6.042903668994433 2.3529369983487616 11.899347573789864 1.2682151462470288 -0.12246678577836972 1.2299370766024367
P 4.97672206766838 4.522198583328031 7.5407862519966695 1.2564276666937975 -0.9545009655814657 0.6790977646809595
Ni 3.6255458748472313 1.9822651337175758 9.02221777105334 -0.16870447658967075 0.6688670880918868 1.062682702195731
P 1.2588660180384783 4.901677620270026 8.387550916405646 0.6285771302235884 0.7067584638210216 0.2822058256446366
Ni 0.060747471013807036 4.732020289495238 10.091136935106002 -0.22942673417039197 -0.3072144318738322 1.4618922336216371
P 2.2932317093917334 0.11472901538259131 9.766370621317346 0.10223503211252716 0.6068122277426711 0.32091944016475055
P 3.424788216849899 7.314145598957164 5.814910748039706 0.11847283412762823 0.4832879472340645 -0.32944444691662617
P 8.1019655104347 7.7563757386136745 11.874789324249441 0.6227067874857404 -1.6787868967632895 1.6402548021263625
Ni 8.096653684634745 1.8541391248709482 9.24485574776034 0.0447662484720971 -1.3073499074649615 -0.34807954551931025
