# total energy = -340875.1390389151 ev
CRYSTAL
PRIMVEC
9.13656434997739 0.00000000000000 0.00000000000000
0.00000000000000 9.13656434997739 0.00000000000000
0.00000000000000 0.00000000000000 13.37228546426691
PRIMCOORD
 96 1
Ni 1.6298442646123517 0.7931533546213368 10.158684345140095 0.9001236763821658 1.7997423881034555 -0.9274899842102607
Ni 1.5026450188605136 5.06625221714779 10.204805720844396 0.4370710823583699 -2.5483825797599273 -1.8519854045685715
Ni 4.4274419266380205 2.6738246278208018 3.530309903989188 0.1436462480694623 1.2955117771794527 0.37865356165142533
Ni 5.071999115982577 5.578329226676112 6.21895495247757 -0.8996390234362636 0.5392433795537617 0.7538273922843662
Ni 1.2529792675737208 7.093071056438466 2.34416186202249 0.14251624823007714 0.258495112291258 -0.08752472248554603
Ni 1.7879342336716866 3.589235260658625 4.9487212835533 -0.228399064236826 0.29614608987481256 -0.08942348217015568
Ni 5.23691409844348 7.129589903247122 2.117861959829631 -0.9015041016694603 0.2019005037256652 0.8593914887701263
Ni 8.110427471785915 7.232778258477781 0.236073284837647 0.930891553692642 -0.9377527995888496 -0.4712860376771819
Ni 8.311002464027698 2.0418576238408495 5.27360105803204 0.43318048905471207 0.36966524210988594 -0.0006744003592052902
Ni 3.5872160799869435 7.4540567050274 7.906725033644056 0.06371913542551606 0.5766938110907358 -0.4106367994262412
Ni 5.570480918092515 5.616474381899062 11.371818142907154 1.8029233569345982 -2.7553260452261386 -0.46705528742528596
Ni 6.843213437305042 5.570910336606402 4.476345386118463 -0.055837418684594166 -0.1471141520134047 -0.9642714147046684
Ni 4.255427833851793 8.537890760950223 0.600172674480468 -0.40888767794561837 0.60735421628907 -0.09771503275498655
Ni 8.543665069477386 1.7442614571529544 11.315038965150741 0.7180600048767697 1.0468758170704617 -2.6793872278059787
Ni 6.330213634800072 2.855221971963669 10.489327464269047 -0.09466544729538535 0.05414486147351965 -0.08813433104508692
Ni 6.86369761407387 0.3986017967490318 6.75530415826105 1.3101354406298986 0.04541673757190243 0.8638783208968864
Ni 4.351626717526631 3.5544523610337686 12.827845670631365 1.4897907598041182 -0.7682577087770833 -0.16629098205217166
Ni 0.02634162802953058 5.228654644474246 3.270245829071439 -0.589784582836423 -2.635226988348997 -0.808654110316259
Ni 7.255290752482416 4.653060241147135 7.318291016751719 0.45047912823415964 0.3551107413344788 0.4171360339973397
Ni 0.0188377679134564 6.159204564067623 6.40656790119485 0.6023698757006013 0.5916817998591358 1.035273971165475
Ni 7.294751572939406 8.862933166270393 4.195621712400681 -0.6545560707858534 0.6045501711813718 0.2765753668317366
Ni 7.3747330552919115 8.129276203576321 8.682451305852876 0.852806379353441 0.08024567232562954 -0.7090876261748303
Ni 3.395622330280288 7.793406969767722 3.554607682623898 -1.4927030483549066 -0.19404192691319483 -1.0462039878144176
Ni 1.5056509484577234 1.6305477800499968 6.46142109123366 0.6019132477791569 0.4557941126891699 0.021343755783098724
P 1.1882101644897687 2.2689926079947567 3.3060565921603864 -0.3942125924319469 1.7389270565882955 -0.8702590276122496
P 8.387530325140856 4.412914789678861 5.368022879984516 0.8734978462645215 -1.2158322617699384 -0.012241022150882146
P 6.738672870583844 2.256393286066026 8.069598907679374 0.3725538765115906 0.29290007213368907 0.22023863991322068
P 6.184960538336724 7.478825930370973 12.641784110502554 0.19342306238227333 0.9296507393070054 -0.04837813419307152
P 8.887967351973598 9.023151954770912 9.894033715031467 -1.4564510080014077 0.3232588869312046 0.7886221313660483
P 1.3622251648194275 2.5983474715820476 9.036990194795028 1.396057594515015 0.8023456515997279 -0.7381742591281415
P 3.763040120013403 3.368961836162786 5.846229732644093 0.8577230999287679 0.7200628942394116 0.46177861240737894
P 1.976759604448388 5.982585642962265 4.070376777715235 -0.4645338065550128 0.5168655260791937 0.548281835606946
Ni 8.962594807748705 1.4446826560498787 7.752207461157697 -2.335732807937558 -0.1683640625311165 1.6132363645559895
Ni 2.1688650017460573 4.191636343129243 2.592564940147172 0.34837239416938065 1.979601852868681 3.312255014985121
Ni 5.254712125359482 5.60291572073718 0.3916954679267495 2.173034685442967 -0.4856469343845443 -0.13440313220463948
Ni 5.126663179143995 1.4457699071807841 6.063743001117691 -1.8763334943956331 1.3602662958480185 -0.2683925739106281
Ni 6.617238796795043 8.977523953529376 1.1798958911357842 -0.09094788923448208 -2.267509356883785 -1.1203489465589478
Ni 1.8003690974461624 8.112620247175977 5.54698441613159 -0.7867850781573095 -0.6380267056722625 0.2877074721891561
Ni 7.892511280834393 7.269132647132182 10.977749909277076 -0.22563307145591463 -1.3024897511591826 0.35015031200540986
Ni 5.398357186536785 1.746554734748394 1.1431915720753862 -1.067579111056084 0.4978041385723685 1.2395486315502715
Ni 1.3904936942229749 7.656577785427862 10.31822885520817 0.10309917988503535 -1.7521229864532792 -2.3624272865096088
Ni 6.148249823681438 3.585772502855152 5.540110978940158 -0.22848056820703877 -1.3588827852369307 -0.856335732662938
Ni 0.6546466971080797 3.888996793044206 7.060647217670751 -0.1152594693966531 -0.17923622935893005 0.9338681198224627
Ni 2.9325264410274743 1.0910062587611515 4.827782411540089 0.3919644198277185 0.7404908230764602 -1.7101906078855513
Ni 2.5076031166899875 5.685364075403505 6.196556665524501 -0.24490554653228144 0.6437209278435624 -1.0969367382825947
Ni 2.2261969416320495 3.1090174502350783 0.865879491401976 0.035816238367660895 -0.44879865520794326 -2.6601409779818574
Ni 2.328526459834936 2.903161523928896 11.389174873775906 -0.8378579855737247 0.21589321846033144 -0.855993775942487
Ni 8.759214890320466 7.098196668912736 4.2835976883627875 1.4646142605384906 1.712247233304264 1.5618338417142974
Ni 0.6047893803329607 8.298942199382358 7.944956072569784 0.6414390737879211 -0.7912605974301599 -0.9492919105767007
Ni 0.7338433486022262 6.170168441017932 11.832466346630811 -2.4634559570188608 -0.05329845431282434 2.4062226864280043
Ni 2.6190052430692554 -0.29627045123332013 11.86787601455466 -0.0011076312418819634 0.5974487842499001 1.981640737675581
Ni -0.15988804487918534 3.252251366026744 1.4139189309837232 0.19825596499454243 0.5392459506569228 1.3887615750742341
Ni 3.547097426912936 6.1171306862708095 9.83855192938084 0.43149718781501817 -0.228291077904052 0.6800876393980546
Ni 7.339968428795306 6.9572925769730105 2.4758654338880803 1.5764490205243107 -0.9442551194837415 0.10013366949880818
Ni 5.538703948064868 0.6296600215383249 8.995349390137752 0.1911700046820385 0.07864464638709681 -0.5956510689195289
Ni 4.008155862365817 5.346507185125946 3.914937325908638 0.9936444685501468 -0.7811906147886676 -0.1257094610853835
P 0.9725141586206839 1.908162280995953 13.070659912480627 0.26730808259719774 -1.3512414666415888 -1.095547571244552
P 4.131179698312413 4.069288612927917 10.432241297958024 -0.38672451158501786 -0.6623837943603883 -0.152437363998531
P 8.771238608709305 8.822531279708503 5.875180763387798 0.744301197961486 -0.08602396957030346 0.5448324436057648
P 5.532518494152068 7.227351139387379 4.301449621007129 0.43462699169325153 0.00952208055782231 -0.6706977135427223
P 7.539876451855945 4.640168549166396 10.869060428786597 1.4152418807529497 0.6683268993177007 -0.1162100062353805
P 3.2579343089126542 0.9636242817268081 2.7223160282591947 -0.8733140123884895 -1.175080533773873 -2.4334758657170026
P 7.580853941957726 5.050254093364464 1.1486579783915278 2.299748419423149 2.3419060266278056 0.6483558555124125
P 5.742166094570233 1.934749682600453 12.521874929266259 0.8929394999289009 -1.8610968799515366 -1.912521514280416
Ni 0.13095163263808157 8.893257422602122 12.1648481539128 0.5632209734152817 -0.5444701751703398 0.8694157057753478
Ni 5.284643509433826 3.922354388665522 8.430543441729746 0.6830919734420171 -0.6085009282990036 0.48463777639373956
Ni 6.7781154179125815 0.20461518089797207 11.371978946435759 -1.0070021208039752 0.39176618777398337 0.23390122500197782
Ni 8.722988413563819 5.838209656654942 8.933034368177845 -0.3405626683169748 0.4725155392089088 0.31559288574551453
Ni 6.411857971823374 3.6354571385683037 2.1835474602953466 -0.19987781686868156 0.1366325357557905 1.212078451154461
Ni 0.021807151254165165 3.826118958734182 12.282791146549341 0.4852617831309836 0.8476230353802887 -0.4118611587516456
Ni 3.328550813036771 6.189930829220864 1.2746850029660954 -2.058400765445455 0.19157649609183783 1.3272006236423015
Ni 2.7977438470516725 5.00115419775533 12.491158714333555 -0.8577434116437421 1.152971874800292 -0.8432477891307284
Ni 4.291709129993191 8.28042238390046 5.622591311580922 1.9826640367337725 -1.38522605111715 0.6913845524681125
Ni 4.274367931283452 1.5418134692654937 10.831444280626497 -0.16549933938881176 -0.5576810174336588 0.5132919497953224
Ni 6.954652109940811 7.244061915172476 6.372642924941356 0.21047256166539238 0.12385338171325122 -1.860191337418132
Ni 5.655597149483415 7.539803359342943 10.030229735477446 -1.0062215338842089 -0.23175769629641377 -0.4105023307309059
Ni 0.6011557687803457 0.3768366736898428 3.8604450301527757 -0.16983370509810752 -1.1399356104416238 -0.11721299357859812
Ni 5.154995664496419 0.29157882555500025 3.312007236375167 0.7877255876937078 -0.0931973473902911 0.0758259459913791
Ni 6.8551640631808795 3.8580969331725843 13.006339414695224 -0.4115803942864331 -1.0029068676886792 -1.4386327488730644
Ni 3.428157635130331 1.769478374138666 8.537829545970585 -0.644156215608768 0.30084323824016573 -0.9240174522806279
Ni 7.669871486230113 1.422891950611139 2.3245849460713 1.4975457211591887 0.40136720119885716 1.7236135661596765
Ni 8.560028655825723 3.334955544488577 9.223333161098896 -1.588046238443607 1.0249155107492867 0.7671976429436852
Ni 3.309290935860728 1.485614463331033 13.158542695488656 0.45776820569640514 -1.1613685835044192 -0.033582206830819576
Ni 1.7320275977892343 -0.06174855498414189 1.105824852115907 0.29833229889285395 0.5177075623645149 -0.4882059533609721
Ni 0.921002210082481 5.281619306708366 0.7514568169228981 -0.7460217801970185 0.7920224152968488 0.02253520498803861
Ni 4.149525919075931 7.14620017682684 11.999365790819718 -0.6879572719541185 0.30488346974781044 0.5497015987726082
Ni 3.160684720363411 4.566308564777812 8.092532597290186 -0.8964161456235916 -1.7427718842556825 -0.23923574984101378
Ni 8.044032060287668 1.6261439561416224 13.492769175067535 -1.6425410270573777 -0.7959587742367775 -0.649302792806714
P 4.23955762196622 4.045780233433629 1.6141549566964593 -0.42133078880497765 0.2248897655319869 0.7256527296223632
P 6.5413139489141505 1.9822232697952924 3.98776213758183 -1.0100612193452734 0.13648726842717784 0.6053873223706864
P 2.1742098917593333 7.017895406815845 13.03784411511194 -0.35515213609537544 1.4164287019721993 1.2829784205991324
P 3.125499811917043 0.2853056606265983 6.810679046111413 -0.2590790098191861 0.7743828478382148 2.822354961751178
P 6.065682693681484 6.447645893502009 8.051265478105634 -0.580350948227349 -0.9197177964640095 1.2497456266879314
P 8.814162186969767 8.538329316028236 1.9755407867940786 -0.9274961548578478 0.8213620448012307 0.0012883797941203618
P 3.6213228738665304 8.282861846521904 10.06386142802252 -0.07113702515614201 1.7388234411308956 -0.20370181860046205
P 1.6972903809850044 6.198473516677979 8.214340356551709 -0.9207292684476596 0.2618725134039232 0.12385980947115441
