# total energy = -340863.53739084484 ev
CRYSTAL
PRIMVEC
9.25465474374326 0.00000000000000 0.00000000000000
0.00000000000000 9.25465474374326 0.00000000000000
0.00000000000000 0.00000000000000 13.54512269230755
PRIMCOORD
 96 1
Ni 3.1674611270328383 1.7875088071590028 5.763056774851759 0.45761599638925704 0.968909684807628 -0.25085276525465183
Ni 0.5882258579373546 6.751899979918814 1.6174369416975654 -0.04262580509032659 -1.3613052786354944 -1.1653162552982574
Ni 1.4472244054834427 7.821617762193909 10.606440559941836 0.13574936181988878 1.0841275023330683 -2.5645190803104736
Ni 7.2753895276568015 7.2804610784772805 8.429008159253614 0.10187867721437294 -0.21633236288027904 -2.468593278245426
Ni 5.004778486228009 5.655778667550969 2.4748566451378617 -2.140317140605288 0.16663139611072594 1.0199730791423467
Ni 0.6311554250741388 1.0294785432834075 5.856504726046483 -0.46995909133564223 1.326574045801896 -1.0212681438046864
Ni 1.7357105043447267 8.774699130252758 1.1863791840592495 0.08874856759031811 -0.03240695557579581 -1.7087405057025862
Ni 1.4539803034742274 2.275553027082325 3.829531726405903 0.3101604018760336 1.4785079878014473 -0.5941778268081122
Ni 6.843863484486522 1.5716902576451717 10.956771814848624 0.05535867927596273 -1.2956285052629752 -0.1496546590470713
Ni 4.4163767898497985 1.3452936377156324 10.847178192921403 1.0891128713628018 -0.2272605797570086 -0.6635469614305539
Ni 5.917639124604736 2.7032846617920274 8.85726453288945 -1.7726499027620375 -2.008327245827832 -0.01661266885601655
Ni 8.4806787478319 4.725371203707765 10.441827089870761 1.3986204701461848 1.0146498671572204 0.6391219956189703
Ni 1.3944821278814135 3.0756364422868594 10.084072676363416 0.6887831102895234 0.5714438755457062 0.6321859306207693
Ni 5.695731012244417 2.3128122672342415 13.077219604182794 -1.2272263625394928 0.21762022845376716 -0.6189272658386502
Ni 8.149713783521712 4.70855549596906 3.345211579566816 0.7966025784683635 2.168674865812375 0.20780607057682277
Ni 8.77035869716005 2.3938275151949653 8.649210638737632 0.17903336931950453 -1.3587107784354406 0.04767185215466628
Ni 4.153026333376146 3.798489763336465 10.340888421095572 0.09923429761299038 1.3198462401597593 -1.1812036159524752
Ni 6.556219559210391 5.091735222558711 1.153216979579279 2.0808089579373257 -1.8073073449349069 -1.6664869963500137
Ni 6.081067073398251 1.3177980583586173 2.6847920106068415 -1.7421738456603675 0.46872521892854113 0.7709833352383625
Ni 6.136706057947013 5.471407434986023 7.552218463354809 -1.2046225090970482 0.6692429833740667 -2.2303376329294946
Ni -0.3137078095383871 3.46330467644573 1.6348967734090916 1.419675233933955 -0.13603192605731412 -1.1837685484661742
Ni 2.31295108705597 6.022522127247972 0.1229684490180179 0.834049410460912 -0.09615463024640214 -0.24482712788586222
Ni 4.899377222916987 0.6860623664296538 8.088605297996848 0.16531473418183143 -0.6772789663046659 0.6174689361255689
Ni 3.7489866149081 0.9480653451670622 13.262503345709236 0.1623530804503462 -1.168168122924756 0.9843162491706854
P 1.3800911396955642 2.3649437376206657 7.446931957763082 0.7042269556484194 0.8250762604280242 0.34048244989834264
P 4.354907372788441 0.9005519475168046 4.101340937350209 -0.07480573225698084 -1.5456343491362994 -0.1923992491034493
P 4.359534700179389 5.748223414167335 8.555668290064132 -1.3027116373620014 -0.18816464219681142 -0.2702062300805992
P 7.841450487391514 0.5621119985392766 4.771323341096318 0.200016656439391 -0.7591464905044345 1.6351766162725063
P 0.4589623927366905 6.167246418727273 9.546250444764706 0.11615909839278706 2.297493561950701 0.35292324676485676
P 5.219782626121034 7.273446050152604 11.9087361460753 1.535863900013097 0.03305307380022694 -0.03872852691844943
P 2.6785099509408896 7.12822200731508 2.0619602220435405 2.405776085808889 -1.0330617940055047 0.9506039445199049
P 6.379946149579604 3.6345990818038567 10.742732009983873 -2.609241105808197 1.6703310526864523 -0.5008061586234859
Ni 2.224541369924511 5.523279775038554 6.237555882036298 1.7420961983448966 -0.0603551040492896 0.638279702223333
Ni 7.547791036507149 6.668015788975703 5.8709984409004115 -1.255443191293341 -0.5799267162057367 -1.1341863666626726
Ni 5.043453688561556 7.754262384691264 7.637295579299307 1.016169132015224 -1.7610403435475672 0.6810217211765497
Ni 5.14559731338935 4.667760977690459 12.620410769613851 -0.2020552841359746 0.858826617405592 -0.26546820117498154
Ni 7.838498252516089 9.115705395001306 2.8417805706031114 0.44530761133554914 -0.49420330859498757 -0.5909539205541757
Ni 3.2710299686970443 2.992501878381081 12.268061074499133 -0.6999794932259752 0.772595931141121 0.4822615628520791
Ni 3.927499650996105 8.651658494927442 5.930678007726951 -3.0028854844414994 -0.9274071946884674 -1.4137375282932814
Ni 0.2213232181781033 3.6028371065923865 5.627578808965052 0.5937582227721903 -0.7277083265998113 -0.530902206677918
Ni 0.39958637858699764 3.8162124272437974 12.72342155559471 5.272574365475107 0.5079602531697639 -0.17754032971374586
Ni 3.0551281272901765 6.259987314296659 10.262611625484812 1.373055734303203 -0.4860320856381049 -1.2665518996119929
Ni 8.165659553710919 8.06232207841626 10.154575561957385 1.7764715905009727 -1.7875221918881796 1.5092820357595103
Ni 6.038504916056308 6.054978201568083 10.246763029170813 -0.6115024341294888 -1.0122754533877727 -0.3847162229057374
Ni 7.37082352776772 4.192849112902647 8.651514122312845 2.12374175274511 1.148275240655571 -1.052032935791369
Ni 7.056618743267546 7.500536769190784 1.1522970668939585 -1.707652157734414 -2.052972138230716 0.535898888561561
Ni 4.159643411545202 2.847222307614867 3.118412382154264 -0.024545550549848052 1.1460736050185616 -1.0134489048705837
Ni 7.187072357073162 8.655323338221073 12.129698432716909 -0.45004332624832166 0.26247389443334795 1.5763320353304722
Ni 2.7082914300290333 7.31349094139387 8.006820062758269 -0.4244233116873723 -0.5764896654997298 0.23000908903642323
Ni 6.714770304933845 4.124790381636579 5.18117220637096 0.9015223565019055 -1.137836047600118 1.155555833477384
Ni 3.192124782026593 7.873286499841238 12.147875500174033 1.278672337024611 0.17660573371461843 0.8809296199522184
Ni 6.015146167386799 8.530413262629814 10.093147790842544 -2.226230038519024 0.7739997534671832 -0.4647204686445222
Ni 5.901369441498162 0.20510813753474208 5.698460209939599 1.2544057511677622 0.6897033081109477 -0.3056558291374607
Ni 2.1798691512922956 4.763194977801378 2.2072046251215838 0.32281999962157304 -0.3442439738233039 0.8899320805611448
Ni 2.1933069100356097 0.30609030318740793 7.374045998562777 1.7279265917127338 0.01321109937363531 -0.1814581767109133
Ni 7.622809268169204 3.900513077652094 12.350727352872948 -3.7099918185202427 -1.5510328944440512 2.48049414344807
P 5.8037235788943695 5.866248026600864 4.524002872170388 -1.134515467867317 1.9728997582581573 -0.005459737562990598
P 1.2073715175010258 8.45955037096483 12.558265762753416 -1.6696800493660149 2.392932911297634 1.8176120692950244
P 2.1803041200670443 4.326486327953236 4.492348250954389 -0.3080263862521663 -0.8814330419511981 -1.4408945483240476
P 8.74274280729087 2.5708412972083035 10.935329705184449 1.1507342437190247 0.7384704502123218 1.166562726110849
P 0.6978296599848354 1.271052797055257 1.9755828271021858 -1.1685738430036066 0.5894783644499137 0.2578641635754785
P 2.3713387040749563 5.04733138891517 11.745341514039001 -0.1303724137786916 -2.1328956513302364 0.7719009619566255
P 8.629317758283944 5.0064350694339685 6.877861384293298 -2.3401209097029247 -1.0627017283591247 0.011639384011141245
P 8.639127692352755 5.362230272523987 0.3066465079398 0.043605395394776515 0.09044600989739907 0.96343914861136
Ni 3.1921895646100666 2.147024381471344 8.792450483589915 -0.5827652140957963 0.007671143392012595 -0.025408669881091726
Ni 0.5741439752212205 5.961543206890054 4.734304721968731 -1.6198808664557007 -2.7332700938673637 -1.7064797346928675
Ni 4.642921484255848 8.03743631170774 0.7425527792183513 -0.7655855612615589 -0.6274121633812098 -0.03775922102664465
Ni 1.992305062827595 0.0729387107325625 4.09318666102188 2.3971718890796456 -0.3863362750076637 0.48386593122472144
Ni 0.6214806089651439 8.825729296720137 8.68171946459 -1.0569514561389088 -0.2021054206476197 -0.5278356519374523
Ni 4.276807341084014 4.2466001478759035 5.008349857508343 0.2150367839973071 0.6946984473326939 0.14958986724740692
Ni 0.11674932100458331 1.4819108516059916 13.081486925502729 -0.10700211448386732 -0.3351517817140486 -1.058093540163152
Ni 7.487746836282203 1.9178143464881083 6.452517450517326 -0.2784805542742494 0.5390405195143362 0.5699665196692313
Ni 2.9866436819041406 0.9673613003873167 2.2738742327048893 2.189460692209474 0.7563568435744393 -0.17167615762348498
Ni 9.51489567436364 8.149713783521712 4.477990579525754 -4.8994695015560525 1.4366339732754807 -1.215408029748326
Ni 1.204132388327362 4.838000352403449 8.139169029863218 0.1821138080170412 -2.0838359176891075 0.5936378951442421
Ni 2.2471504915566847 0.9571256521985391 11.352858082997107 -0.7278741627537142 -0.5746901503971458 0.07555649438007633
Ni 8.662764080665719 8.798622412863962 0.6552998939346291 2.142102257530169 1.2621879662163422 -1.3395416617061575
Ni 3.3057071601648116 6.480609029642295 4.112732491921246 -0.20530695830405285 0.20347221908815927 -0.11918811502709795
Ni 8.215819782628799 2.3388733751000625 3.786227345750452 -0.06431151759387634 0.6179458757619873 -0.8241267520305614
Ni 7.364604399754286 6.231038754138886 12.340107636510721 -1.8836809358996396 0.8519306616167069 0.04716020262557039
Ni 9.301946067832196 0.635119193717225 10.62778734666176 -0.101668875196412 0.5476146343365924 1.0280453146275197
Ni 0.3970182118850213 6.5228102554477445 12.154837776966454 -0.11833193767438974 -1.6642573356885466 0.33707753798185175
Ni 8.480826822308412 8.723983622047966 6.7156587517929065 -1.9939365243237983 0.895991142271031 -0.6068803619764451
Ni 0.21125785563731245 6.8395137967390305 7.212303322405046 2.073578244516842 0.47050930741215746 1.7697651250150745
Ni 1.9722409712604427 2.3761233605971968 0.5915686392445756 0.4699673188657584 1.2581819303807427 0.8774773997375598
Ni 7.370962347589448 1.9521028424550357 0.9334781582998366 1.4713610923440208 0.035729335080809436 0.2985932658637245
Ni 5.465419673342136 8.002907194716483 3.1175859414822407 -0.25529460307608937 0.30106795265646213 0.9581177363984468
Ni 3.696364647818235 3.945102004391273 7.212967806618387 0.5663821447520826 0.17959181292613585 1.8497955960061045
P 8.362024818873204 6.935068107362114 2.9520109127793264 -1.5508266919705163 0.1840616757720314 1.9717553602410687
P 4.242935304582272 3.5017485124097294 0.8566737782648759 -0.7656932904840167 -0.3629549199692459 -0.47011747129037745
P 6.227290618952218 0.21797766047444764 0.42546702068457176 -0.4337265913661692 0.2797648203033117 0.1743706737365126
P 3.1587710061926373 9.077724291776404 9.43826898370049 -0.22454883725280037 0.6859356135383994 0.08950601458163294
P 6.344519331074503 3.698761603406746 3.0065569225983477 -0.7780356140994537 -1.5379706619434546 -0.2079791058195773
P 7.536028370279359 0.45758437463966606 8.350297320333583 -0.39206829239543445 -0.11669440207096676 1.0166859237506425
P 5.194471145292545 2.362694856508665 6.812519819671194 0.45505363497871953 0.688080427795544 -1.5646710540527762
P 1.689289155958733 7.479223299228077 5.632157086685656 4.247582235851614 1.8003463402360411 2.295171341575428
