# total energy = -340896.82404323923 ev
CRYSTAL
PRIMVEC
9.03532115275880 0.00000000000000 0.00000000000000
0.00000000000000 9.03532115275880 0.00000000000000
0.00000000000000 0.00000000000000 13.22410581132756
PRIMCOORD
 96 1
Ni 6.238220456243101 2.0098258126246287 11.447578984640346 -0.08682898197010208 -0.5651544429925686 -0.03673052265181416
Ni 4.79803548403338 0.35616150683861203 5.892185737050606 -0.45776409193134715 0.037238058415852 0.4661921680940423
Ni 2.6411959653149317 1.6901651950907803 4.62157386011638 0.7852930669928153 -0.6718295131543203 0.2575546027548597
Ni 3.652158018958683 4.406038087507023 5.041187714922852 -0.2813866721774509 -0.347289445517847 -0.4105231566665124
Ni 5.106573621559761 4.51983795403346 2.6071716574643085 0.06144705156188772 -0.0495749827146501 0.6204768697139572
Ni 7.393359125223284 6.063043654955721 2.5020935861866183 -0.5707530201262687 -0.3832494085522239 -0.1869294842381297
Ni 5.013717628841048 4.474236689534934 11.560446406051614 0.2824680781670877 0.5160044636304791 -0.47184550972507766
Ni 5.395730995791247 7.785410733674943 12.412317240176707 0.3516299818747299 0.23943398189474893 0.7379248621214969
Ni 1.9619837885470197 6.39484774375686 0.5253885493242734 -0.3413214008598702 -0.1432549261683146 -1.263603101396314
Ni 2.656836105764099 1.5381730271902068 0.25089550088654733 -0.06910868187220356 -0.05517355984835014 1.5143607358339983
Ni 0.4823759042588423 0.06737819489169883 4.788303539909869 0.5093291084928325 0.08157133311558856 0.655003185625601
Ni 8.677504105776668 2.215831128766174 1.4177294892182049 -0.20453768423819615 1.0400541661629379 -0.1159140722615165
Ni 6.936542336679407 0.5176687711614955 4.697122695682938 -0.034014409272231746 0.5590583573971598 0.9154934739700169
Ni 0.6651938764173156 7.298162984395771 2.4603576319620117 0.28485431901107716 0.5445311103152622 -0.11340956067210792
Ni 7.4172394783181135 3.958608997360999 3.856386991014552 0.6093848735658538 -0.26136009254387893 0.3701630076819109
Ni 7.528708232056633 3.6164685014692486 12.530461288983881 1.0342596709683478 1.1683815244871427 1.040340587055105
Ni 7.999032825321195 8.86994740527223 7.251213650021442 -0.869054208670871 -0.05246001757192901 -1.2971680818359532
Ni 6.707027115599252 0.8258183898898906 0.33357049403384426 0.5049044970625756 -0.6727275994885575 -0.28639235292215837
Ni 2.029866154344012 6.71950489373923 9.007334880496874 -0.8509819245501924 -1.1118347384403497 0.9596544847579473
Ni 0.298351716762435 4.940468282439316 1.4743023438654441 -0.9167944521696276 -1.355268585523111 -0.45850174142832
Ni 6.50326255903679 2.0164035262277444 7.032883252662849 -0.08373465931549451 -0.3175988604319498 -0.35206989762562596
Ni 3.332045635380665 4.234827792087454 0.6773752960323169 0.23451854687100257 0.4068837601417122 -0.8693414008939867
Ni 5.8907671916719115 5.673359300575514 5.005310262759043 0.42025683901450855 0.28627073974262957 -0.4977594013773621
Ni 5.25037075341909 2.7519599640245462 9.414200801068954 -0.2825449541516102 1.19474484497202 -0.3325164009737306
P 0.25279111120788483 5.448253316086458 12.376625012091006 -0.13201046360274682 0.5388338028201688 0.9976677307769269
P 3.9567206152963683 6.069512944708236 12.726628044215492 0.021288991285763337 0.004806420249707851 -0.7644866717704253
P 2.369684572768728 8.298327829583858 1.3568856383893815 0.13403752133510466 1.1829555656465756 0.4234138965862514
P 6.441000162829273 7.705520426423909 5.842462559165073 0.217933903039444 0.055841789559968345 -0.10905411191688962
P 4.571014011517044 1.0155700672942858 12.626614270292949 1.169435933893586 0.2628922129176892 0.3717131257778502
P 4.007237094355464 6.226140232221994 7.912815082855516 0.4154524756473297 -0.8297314998118485 1.9063907187923297
P 4.725319221563768 0.7502569048740954 3.689300416046169 0.01972576056370151 1.5436278602292317 -0.1242220779065796
P 0.25989468048641484 5.522785678053634 3.708805866769255 0.2580145731104137 -0.5270051856163569 -0.46123045321339273
Ni 1.3421155993412859 0.8416609215268461 2.7113516178461885 0.15714299700431647 0.5672987430290811 -1.4021961033125852
Ni 1.875922357132624 6.6693227215528195 4.783026912513962 -0.6119279517026815 -0.6761679926286741 0.20751887835370714
Ni 5.840585019485502 5.636468085408587 9.226034822479596 0.24672588757047187 0.3101051231580659 0.17237292658019346
Ni 8.520443122860508 2.4635886627099164 10.435009547411438 0.5364411342182761 0.09201181172262217 -1.3465013808534423
Ni 2.291646506298793 5.287469780966336 6.918944242194807 -0.0906943784627793 -0.003155772020162307 0.2528775089941645
Ni 0.46737636806030813 0.019394316276220503 9.050299638361622 0.9829365952143393 0.6553595405237552 1.2187980292664815
Ni 1.4760913374003575 1.134501996082495 11.407020332726846 -0.6699248399324399 0.7116926678978452 -0.8744442693381909
Ni 4.0899915983265345 6.639858540152049 1.684367229679902 0.7583831299758488 0.7123868657513924 -0.13245166490522353
Ni 5.74159404388696 7.792024588561593 7.981778976562253 -0.7536857245001793 0.803107983687049 0.24445380370684353
Ni 5.320728797138135 2.6495988137364948 4.6997546846562726 -0.16356432714962799 0.29773734562133236 0.5510151753777092
Ni 0.8356930920833597 7.497021361718545 6.943554649217014 0.05031314643225528 -0.07723131097933796 -0.27924442902346747
Ni 5.103610036310005 4.315142759420008 7.249771612808451 -0.14052132928723543 0.5907670013543502 0.17229527926472263
Ni 8.226506063881702 7.180694777590673 9.364279749656077 -1.1157914090952525 -0.22372685557213728 -0.39602573438128574
Ni 4.5875847900172015 0.47130402204832256 10.480552985856308 -0.9101100981709165 -0.7632975365583307 -0.47010204467140976
Ni 8.240275892908006 7.253862806104455 4.464642985820939 -1.072670152425746 -0.20763586354754562 1.1046641888338393
Ni 7.3881638157153295 6.158429537521786 7.126007594411799 -0.37025351051318817 -0.22111512898090308 -0.25492822087560607
Ni 2.367994967763532 5.13932665976209 2.7329071828777183 0.010907390941123151 -0.22706260481358959 0.7969103395167695
Ni 2.2990102928187643 5.268902196550946 11.466423049874768 0.08858607387052486 -0.22214794112079164 -0.11234075308796136
Ni 0.8488566510783867 3.231590937799011 3.6337729480251384 0.6898364912547023 1.1632048653822096 0.35326546059562386
Ni 3.8219136277160235 2.456378476644962 2.3434703962897165 -0.2764208435317433 -0.45600854269282115 0.907594016617282
Ni 1.2902709281123301 3.4552693415884894 8.207315945857445 -1.2551487999813737 0.43480336937011577 0.11252484407430943
Ni 3.662178189818375 2.535148404106453 6.863165592253218 0.24448491405509507 -0.07791650997182065 -0.11375691670919763
Ni 3.9978132546740763 7.051968560964856 5.9548935745776745 0.5571441710935825 0.08277100985064455 -0.9463009462691766
Ni 0.8018693683563476 7.301713865502947 11.243213579239137 0.4865913005756846 0.2811323900747997 0.11688723480806322
P 0.23673715306225776 5.6504095855316745 8.123819642041848 0.486854067318768 -0.1924720113229137 -0.5984995941119177
P 8.46668296360427 1.8102175036685308 8.13677900278491 0.24004384756460595 -0.08938722961558154 0.05649947774862528
P 1.8347393645460814 3.3546971848353513 10.376571802533864 -1.0700630538202023 -0.8134970402308571 -0.1378898052016593
P 4.032816087776372 6.208729168879681 3.85768355956132 0.007441029659077507 -0.57726999530918 -0.26886719955420146
P 6.851980768531656 4.0326895932840054 10.442044448251252 -0.06915547594973896 0.17879862760087917 -0.4294799002746733
P 6.151869894560437 7.893626771895438 10.333513980864016 0.85954266963601 -1.2360640154357807 -0.5144157789871204
P 2.4545804477891653 8.753662825502857 5.723326432124899 -0.4155625188626327 -0.1995901104249337 0.4192913897774457
P 7.021085834185391 3.9573711583999733 1.60725799419678 -0.22761179244884025 0.049583467355082345 -0.5546843966991802
Ni 5.271206203376214 2.9480535331570006 0.3681775800814472 0.40786797843185235 -0.31237617858042976 0.24760700462384452
Ni 1.341871645677434 1.2759138032286057 7.099176305516451 0.6586706071748591 -0.6827525878247274 -0.693196923086503
Ni 6.76541335914779 0.7430656929829964 9.281431278347819 0.2669332157562822 -0.11021239389104891 -0.10690698366689975
Ni 2.7893661924818267 1.6786813022479776 9.01652560889947 0.16076465291730374 -0.6706894860126061 1.2354806321284852
Ni 6.339885886823131 1.9878067356317801 2.578409520496178 0.43612517350533275 0.10593819199572722 -0.3925938258816013
Ni 4.006071537961505 6.758429056104921 10.471798663452383 0.4072861377864534 0.8864248387388346 0.17029727499808736
Ni 8.290991149026535 7.179899669352933 0.11692337695582887 -0.04828840269274264 -0.399007442717429 0.6204596433227766
Ni 7.578601273974774 3.918302430900147 8.280974592295197 0.6122118014916875 -0.13134249100144477 0.05291793104495403
Ni 2.947800544172266 8.496183286288575 12.347730959437978 0.2709438795775721 -1.3087814977051653 -0.016256571068178457
Ni 0.05379268641141691 4.917229437127208 10.237599532026271 0.5045252593462859 -0.7177406738641381 -0.597410731923113
Ni 8.739197276768532 2.210355724310833 5.6768442238402415 -0.513742921289812 1.4048708219312709 0.6668073773493807
Ni 3.5304251406966203 2.726272546753037 11.47950167685349 0.19690716427613184 -0.3567019970809986 0.06278916741207895
Ni 1.1648154976463057 3.4215043474472195 12.756103971533411 -0.6668621418467161 -0.20311175042494697 -0.4805895744662949
Ni 3.168551503995522 8.344127871141819 7.839937088142092 0.5357978442073223 1.6965205665976266 0.12073309091671465
Ni 5.845084609285435 7.865535959268944 3.460126730095406 -1.0006244994124056 -1.1519969124815321 -0.004812848007611066
Ni 3.0443610184531735 8.231240572024603 3.5112377332686298 0.8880986268968318 0.6738727688365943 -0.10764823270829847
Ni 3.4338014191695283 4.400174164253695 9.374039703274326 0.5951602453260395 0.5494378035882602 -0.7693056904256235
Ni 7.290184796055727 6.076795413340258 11.388361491570533 -0.718386277867937 -0.007845464186347779 0.014860719161916343
Ni 0.5292737373041358 9.14302190833126 0.35046925468206935 0.2963885449029218 -0.2825058733835586 0.06241790011558927
Ni 4.6759502282568635 0.11091940622880882 1.581457635414228 -0.6145643608842641 -0.22450821382285208 -0.7660043939665324
Ni 6.040572811918702 5.484900577589533 0.3074963650285253 -0.01485197741116797 0.7997912606089903 0.6183019735498254
Ni 7.959449084531014 8.786180945362217 11.384103144838189 -0.3767913116317059 0.48557828593013785 0.11935575095321381
Ni 9.094682941605065 4.992990602734526 5.833867258408693 -0.10853783440210339 -1.0772701130916027 -0.12498775242801055
Ni 7.811540881669738 8.907895752982514 2.4031242953581957 0.8209900061737925 0.023198292493334244 -0.07772239168314357
P 8.373167392461069 1.7394167292261997 3.6225718607259867 -0.592499924885057 -1.232696898735761 -0.7244227138700039
P 1.8071274239264077 3.0389398259231326 1.6686439642786073 -0.143321774850508 0.05422842232626145 0.2884857451160774
P 4.799237181710872 1.1015592161416143 8.143430806019271 -0.22795143517644612 -1.101222253031826 -0.33678571777304583
P 8.541920080600352 1.6723385069878298 12.418704308509183 -0.3905888796364306 -0.8432719575004444 0.5200716917213173
P 6.465720800766259 7.592705409873763 1.2050570097967976 -0.7868598972593028 0.5050937302552462 0.22964604927004967
P 1.8698596568198618 3.2859745341962023 5.904973426696883 -1.1003876729456725 0.4434846991941975 -0.07970599777207563
P 6.827341448482621 3.9308253856445408 6.0354290037397815 0.7323260278774807 0.38472265066364064 -0.390541828448579
P 2.39343843137119 8.615332062777986 10.131860075259917 0.18959289000290577 -0.1857596322997446 -0.3008303827243593
