# total energy = -340894.34367988474 ev
CRYSTAL
PRIMVEC
9.06854496591747 0.00000000000000 0.00000000000000

0.00000000000000 9.06854496591747 0.00000000000000

0.00000000000000 0.00000000000000 13.27273222019655

PRIMCOORD
 96 1
Ni 6.390630687612185 1.9616078453003662 11.612365859158473 0.4665251259534287 0.23177620823917505 0.12010497041441251
Ni 4.693044454025038 0.3806684890624265 6.006123483559094 -0.15872293989692665 -0.039919976123389316 0.31485420780727713
Ni 2.846353207736485 1.6041439485320865 4.7243762761198775 -0.5695152910644256 0.48947325010916987 0.6816716960557229
Ni 3.530030796080912 4.423871908896516 4.6853670240437095 -1.127020959262485 0.40746508656647895 0.09370205494085153
Ni 5.029423984260611 4.38451442470213 2.696620651738707 0.8718605677714145 0.4311614017421542 -0.031223991011288154
Ni 6.997978334835839 5.996874474773413 2.554814910702752 0.8616473746838387 0.4932836249941956 0.48203607710483437
Ni 4.965182413285257 4.703164949960738 11.657533559971142 0.3875994579908034 -1.546675131695988 -1.3079417754126894
Ni 5.696406381729031 7.785536103237109 12.416030269881782 -0.6182053000709611 0.40941064032862395 0.19128673276556088
Ni 1.799335305628856 6.392353711113782 0.3234713636451833 0.8653587620971549 0.3657638501729507 -0.6392510649976668
Ni 2.7232295757302203 1.7001617002947977 0.26630507128007386 0.2656054980837942 -1.5231125138846995 0.14410390443217116
Ni 0.5790274888387119 -0.028282977351486913 4.752779865116477 -0.8525215011231706 -0.24886016030465527 0.30322922197383906
Ni 8.695219963722666 2.45647833204868 1.471840228680205 0.513307119303974 -0.311141020621748 -0.11804603100285475
Ni 6.800664938268681 0.6424211508803848 4.862890135413307 1.3528098395699735 0.960483922637778 0.18064467967068246
Ni 1.0086851634694554 7.420182572540461 2.4446112343950452 -0.6328963264242325 -0.5763310284346783 0.6466023631564154
Ni 7.8049972002604155 3.899637474263082 3.931356523218544 -0.1846633139117723 -0.18842740893989482 -0.23263958468073487
Ni 7.4684181620404475 3.8333373436305562 12.768765827419887 0.6853555726652133 0.11064588188404172 -0.8866513529273441
Ni 7.816296607012998 8.803670690331115 7.074671017746421 -0.006515689631330715 0.5750508761706742 -0.045177624977902835
Ni 6.991394571350788 0.5740851319525504 0.6254838298596805 -0.8700705657505273 0.7783032659385436 -1.1728634715178963
Ni 1.847507415315626 6.614913936251717 9.168392143459018 -0.14106228939236998 0.034279490008160315 -0.05813521357983536
Ni -0.16162323186775052 5.130166447835598 1.160656743164836 0.8229571572024923 -1.2785818341933337 1.8244401479604515
Ni 6.660220385798988 2.0074221333533715 7.113188754697398 -0.6445688776661544 0.5240705284680652 -0.4009761364080256
Ni 3.6275811319055697 4.257037891218144 0.4165636028730766 -1.211542890365965 0.1762234106745352 -0.3380275605999469
Ni 5.964263987869493 5.533879922804654 4.816409309321527 -0.6840268265514606 1.862385002635341 -0.9829242539191654
Ni 5.184088014890857 2.8868623971135183 9.452892342915963 0.5625494012695538 -0.7792239779806 -0.3146071247934776
P 0.0687921667285204 5.65377515288161 12.412778289736135 0.7890630755582088 -1.5483103533065656 -1.562797234068831
P 3.9490610431246966 6.267897003029966 12.581116778987743 -0.9009711119841258 -0.3150197868508639 0.5644599880287053
P 2.1759701059885947 8.571080654704934 1.0302927850339636 1.1187162960515313 0.13302887756493217 0.9659524019515169
P 6.3347321778024615 7.7844569464124245 5.76919233556336 -0.8632800251912552 -0.28345435333975705 0.32479692084228584
P 4.782650744652857 0.9577018049116579 12.8134692187416 0.2253870168833796 0.4614309992599731 -0.4656509508785916
P 4.0161138629710775 6.219634207895743 8.23335444557469 -1.060089744657574 0.058571015565673325 -0.5598584847009519
P 4.766690105901216 1.2246616251223388 3.8180740759698253 0.4898519736048273 -0.9569126603467519 -0.10016092319231783
P 0.22720876117435038 5.590503916193998 3.4812520007506844 0.5833115735175696 -0.1760341774818646 0.35398074149509356
Ni 1.4132601501893112 0.8791509771827735 2.6514003533665154 -0.3313321508576423 1.3520004562948005 -1.0492828838500572
Ni 1.9131636792712385 6.653645690858681 4.871596845223222 -0.14961326428617458 -0.29515595804740136 -1.040586384517324
Ni 5.743490266046371 5.298215650509833 9.104642994463333 0.23188136635847165 0.7912541696722567 0.39454837850481084
Ni 8.762635525358856 2.3149364856648122 10.199775874425837 0.2008376096787896 0.6374106693548184 0.14789371049190658
Ni 2.319280318597787 5.430525718343035 7.030486347184138 -0.15715996628518095 -0.31249522065679736 -0.24635693426682734
Ni 0.7229507350726827 9.127218229752158 8.99702748082592 0.07630777072380407 -0.07525027599356718 0.8065257511193464
Ni 1.248475623623366 0.8448628095009817 11.673951253377943 1.1071051941751642 0.6456649389438106 -1.1833533153056266
Ni 3.961648183231104 6.875670871856647 1.5571570976435205 0.26374170540217806 1.5475554774184122 -1.6729283810999833
Ni 5.7189417154209785 7.766401473824631 8.149669914665521 -0.3627304626632656 0.7659185191209454 0.38629565157771534
Ni 5.357451384785808 2.9708915327230083 5.022547306780288 0.2038997935438811 -0.8373599628913837 -0.30048276957695347
Ni 0.6434087154031425 7.491751527669978 6.900559492909987 0.7778996027422217 -0.44864618879047896 -0.037382040192884006
Ni 4.702620837276023 4.678933798401428 6.76294795381871 0.39548117473172534 0.021573355295401556 1.023988885169959
Ni 8.165381168436666 7.450643814339757 9.101842627845999 -0.2320546587115423 -0.40987292467702313 0.6636616326315473
Ni 4.73076960016528 0.3904806544767874 10.676891057417425 -0.1052787040348574 -0.8201582543011167 -0.7972607808776527
Ni 8.071403839241636 7.046195787246336 4.680548906220558 0.6555392606347291 0.21076566742577896 -0.08387067067272652
Ni 7.209003371057816 6.255191971841871 7.100566247266483 0.5967622997058367 -1.418239787039009 -0.6433825706675371
Ni 2.5016668905142625 5.15310986604108 2.434948699968981 -1.331691055313487 -0.4533222541099096 0.3976406442768894
Ni 2.336846089769337 5.214893861390472 11.274627860920063 0.07233104546424317 -0.29291832696613423 0.9666975076476578
Ni 1.3002751512082367 3.3891509534634467 3.8175299632851103 -0.41537817076596845 0.13591365531189495 -0.3362933515176595
Ni 3.603322774712025 2.590039859056728 2.5022155374713506 -0.38140027115862696 -0.12088324334133375 0.2405130738915406
Ni 1.0334876333477152 3.6145224274724095 8.223160494426555 0.5182932596646558 -0.8348641930527235 -0.1295645731654156
Ni 3.8812373969749685 2.386650537510252 7.074976627704336 0.3799740802350617 0.4368751642974799 0.32232223404954813
Ni 4.0945295693832575 7.095782589913364 5.977122277463783 0.620334430598822 -0.5860474843914939 -0.33584392268506674
Ni 0.7928211517714133 7.356875061673868 11.359892132323855 0.5439055609161213 -0.3620432067882539 -0.08552003335069142
P 0.09536663025000214 5.7232220685407365 8.174409811585038 0.6216225532826263 -0.053508256330785264 -0.9441607599977223
P 8.646385850269493 1.6328277555613133 7.942960598887809 -0.20061083837996418 0.5793703294816344 0.46335341309366646
P 1.7615829538543786 3.1410446377781414 10.452568814035487 0.5916164938388392 0.47601326794952215 -0.16019721044960797
P 4.09170018342274 6.3261624030182 3.5420810783384002 -0.22670265037100956 -0.7998442253341128 2.405402504519554
P 6.805280827544013 3.8370463784313635 10.429646253482918 1.0193763260986122 0.6559462662651607 0.5219563103385397
P 6.362708638341559 7.801832278144325 10.279823918892161 0.07751001856202136 0.248721577844262 0.24768028106394116
P 2.4650118326539605 8.679241187881535 5.635893796352924 0.561788097623497 -0.617785181814407 1.6941561801305083
P 7.047175190078823 3.9440370693358275 1.657260228813967 -1.0625232937997315 -0.16799150968304616 0.7543385275928299
Ni 5.429455630063097 2.739788738435047 0.6273873174017086 -0.09165134305940989 -0.0024811145506408883 0.1865312203584465
Ni 1.607562789901046 1.1806882516526196 7.101137565585435 0.6893063297828452 -0.24432653410035987 -0.5581612995041871
Ni 6.957550762361512 0.9520067588116405 9.478747670839146 -0.35217274175207736 -1.2327696609552252 -1.1343668581045947
Ni 2.9914952663842174 1.6839380737455447 9.342556265854977 -0.8436162282137406 -1.1889994578478105 -0.3471061258624474
Ni 6.597692769780487 1.8857222628721109 2.770456743054535 -0.052327862869438906 0.7809345329138034 -0.41888746947080757
Ni 3.940790530317028 6.970700152242126 10.42316949882586 1.1673718522757057 0.04200051280150186 -0.4239862241499536
Ni 7.83899517451036 6.9624749821581835 0.12021353599751368 -0.26065715293958336 1.9193814746250428 0.7114209022936974
Ni 7.746350921392882 4.0589627368923855 8.333656177875058 -0.8286485511603149 -0.7612154572183213 -0.5006791461273183
Ni 3.2016859964896307 8.400319957151869 12.375269881815305 -0.1434243618666433 -0.13616125254632677 0.7218567529150407
Ni 0.10834190407150639 4.890085794249839 10.290190172390457 -0.4456513678282132 -0.11236697834020648 0.263107928472921
Ni 9.047378761814974 2.344427393176366 5.747065993239424 -0.6319918123320922 0.6447748230293734 0.46520846402453425
Ni 3.732603948600315 2.5587624482303593 11.499309218673913 -0.2938061288877262 0.5463213694464655 0.23026362824939053
Ni 0.9666705956647104 3.3222160246987533 12.532564697276149 -0.12151444916742943 0.27610536917385353 0.21554843352640296
Ni 3.3333703347354113 8.369876852442063 8.0288478793156 -0.7098327318709711 0.6735313263367755 0.3165717047190161
Ni 5.759732029685114 8.081569677901063 3.498373413229717 -1.447473744203462 -0.9019666431281758 0.5028902948460242
Ni 3.100508242766872 8.482689549072978 3.487648952213984 0.8951326509254777 -0.7446302991661305 -0.10315265883079008
Ni 3.3529221172061714 4.235744948156297 9.20177254981181 -0.633617006640341 0.6871499455614747 -0.30542314430136436
Ni 7.014183824295602 5.975617805890546 11.335536741701537 0.6477817281764974 -0.4039365045879301 -0.47436416238187334
Ni 0.23779084603758305 -0.02896130449843164 0.421448827927343 -0.34362639484396307 -0.21514142789597143 0.3862293171161542
Ni 4.684882763754312 0.41318556995547084 1.6812964066612532 -0.48401017011206965 -0.10874532242721917 -0.2451114918955004
Ni 5.8104251948110655 5.463825414647595 0.523927917821045 -0.17260381164407693 0.656004887417238 -0.41442994792008625
Ni 8.12075485974529 8.763388214572714 11.369979981498473 -1.5932884606791529 0.32318843870458536 -0.10253893650619116
Ni 0.2664973244286732 4.971212995540848 5.734802600180421 -0.4885371114481457 -0.17939666619619427 0.38881404712419493
Ni 7.946330470115144 8.69641701162904 2.6710310321765593 0.6608871552102037 0.24239743539844705 0.12574751341217053
P 8.620721868640434 1.6761119196303935 3.721594735279581 -0.41648554489753437 -0.4070709364518537 -0.5456014605613055
P 1.7624898083289036 3.1299084648309736 1.4657343775032279 -0.3280408817008802 1.3088619732341136 0.6683356410684489
P 5.01491431266821 0.912186778835246 8.434104820600298 -0.5089555272034977 0.35436460719707363 -1.2524568549715076
P 8.444438427337511 1.5997729099648759 12.4079737747301 -0.596742759321811 0.5090977092083168 1.0683075045816763
P 6.171643469103879 7.775315853309212 1.3768073208768281 0.645345865041495 -0.9055939554681178 0.48581894118603436
P 2.072461736266307 3.2581376875288144 6.204457998264567 -0.1706968244293512 0.7663808034693447 -0.8561747816050417
P 6.801381353303556 4.170224712371863 6.120747168575635 1.6810507530968017 -1.133347672811461 1.2723589932120734
P 2.3566789971271995 8.536955720828557 10.2939726624037 0.6765320608363122 0.61825517947229 -0.6920121587497824
