# total energy = -340896.1594581145 ev
CRYSTAL
PRIMVEC
9.00684785136110 0.00000000000000 0.00000000000000

0.00000000000000 9.00684785136110 0.00000000000000

0.00000000000000 0.00000000000000 13.18243225660624

PRIMCOORD
 96 1
Ni 6.233333250340006 2.0886430110532745 11.453741065822985 0.8243388680413675 -0.5602852878257254 -0.011874639950398903
Ni 4.480528579712973 0.1063267410241058 5.776581578594909 0.5294541613774818 0.7172035704137455 0.7410119856872529
Ni 2.7739830802831187 1.6242319157906389 4.683981566555204 0.18294890232382685 0.1475260427398427 0.6979560350380432
Ni 3.4736980788803105 4.096854869694011 4.980085296457016 -0.016495169441545783 0.40003099888593685 -0.11058417540817084
Ni 4.888818005246322 4.575902092915255 2.369621541151462 0.6166495255480671 0.6252992308032651 0.7676203323034005
Ni 7.180952732588119 6.106093509003842 2.6979166463990363 0.6526889356701275 -0.19810426990802657 -1.299551494466465
Ni 4.953415118919641 4.4252265331493685 11.633694285614874 1.403867577477737 1.1156116889842789 -0.5727427968627878
Ni 5.592784236087492 7.88782817532506 12.231372504878228 0.1517508794544677 0.1280982730325342 0.2504385605353687
Ni 1.7441220691795871 6.617502336997568 0.4103853190570219 0.49727731953462095 0.16906674502509592 0.1611660021207805
Ni 2.7528169875429773 1.5357666549848203 0.3810347035624261 -0.28027646983240767 0.40708507751924083 0.2604478651422547
Ni 0.6415163497249786 9.11898323181133 4.828962096346797 -0.8407689885729327 0.31406745023992366 -1.235418668542298
Ni 8.653545355879597 2.3511475952709064 1.4203673159959722 -0.10596210325512717 0.13641527753866184 -0.11656096181689604
Ni 6.682090443822912 0.7215809234249544 4.698007930905937 1.237536229105933 -0.48273593138533644 0.7914246338118499
Ni 0.9613909528011667 7.660522352991886 2.921596311737666 0.2651794662899691 -1.4254355334564999 -0.597046663715475
Ni 7.609462531824284 3.916348629436486 3.5717934615404947 0.8865168842320087 -0.7774370612835062 0.8668368893045781
Ni 7.680724712998753 3.9601399242886433 12.557360956359528 -0.43250711713677126 -0.23361994631613314 0.3337585009109478
Ni 7.996171549610663 8.715773668535613 6.851174199479138 0.8209601813771215 0.7339098274248328 0.688486404984711
Ni 6.826731415445864 0.714101636866906 0.5257171066860613 -0.5358904039211287 0.5556727287543785 -1.8671896231128358
Ni 1.6874149543319559 6.4318802070905114 9.227413071837487 1.2749987448277653 -0.36907774503753216 0.04800995222037538
Ni 0.051400280021038955 4.889862799611367 1.404930479252428 -0.1219350816446158 -0.04082706131869098 -0.11753849523881693
Ni 6.669372774482877 1.940723546767594 6.984474648817362 -1.7659915169052556 -0.45242545332725304 -0.022056208469091048
Ni 3.1873433612261275 4.370338801592593 0.41972451972181046 0.4570691227468515 -0.19293558122289353 -0.15727695147901946
Ni 6.119675835749431 5.544813763775153 4.785776962363325 -0.7218397836341762 0.4016417950164825 0.32506920066706596
Ni 5.183909365435798 2.811478588401081 9.283780628516478 0.9525559260399531 -0.4937788194630593 -0.2544173426774586
P 0.2218981108092676 5.654733336456299 12.302768888087517 0.17845949909390557 0.05145754444934364 0.6177728405192329
P 3.962445677370123 6.1904786676771995 12.573641734758283 0.5968219492991785 0.8775468195229145 0.6931215897638772
P 2.4519882651937266 8.553407220098789 1.4706192229002588 0.9456334878885069 -1.1015937774386317 -0.4124751381865607
P 6.476851399027332 7.735342239116293 5.80919447442588 -2.4415051637793823 -0.2410422069221332 -0.4300686828986077
P 4.793066204429111 1.0911976458100707 12.683833314248261 -0.7014337091739984 -1.795922500136733 -1.0557425234324722
P 3.8584345969602682 6.2436190707269175 8.170037040856567 -0.003890079083025558 -0.7460117528946895 0.10818842148248464
P 4.771548844617962 1.090792337651217 3.815523271155222 -0.8227242152560799 0.037139585164774745 -0.5796829756260469
P 0.20572541458620433 5.589154476353757 3.623863851050839 0.05530211500641443 0.21573355295401556 -0.6433100655583888
Ni 1.620142806810203 1.10219500718697 2.6187689698228676 -1.3145772784513359 0.8566720329564342 0.3822196817361288
Ni 1.956062208868216 6.1048145365914595 4.872793922014839 -0.6355648743953313 0.9063249200968714 -0.5446848622843071
Ni 5.7216902442989435 5.570294136695094 9.299177835128935 1.1022290970297857 -0.08151296907382737 0.2515425922328249
Ni 8.643484706692048 2.13543358628095 10.357990458361792 -0.28234235122250084 0.8087464129197491 -1.2706602653534116
Ni 2.341834514465244 5.128877524311429 7.051691854566471 -0.5188455326236999 -0.3876722202102678 0.48831676790722345
Ni 0.578115345462678 -0.2950535314279826 9.046075499511915 -0.22201321531514026 1.683440850595533 -0.3977828262817085
Ni 1.4922996066597463 0.9927077632086021 11.408367267781705 0.4971266528893697 0.5922656973870638 -0.5419749195523117
Ni 4.017477518494491 6.9274820168889395 1.7795225844586737 0.07554441019521828 -0.5141440133829726 -1.1923192662496627
Ni 5.530033526248952 7.879722012147985 7.8856647304415795 -0.06764161040837384 -0.2048449310659698 -0.13796333875207206
Ni 5.459392817584725 3.056023517757503 4.583070643218182 0.42986967951392424 -0.3348589330639781 0.42478146635773945
Ni 0.842225850674168 7.1862217386532175 6.996365489513336 -0.1574569287003095 0.049499135171392164 -0.4460077227263674
Ni 5.2109299093593835 4.810044112861097 7.058797356933576 -0.6251261955605105 -1.0061179184268092 -0.17116810763881488
Ni 8.26895294736723 6.904685684665407 9.311543336713166 -1.0074320092525424 -0.3240752121849128 -0.6096980339308983
Ni 4.64542595243064 0.24849623356284758 10.206761878130267 -0.9802073692086344 0.6307795371915459 0.49294346804595746
Ni 8.168859845826297 7.326179149329416 4.624766044546667 0.25475647118443223 -0.7442243219769635 0.02131547364832458
Ni 7.348254933714985 6.0998247428135715 6.978555348328503 -0.05491567820127317 0.1317798356491795 0.5764647257990653
Ni 2.394497554572312 5.105477733273605 2.574278743567887 -0.5005197377313187 0.8946783369968785 0.10079367168031028
Ni 2.433064877599243 5.270582263494686 11.430645706246699 -1.7683211934796965 -0.437517168756853 -0.39309544810836816
Ni 1.1288913045834723 3.4427595560878057 3.754910787025836 -0.7719194738993868 -0.4766791836682952 0.8281340734177415
Ni 3.6214464130544757 2.6256402941426353 2.425422567092855 0.276318256515608 -0.23187725259341357 1.2774127535858968
Ni 0.959913829733344 3.2247127734724463 8.251939011543348 0.5440248601028049 -0.47826992519418265 -0.5309744546767501
Ni 3.4777151330769502 2.8722207711413006 7.317173202039684 0.2705494723526308 0.16833732305823912 -0.7137330953666419
Ni 4.054036314423103 6.7913254960579925 5.904885929361662 0.6398023095154465 -0.5181089115679915 0.6716379659688045
Ni 0.7312245555512821 7.60112219059987 11.30990710777855 0.34994462375250696 -0.6419262978369847 0.2823428654431331
P 0.1645605166034195 5.279030686894793 8.096109733366436 0.9266386919535589 1.701292791175289 -0.6300380310398311
P 8.475407916639373 1.5179150822993053 8.132848666254537 0.42485448568752 -0.3486243622791867 -0.21076438187419833
P 1.8372528772362113 3.1426333678805687 10.332272304655323 0.23547062637162675 -0.30421344026397934 0.36270372319038824
P 3.9638597525021235 5.947140655949364 3.9007604776469695 0.856955368524808 0.39871048030230044 -0.9879731291969823
P 6.926914585466544 3.839394120342115 10.417509511147069 -1.1008622985892458 1.0961630933413637 -0.22317303995119628
P 6.290067385731561 7.691028547081614 10.028495640964008 -0.26729651263297194 -0.22688262759229957 0.2672710587116752
P 2.3457975275740366 8.267809077674466 5.657886633932181 0.44461521325421494 -0.11555386070862035 0.6067834313872646
P 6.82403836790148 3.9667419438539726 1.5664944175347217 0.38738297110462316 0.2610106796242601 -0.8927834339670108
Ni 5.154240808207702 2.8569181364325766 0.5384104575365642 0.5834452708819565 1.020321977841333 0.1613935447505543
Ni 1.3565393871396787 0.948646262917209 6.829291161640225 0.27662833155685906 1.2205818606397818 1.4117863181041814
Ni 6.651620277125082 0.6843961515621138 9.142280344782243 1.1000380029157377 0.5503862835444586 -0.654895199292827
Ni 2.577687835526246 1.4255318426245667 9.021489506595842 0.14047144988590646 0.1650686796092964 0.9274989830713252
Ni 6.394871068763174 1.9209985497033768 2.59285266546096 0.40203003159383666 0.5866902601818154 -0.5330665613190885
Ni 3.9455398237219326 6.89319294664991 10.333840396887688 0.5061471112204251 -0.266452933685754 0.19922578510697947
Ni 8.033892228927987 7.525014325215106 0.004516033574428565 -0.2788104268098424 -1.0088792832220301 0.9418524235795198
Ni 7.584405480759147 3.8531295635032707 8.27181802570793 -0.9810224089107622 -0.341812738673992 -0.02876884460257626
Ni 3.2279822592872 8.451386653091305 12.291497718532193 -0.3949859802628617 -0.6552564392869876 0.2560181115056752
Ni 0.027342989081073465 4.597635617077793 10.250817974312877 0.3799933635087714 0.38380013884937125 0.6783642289490446
Ni 8.573375402058318 2.209352787607905 5.592093410847846 0.7062100475167192 0.9179288228843868 0.09263221891544046
Ni 3.6058825797544904 2.658118987938785 11.589349069612284 -0.8982231169253434 -0.6532669196607847 -0.8654058132850062
Ni 1.059943883338457 3.336586832164064 12.49640531132231 0.262552055969451 0.04543756350750884 0.12389760468762535
Ni 3.048475779154848 8.346501908427921 7.82934941348084 0.28885521264035413 -0.3712539267532445 -0.09087281302217254
Ni 5.651950220432169 7.717706830782167 3.4972861130408033 -0.668945763848622 0.4779048285452801 1.9880008755656537
Ni 3.252273728274503 8.356823756206731 3.5983825774461002 -0.1281790056717986 0.02713413721263069 0.8329736608982299
Ni 3.5393309800706994 4.29924775052964 9.42584744298831 -1.299295412591601 1.1114161628456924 -0.3056342318709059
Ni 7.255745598168603 6.204142056054559 11.341189692163685 -0.3085465204216944 -1.1963790381413333 -0.040121550611234125
Ni 0.7138845718307198 0.06731357902243583 0.36435041837440957 -0.5164258674386139 0.1212758507940621 -0.019258076898663604
Ni 4.6175407511015 0.3977108825872655 1.6321696509105907 -0.18934889231289972 -0.6419162705346558 0.1553612225135453
Ni 6.0300486915548985 5.757474451301745 0.3388619392912915 -0.19882829255824466 0.26466730254024096 0.3996062526436925
Ni 7.756427270224664 8.972757054944859 11.208350393441755 0.16391142607640158 -0.4606923213217356 0.06291232325350456
Ni 0.002596674271056552 4.806036065512432 5.800230859321629 0.28518907664267656 -0.740474368016228 -0.10537923416846368
Ni 8.01772493681371 8.76682448285524 2.2428330428988223 0.41038688819896424 -0.004180870850566992 1.1941030976229627
P 8.458069734288406 1.5378742574108601 3.520961513626649 -0.13172095738678605 0.11168229356835604 -0.09952020428452536
P 1.702906732848145 3.218579110001792 1.6597206981798758 0.13551719120442468 -0.39836646669932035 -1.4157748704382842
P 4.6234942776126635 1.1473193155393575 7.9316978297545955 0.5836715279601496 -0.9351927521711572 0.14192335184108462
P 8.509579897854733 1.6253667786354296 12.434408474659238 -0.37194015418699167 -0.1705836958902546 0.9412096477891984
P 6.2212550672061635 7.734099294095809 1.4977613592715002 0.4949368443269024 -0.2655792728315491 -1.7966370097052542
P 1.7688909011095404 3.1858572313103304 5.961399396977841 -0.7878921951785592 -0.5877593248762781 0.13142836584703171
P 6.962527662357829 3.874574868530623 6.0499457194154305 -0.12299437614706561 0.45961220088367943 -0.9975047228365014
P 2.476144631461412 8.450278810790438 10.034586071564386 -0.6226561367534631 0.5092684304582262 1.305009689367559
