# total energy = -340859.76152969565 ev
CRYSTAL
PRIMVEC
9.32356354730684 0.00000000000000 0.00000000000000

0.00000000000000 9.32356354730684 0.00000000000000

0.00000000000000 0.00000000000000 13.64597769173171

PRIMCOORD
 96 1
Ni 4.948546703386941 9.011904944697529 12.204075919553253 0.3748948659399415 -1.4033479575288412 1.4312886498031674
Ni 8.812501887657607 3.641439012796654 7.120935182822571 -1.45078918172994 1.7845595097154296 0.9069664103356123
Ni 1.734257438344851 8.458309025924336 10.150260793940545 3.1645572225541048 0.5147973306962554 -0.04000327986581497
Ni 3.199837741293463 4.501892060353585 5.58396155548663 -0.5128016404224652 -0.674642042902451 2.6805876758719833
Ni 3.6942383540795394 3.14856746445882 0.3541443792019867 0.03621398802671182 0.8359602543303797 1.5190601981921967
Ni 7.858617408174879 6.913347901559074 9.85169977214489 -0.30552316021433834 0.7363991695055898 0.08171094401724638
Ni 2.362441866788373 6.063570334448709 1.5294681585503629 0.09998223152260846 0.5188491321681258 -1.1853428349318296
Ni 5.323465847244856 2.702183204773019 9.574400205030761 -1.5293273844461597 0.6338576618962374 3.255341589627529
Ni 4.4701919437436946 0.5285285853857355 10.192371601787674 -0.18856779117250108 -0.12430358187679239 -0.3400723589441175
Ni 2.7970691126373883 6.9370670476342395 5.8827267633275095 0.26842008471445383 -0.6242260523437443 -1.423813938692677
Ni 2.123982401372327 7.5941172293201795 7.9921215169210615 -1.9715357880310949 2.135390392727632 -1.0183201169199558
Ni 3.0100099841824726 0.5945422135130906 8.266720047628755 -2.2488765722739466 -0.7463326265692178 0.8815052899500302
Ni 6.112024895043297 7.131743057873802 3.008569493589464 0.24590107767633132 -1.3287286302510535 0.23419870163773857
Ni 1.634224923313229 3.7704957816537434 9.598130539382378 -1.5296785971379914 1.1745876532978545 1.8514788972457985
Ni 6.098142108680907 0.5673248663343871 0.6217446429898601 -0.00170978360225512 0.30831537824749483 0.8434833021803021
Ni 6.825715726260145 2.6545118235299694 8.016289126410621 1.8119651554218923 0.019475592226108392 -0.85890709293454
Ni 7.345504403025259 4.938868844257216 1.6239941768555726 -0.4861249024622273 1.7566740961590714 -0.19576070937651446
Ni 4.253689470861852 8.26203868629057 1.679614828516738 -0.8205097241032643 0.8443325375544749 1.180533072248012
Ni 7.247467130627319 7.79274643057227 11.896836524657454 -1.6246212093541632 0.4825078745349303 0.4638167258833302
Ni 5.331819760327933 3.172146757078353 2.8252906076275286 -1.6022454127621244 1.4364213430440422 -0.8031228960853846
Ni 2.052769021764579 4.127858655048005 12.054529687089724 -2.064080075218419 -1.4359035228673593 2.2455958446401456
Ni 3.4920941693092353 4.983444802348947 10.735127013036653 1.826984254538544 -1.2174011489189551 -1.7276599683149085
Ni 3.0662776911650282 0.7284509649242347 2.8741572697380455 -0.6123251871411003 -0.06531553337835849 -0.41041542744405446
Ni 2.8634715333714 2.736400683584283 4.125329172213809 0.9175040766421424 -0.28638155428888096 -0.2585079678070645
P 0.8821853422057526 1.4598090170128704 4.284959771184767 0.1175760333449717 0.6732089100003503 0.17796944683136445
P 5.223377390830982 4.213812588879351 12.115048939123488 -0.60781778618905 -0.9985023108630803 -0.302165299485699
P 3.7393084610478367 0.8343722427943291 0.32225779131792054 -0.09422578865480548 0.1374817711299632 0.46851156025583834
P 8.433638876350875 0.6544899310915059 11.638681963262954 0.5480679198239271 -0.6169449453012988 1.1441779306577458
P 4.550346620948173 2.722555191476728 5.862161778855029 -1.7048398850965993 -0.6109424478609606 -0.658430466139595
P 1.4122308714069085 3.791995919566216 0.6781829711882864 1.071120805660755 -0.3880054351799705 -1.8514927812028696
P 1.3516556779908915 6.449053075988686 9.834164945877765 0.29234548518179976 -0.7567224544439741 -0.8931405601961134
P 3.726292766110364 7.247373894990231 13.56564441047933 -0.32422613594048033 -0.4202606956692504 -0.49679446636093155
Ni 5.0957005094027945 1.0888710348586088 7.90791202185963 1.3090892587535712 -0.3455621784140952 -1.714211041898854
Ni 9.21128935461003 1.3935650968619082 6.516145440437148 -0.577193890655606 -1.1692999225363538 -1.2116516480296875
Ni 9.112767256899232 9.082223262189231 9.531251684542845 -0.6901429667515275 0.29644073829709594 -0.3946874751858364
Ni 3.7575080574073967 6.444857472319729 3.4348428263554025 -0.7505530924084688 0.844292685455475 -0.5268452629997249
Ni 1.4349337490378156 1.2939707893245997 11.19851745292729 -1.6572742195024943 0.44261669476694737 -1.2588414183416128
Ni 6.054349329940715 7.624232340099575 0.4381273116652952 0.9241807173313696 -1.6626964189593303 -0.4497381363030771
Ni 6.249510165493134 1.5168878740380909 11.998895050082995 0.18710200526025195 0.14182642125190414 -0.116826813883773
Ni 2.6324056539764253 8.947954621218928 12.306733950125269 -0.2686239731951438 0.19039533129954306 1.236798322498644
Ni 3.7903270016623423 6.998350831892124 9.502417631417037 1.9118746247250362 1.3431772015762158 0.8270274706171241
Ni 7.529197255215865 3.170720251830908 2.904791703016021 3.461433505726723 -4.671629652256806 -0.5419836613030602
Ni 8.80747648681857 8.961250023067665 13.561959738101617 -1.0687988423957981 2.5263790789056424 2.725160834496668
Ni 0.20650481551690575 5.569132427407799 11.31789263322917 -0.8529665590803891 -0.4416635868250587 2.074046956623144
Ni 7.236176294975972 3.4833300194229717 11.254915689801768 0.5562028902262356 0.3852561545696075 0.08181044570958813
Ni 2.312374329672164 6.698803377056078 11.906484548383311 0.2713678544888681 -0.6552219865046264 0.3616729679330288
Ni 0.16502707764560592 5.052485791612546 1.832613576621632 1.5684639454363052 1.040556302610337 -2.927630837572558
Ni 0.22261500124932623 3.8421100745009693 4.991111568786686 -0.07271362561464251 -1.4322533277092817 -0.834761348926272
Ni 8.4950718376281 3.532679642133604 0.07056352721724515 2.06024604618431 0.5932707416128105 -1.2760017321709831
Ni 8.554453614889391 4.791593831913149 9.46654242297835 -0.3087468093579586 -2.1986459582531683 -1.1916944881814702
Ni 1.5586667630171844 2.975941682390549 7.536332578522204 1.303052051420556 -0.11030418227390681 -0.4495931260847806
Ni 6.0636076287035445 5.176908749306366 9.972343889467536 -0.5561818071803131 0.3372410601429095 -0.030187322216657687
Ni 3.409244982192916 2.1174372596487556 12.038058679441772 1.7502795054866374 -0.42124954194508096 -1.5217693695932437
Ni 7.604876621840124 8.159199778582602 4.790256832877308 -2.2522809699698048 -1.7901478024364847 1.9684558635541904
Ni 5.256252276468181 5.3792114346597195 1.3784208323297187 -0.9081835705721649 1.2590874729141477 -1.8218132518605656
Ni 7.600569135406663 1.1341369366647907 4.321367355111226 -0.335918484676744 1.4156583994650782 0.8274784421116136
P 6.90196383027064 0.6823860337082096 6.593805131993154 0.33743697820379953 -0.35718896401974615 -0.6020456595919631
P 3.464198066692532 8.977510318175796 6.355996451323981 0.9955288300570533 -1.3274968147264814 -0.07811782734934934
P 3.730115427230968 4.610642107452927 2.4093748217856867 -1.850688540134019 -2.3651259163876945 1.2744205037267924
P 7.008494869207289 9.012883918886951 2.6485755105165816 -0.8546837988818119 0.7306568677051739 -0.26567260387630376
P 8.6268977049067 6.411544379188219 13.371434578425207 2.0005841115473033 1.6659349805012857 0.5606280158771249
P 1.3527092406899848 7.579059673930481 3.494434383800142 1.6798413061697326 -2.1121437634948657 -0.6117795990502755
P 4.528370981286552 6.207861806405964 7.121494596645098 -0.27758863858759936 -0.10810151819563318 0.6949002789308549
P 3.0282468747968685 2.2955919149963395 9.665786979435222 1.7454867120836843 -1.1294591363903321 0.22414311717394944
Ni 4.88606950297433 6.439403187550087 11.857809019328823 0.67747128482113 1.0512551770850798 0.40329912811424734
Ni 5.2103710194572175 1.1987772038578406 3.7555780797196774 0.2877702071062915 -0.7591961127954474 0.8412078758825642
Ni 4.491412374744904 8.316600181114417 4.336991783174419 -0.42351802626428353 1.510760677187566 0.38036411658462876
Ni 9.07344046517555 8.864592638098625 3.498174065203738 2.8096272297718645 2.405120454502761 -1.521819506104889
Ni 1.9270967065337814 5.043964054382711 3.8365392451849663 -0.48911072456342863 0.8160522025525428 -0.8045159197781693
Ni 5.039917627733095 5.554923316315601 5.0497353403184535 2.984051896674764 0.5553739665670371 -0.17446786143600923
Ni 7.775730926803726 5.5404344983121385 5.913730409728353 -1.7948979155269604 -0.33684048227038116 -1.9631082260890322
Ni 6.56596124133322 3.3074596371840412 5.697059180343381 0.6050551358422483 0.01671679853404863 -0.9804670506279243
Ni 6.666376022476903 8.335750780972274 8.282998989864303 0.9757395632452681 0.6980498803034301 0.16118888493891595
Ni 6.310738008368767 2.92340340089151 0.28015723939087345 -1.3552032795028146 1.0751895764134904 0.3282756234195056
Ni 8.928626873650604 5.757440443634256 3.7158680895275644 -0.9403120756755934 2.202298724514407 2.0025216948896483
Ni 0.5700445498682415 7.9524684004675725 5.61585187279618 0.15357430581645165 -0.6686297752701001 -0.12442648060790182
Ni 6.9225689060670685 5.446201239907385 12.961850424698007 -1.7031884655361056 -1.0930389458900853 -0.6874114267529774
Ni 8.44284123373145 7.4917538233613605 1.7644928230960903 0.20256076301748338 -1.3803437833241838 -0.6568734060651203
Ni 0.19271433243523253 7.998638687953507 11.851804644300362 1.5281410774475424 -1.5078126503028355 -1.5691396313470911
Ni 1.5907118514843004 8.64648651225887 1.561441455576921 -0.11934726631278157 -0.5325289436480635 -0.2649866335528727
Ni 2.360754301757082 1.3733143164864137 6.116454520161344 -0.06603235693972498 0.7619155686091393 -1.9267024337664882
Ni 4.713303867450428 3.976145626378553 7.71519023057343 0.033468049850458495 0.7422985657091602 -0.7266806566662454
Ni 8.760793403328652 6.378697464242146 7.641311244101339 2.0971917701707237 1.3664066044178016 0.9584252403365364
Ni 1.5353951480000414 1.5049257417997115 13.563010503731597 -0.2556224187291533 0.5882172383493032 1.4176414913333781
Ni 5.742643948028404 7.904405429548754 6.1928583276857765 -0.5780850350113077 0.002295223792079918 0.5166642087016651
Ni 7.362435994720425 1.0995744859963013 9.951193385194143 -2.4425801420111157 1.1308357050228848 -1.4546985440866753
Ni 2.6539990275259857 5.446070710015462 8.315585777382902 0.019953046083159186 -2.166758365515953 -1.3222962443621484
Ni 1.0318015013970974 3.200891303992557 2.684013443817327 -0.600657778105501 -2.5987870003544082 0.7492749970269935
P 1.1472365436756424 5.257035455819719 6.36022655217866 0.06249786142390527 -0.07844744277462619 0.5578352836233361
P 8.043643529975842 1.706202835145098 1.0610420619006087 -0.07763163174155017 -0.5264040616972483 -0.10671646492264847
P 6.907175702383855 4.758933388241252 3.8187452238467383 -1.3676037100496963 3.278464291687922 2.4408081377123576
P 6.8399621316071775 5.220300614807081 7.935682256366265 0.4906839825878194 -0.9206259101005759 -0.14580211807020052
P 8.936878227532883 2.0047153744094692 8.606982572824721 0.2580107164556718 0.24773041757558623 -0.1257462278605899
P 5.722803404456096 7.9922706939404025 10.220195912963819 -0.081604243236053 -0.6059961595992789 0.507496683269784
P 0.11560752820715765 3.1128209211993143 11.07847377310749 -0.43774471138662674 1.3273134950710819 0.9361196348608006
P 9.24244870452481 8.594442379636398 7.48667434585281 -0.327994601843977 0.1896581960232024 0.42176916189397684
