# total energy = -340890.7200558158 ev
CRYSTAL
PRIMVEC
9.11439065660428 0.00000000000000 0.00000000000000
0.00000000000000 9.11439065660428 0.00000000000000
0.00000000000000 0.00000000000000 13.33983202266812
PRIMCOORD
 96 1
Ni 6.70190250934486 1.951591531606996 11.833831196192852 -0.24807391695793404 0.858376931462683 -0.31479918619962555
Ni 4.505644278031817 0.37826452482977174 6.487760815002601 -0.012756014114087708 -0.18697962074977476 -1.4036729449684278
Ni 2.7092161310096725 1.7499629840396747 4.905803391821277 0.8650396881948391 -2.1835371276361877 -1.6845911621498926
Ni 3.322277382027697 4.153500685056001 4.580871723247277 -0.07729507433773784 0.3990413812791579 0.6539780867951962
Ni 5.197289804301873 4.682326738686031 2.758596987526488 -0.46719207011346636 -0.4765938230433404 -0.8629280411684751
Ni 7.408076374138662 6.000048865667907 2.554897650428053 -0.1822552186909119 0.09285024846351751 0.5566253224756349
Ni 5.371793925616579 4.704000759394606 11.775963019203445 -1.9115131276205592 -0.9077796502655269 0.1367729179883967
Ni 5.577177602087153 8.069161348921817 12.439620074997514 0.7995418636023456 0.10336168951780263 1.5517492037847858
Ni 1.8149485886032313 6.629771222596475 0.09255207875745249 2.04117437426484 -0.8823239291965836 0.8831294558170145
Ni 2.632008128729464 1.4735690908573669 0.44082296719202757 1.1368888531955 0.416246946524167 -0.22887317565976711
Ni 0.5350283963937759 -0.15515244731620093 4.553004474165499 0.7453795186273291 -0.6697309787540789 0.5267406191010606
Ni 8.695392894272848 2.628745176915473 1.3520186671518901 -0.3316144579847515 -1.0214784600432794 0.6357093703929955
Ni 6.507939164223255 0.7996911575096387 4.965778815903966 1.304946183119475 -1.265502375301556 0.049066161399031624
Ni 0.8304850373944119 7.418457664965856 2.3527997117478257 1.280288275361479 -0.3607046904824885 1.701870260945314
Ni 7.412998145031273 3.696778575002729 3.823969895014571 1.1441254801532554 0.5941860543382282 0.8772794247941407
Ni 7.68958344041496 4.080120726803378 12.934674577352743 0.018272058836310466 -0.6140406271703103 -0.6469584609442536
Ni 8.037662015209103 8.938510147586776 6.978506033509631 0.5342970912920798 0.17888193134330482 -0.0006646301671924037
Ni 6.9701663661638165 0.8447116895912219 0.5471386871067629 -0.522648708419874 -0.40988089509682313 -0.3699246664188597
Ni 2.071454881623172 6.4811337416396055 9.290126017350218 0.17116785052849876 -0.21213452274884756 -0.26931405728363295
Ni 0.25414566586959525 4.991432179523122 1.4540287489746446 0.0999025273246086 -0.609439380952873 -0.05424204917301626
Ni 6.540112962836067 1.986782193489169 7.12601788723458 -0.3083300335355142 0.31461792342675493 0.6239907964044866
Ni 3.330726422060013 4.502572728419206 0.4047144861822881 -0.03361974493697435 0.42292847230940067 0.18557759819592556
Ni 5.868227435260793 5.55965062907513 4.7295438388882065 1.1816633291977134 0.18723313152147755 1.4898488667355632
Ni 5.212036888198624 3.078111973801453 9.748522440946033 0.5610753878271886 -0.1523779715155053 -0.13231102556230118
P 0.1291108106599605 5.584542029644986 12.643439722051102 -0.4022524320172879 -0.9491037058252945 0.04999227275772681
P 4.059513089788203 6.30240054311347 12.484415481632714 -0.5854445607001724 0.0938151834799481 0.730541168062916
P 2.4860593929824466 8.499934789102374 1.3819667315943773 1.2459293382656347 0.20758392726368763 1.1630266879331324
P 6.292784861091794 7.9433645306628815 6.095609604743231 -0.7214705732202156 1.1853628895364878 -1.5355677089289166
P 4.774145109004864 1.3872649268163684 12.867708415724438 0.10254510715377824 -1.0935539378532908 -0.8992448733216384
P 4.0301829810244545 6.0024550647709605 8.255981746175756 0.576921867941142 0.9679560626451071 0.06042169562116691
P 4.654728364125239 1.1523779681617514 3.842245159490081 -1.1161271951681164 -0.37743820118708543 0.04994033647386883
P 0.12389191063568383 5.632155605835732 3.670427960507119 1.1271785678862718 -0.4692206705077209 0.2642281581202934
Ni 1.1548115104364316 1.058098712396614 2.259873942978156 0.23686544983662433 -0.6561311285824571 1.0296486545588976
Ni 1.8201893631648085 6.5767163552522305 4.85863368644992 0.46624204749537124 0.23114525952339549 -1.3093944486988158
Ni 6.110752253189499 5.697478442849338 9.263018908439633 -0.5229991497807573 -0.5184372414416878 -0.2823294957066944
Ni 8.781113737319167 2.291676785895915 10.313317525410511 0.37825992575743245 0.8079290592247763 0.6195918960058426
Ni 2.4409796173623413 5.228515706298332 6.761307372579628 0.42991081716450474 -0.6125900107667127 0.8697108684182635
Ni 0.6637782771882782 9.117580578562961 8.913929547734398 0.15440631479944375 -0.08938260162989121 0.7370838542774403
Ni 1.7226198124140548 1.2695434585775327 11.562379125562348 -0.5731917114747482 -1.3638349870358835 -0.898284309180582
Ni 4.175511938214624 6.759286712196494 1.4822022415786291 -0.49621493970837766 1.1750239695043248 0.015407849914637981
Ni 5.7810756328994 7.896461876934401 8.232596954362473 -0.7063177767391771 0.6857880322169415 0.721385469705577
Ni 5.365313593941307 2.86898228281817 5.1025119913740955 -0.6477961263542005 0.527329144614679 -0.3192358818147405
Ni 0.8912269817216724 7.165651814505916 6.98270867898849 -0.7772102899846808 1.132657588722972 0.6461220810858872
Ni 5.126662391992896 4.4975689280117175 6.865678081552727 -0.9076161281044692 0.5107375588045848 1.4582556653103145
Ni 8.239254105214256 7.327942652494512 9.150364129903027 -0.4167033173352953 -0.43675792199332525 0.059333604763310725
Ni 4.546349146191823 0.7926019845461697 10.52203251162414 -0.451149671938623 -1.1974105647296411 1.5387635901583951
Ni 7.984643605427026 7.074517023477725 4.748446173432997 0.3915471297846418 0.7314415683899983 0.18744987551797393
Ni 7.279235349438741 6.360468325255745 6.977251893371069 0.6457261311990493 -2.1374567883383575 0.8477425916772884
Ni 2.376595562574548 5.236645742661683 2.588727533802324 -0.084235510211313 0.13856574822276138 0.3108152618512131
Ni 2.45503400757791 4.977186387106175 11.577933744461108 -0.8097709975295216 1.1754114347507303 -0.9486807593552631
Ni 0.8761463111310888 3.164871857369545 3.6959601027320685 0.050314946204468185 0.8316945370754901 -0.45667728662507157
Ni 3.823805835984817 2.8651086668378736 2.4357999092173945 -0.9301703592559013 -1.1515091742118362 0.40014772696945927
Ni 1.070466940361936 3.445567742887617 8.14095266890299 -1.04542082979149 -0.25800608846998146 -0.14209972951794883
Ni 3.435341396699635 2.65057414226326 7.004359002281655 0.4804049692593146 -0.06865796748803014 0.15355168010863235
Ni 4.254597504946459 6.905554451612478 6.073718661539759 -0.2799607383642017 0.5420726214724407 0.2577644047728206
Ni 0.7518497215553458 7.032125993067472 11.284390214035213 -0.0002522252201221463 1.011604138352361 -0.7180872585702793
P 0.20879428141134207 5.585471697480258 8.352548713966904 -0.015036068397516039 0.0010060726670111707 -1.2045939698519577
P 8.44351671164818 1.673329188363604 8.234878286315103 0.16786115475276897 -0.2198905125451826 -0.7650515431349598
P 1.7540826885646015 3.209240710527384 10.354617563272903 -0.15254843565509854 0.9744964348667862 0.7931812114916404
P 4.011890399206915 6.199216527788922 3.8345480566774692 -1.1763277759174127 0.566351034403831 0.07305789632793869
P 7.02885392686294 4.053060101284557 10.644105189907666 0.562456070224799 -1.8076906964162547 -0.96313498710738
P 6.526897096550351 7.8812773022916405 10.565666744904304 0.002336618552976621 0.3893475510301617 -1.9911558762548676
P 2.3996914282076554 8.540721686777257 5.94776416432445 0.6603089141092305 -0.9371496187872118 -0.7403882360603249
P 6.976920129555346 3.9022898529408887 1.703976326560653 0.0996040222475833 0.06534510106471327 -0.116478943626051
Ni 5.258811940459518 3.244923549498818 0.47635633015857476 0.7655385100737073 -1.0194184921904572 0.0749967652218644
Ni 1.439800273899726 0.980389418636602 6.911887130160971 -0.8651525596236197 1.37162208718047 0.32152827739334305
Ni 6.821446855692071 1.0364064629069556 9.727698792875014 -0.5058043831690258 -0.9925769465175809 -2.189666380462377
Ni 2.6452148806246383 1.6623372333701045 9.279827667476956 0.28935837752901783 -0.40819296587143894 -0.8790640274983894
Ni 6.320957442256724 1.924968396834184 2.7674552636941345 1.018364082784014 -0.137313363872899 -1.100394357813892
Ni 4.409970520513774 7.080878868075952 10.393223387291116 -0.7173359822265517 0.45444891151518507 -0.06035870359371541
Ni 8.513651946867894 7.232624356207601 0.6465019499161573 -2.425071443703391 -1.2050647388407891 -1.7871725218582448
Ni 7.656170084688454 3.916763505121383 8.483146081724243 0.32198387687352287 -0.03141990907217815 -0.5934900567124682
Ni 3.2651028101585253 8.509750987715972 12.491552049427 -0.1980443632043686 -0.019183514906986315 -0.28328363208984764
Ni 0.11869761946587024 4.860011782299852 10.394837545856081 0.09497500811600418 -1.0419932921671797 0.15933871910405462
Ni 8.643577584042298 2.376395045982627 5.703631567904157 -0.8585592226768182 -0.22342526517131847 0.6857882893272575
Ni 3.4558943473715593 2.895231727578765 11.721457140884933 1.5201696292062916 -0.4051122700635862 0.23075445184288004
Ni 0.8692585661985951 3.2104438100789117 12.685473468352114 0.4719558100506968 0.9981510981712487 -0.08905864263156921
Ni 3.111607359042837 8.610054855629288 8.291785806541396 0.2898198905464686 -0.8435383237879537 0.024452476615409502
Ni 5.832416994821772 7.7342439540701395 3.5491555257131697 -0.7966120915500603 0.6429619381903507 0.6445053714180706
Ni 3.2141077950767443 8.411743946219207 3.746611505290421 0.16624495930558467 0.26974343151156766 -0.24382979696959947
Ni 3.280250927239119 4.08703854922466 8.874310203487928 -0.001282466256849404 0.45232338053175003 0.8728399009655483
Ni 7.260250073940019 6.000477242023375 11.443441797625226 1.2569575710553387 2.0259225903120917 1.076324975569514
Ni 0.9045339919128073 8.755912447470887 0.00046847967385228793 -0.4168966642930239 1.0124518310646369 -0.8027387732730884
Ni 4.690894265795393 0.4972738564521741 1.5990459940082824 -0.5421530970013889 -1.3105200776628267 0.1301086185943437
Ni 6.092341184294916 5.546480334742124 0.6145824427994628 -0.4193644091072262 1.7046969317608318 -1.1427746225523157
Ni 8.387800442265707 8.901578637111106 11.049823170488613 0.2791904358570805 0.5257114065055978 1.0497569952729984
Ni 0.14809244040246586 5.010599742832682 5.966159738755113 -0.7244365978270749 -1.0267821316443801 -0.2840536774866527
Ni 8.098646402324777 8.859497495979276 2.2405714866885766 -0.6577771488263122 0.2362159891780835 1.8009163538068984
P 8.478935233293898 1.3609334525408965 3.6879968597156343 -0.7535152603605861 1.4368232064681514 -0.5107648124980945
P 1.8579047112270801 3.2336125908363536 1.4928606098782957 -0.7842936791940235 0.14542442301580763 0.6793394483781203
P 4.813573962489007 1.196509847165502 8.428052325215782 0.019082984773380038 0.6380724713085333 0.20504419156096942
P 8.85085705374558 1.2615957100250192 12.710004850495565 -1.3957254079865768 1.4498759258870515 -0.2528983349297709
P 6.3011062996565235 7.6748363565182105 1.4644200656314341 0.6357502509332599 0.7005497639071483 -1.2755710723914677
P 1.5278999728774736 3.1266825609990954 5.910372377126415 0.9830967749412876 1.5776106449325797 0.425066601698326
P 7.064536765834374 4.161302603359844 6.120835503445974 0.5474487981826895 -0.4889184060469644 -0.2646197371317572
P 2.2144687836157058 8.50264176309331 10.418448374554805 0.6530206079779334 0.28718990912278924 -0.2718409374705447
