# total energy = -340897.62179176084 ev
CRYSTAL
PRIMVEC
9.01272008634598 0.00000000000000 0.00000000000000
0.00000000000000 9.01272008634598 0.00000000000000
0.00000000000000 0.00000000000000 13.19102686608100
PRIMCOORD
 96 1
Ni 6.374606908458414 2.001797270177553 11.490031348604722 -0.44804892152611225 0.30416844595865683 -0.5965373281792242
Ni 4.787710215174191 0.37630720749363533 5.9668029474930915 -0.454450711287398 -0.2907596287519186 0.14791222243466784
Ni 2.7117743081871555 1.5168858823510774 4.814170660567938 -0.08108359484589261 -0.8410224993446355 -0.10079727122473608
Ni 3.4151450222505684 4.206651127677941 4.967239997545959 0.06092923138520475 0.015811770221275993 -0.5522467337919651
Ni 5.131536480144401 4.278239164655539 2.8789016862173815 0.27784317780056667 0.8166975494460257 -0.5641740813571703
Ni 7.232194278788185 6.156318823906302 2.5271892910249125 0.794959900658618 -1.0358411565228547 0.7020011516416943
Ni 5.255100874826872 4.587690914576957 11.633984319045814 -0.16713044723433151 -0.19447078692049735 -1.1786469109688926
Ni 5.810843231129609 7.797345915036107 12.38476554673342 -1.3063862580001115 0.10662801897390024 0.13224366265947546
Ni 1.9933974149008162 6.542198441581721 0.25391446644418564 -0.2932428001850885 0.08979012148095503 0.39500757752941645
Ni 2.5872455524375053 1.5117035682050215 0.40779494824506846 0.39783373412430195 -0.319134837460502 -0.3699418928100403
Ni 0.5782191793442113 -0.11298796746439072 4.65015357229737 0.34528038550761825 0.3773631249747759 0.10152155098527033
Ni 8.659313467409326 2.1683613531919033 1.5035263271185588 -0.04269085400030712 1.193021691633326 -1.0244902502864097
Ni 6.994024133355728 0.6370406980820046 4.7336393012822855 -1.110389521353391 -0.7429511116914946 0.10798890387716886
Ni 0.6769382081024541 7.193520696178229 2.3441643757386394 0.36844216833606225 0.00242609294298937 0.5452533331932674
Ni 7.545512485698573 3.753185120817705 3.886868096529352 0.30131297878773267 -0.16598064990060446 -0.9733458662021108
Ni 7.451041151996045 3.825962836868832 12.61303612023887 1.4894302911409059 0.051011200940544406 0.31116698876367704
Ni 7.819373003336906 8.694129605750566 6.97739386194303 0.37141307803892815 0.6906515309568299 0.42504500443177123
Ni 6.744227578795599 0.7777310637911444 0.24317761280558406 0.07153374637392841 -0.48687463614405835 1.4566186439275235
Ni 1.7828512570468988 6.681417931345407 9.197589171859795 1.3219625151718137 -0.3719550665853272 -0.4909873727608512
Ni 0.20059791723754136 4.7994177387841495 1.3444689388037727 -0.8346160815976594 -0.30553267329603506 0.16295497570040324
Ni 6.3717679015784014 2.049177140552881 7.0237994572588995 0.138449020139239 -0.3750804995881863 0.3023280503158084
Ni 3.409701339217147 4.410825292312273 0.6289734121826406 -0.25274072630598404 0.06654889156482734 -0.32775188970555164
Ni 6.033547548606185 5.466674482789745 4.771840617350931 -0.49308847826425395 1.4374693246925823 0.3823708626020125
Ni 5.383721405571841 2.99204286992609 9.495956177140805 -0.32984605323041905 0.3319880392740863 -0.2517613931118503
P 0.37471556109677717 5.612806728988257 12.450918012125822 -1.0785831754760715 -0.2553074585918958 -1.245519504421726
P 4.052272242447011 6.20944880980369 12.554731931643657 -0.4551122561307968 -0.09318243499195565 -0.3957585967628281
P 2.302173210803183 8.415609511740909 1.3277954063338553 0.46813617919429057 0.3016438797645902 0.1856362193480029
P 6.398932240423986 7.715492389689193 5.704037989759469 -0.8013740317150779 -0.607733711115676 -0.2647521489445634
P 4.653655014116053 1.1257157978865546 12.681259708745646 0.11624163080426432 0.07489777775015488 -0.5146649188834491
P 3.9625145614373305 6.144241778765929 8.008932140807337 -0.3567518764823275 0.7326451017797962 0.7204588441262496
P 4.658693124738043 0.9609272207622441 3.8205299690997148 0.42748755243499287 -0.24141861642494547 -0.385267210313201
P 0.3177831085242243 5.430821881619297 3.673001652533858 -0.8626164234653273 0.09746743552055472 -0.9233836753513711
Ni 1.5671408104874345 0.9959055880680552 2.6494180005657393 -0.545342550472964 0.12156355723780998 -0.48869857672667444
Ni 1.8807744626067129 6.5049488687718995 4.907893037217358 -0.1849862444688298 -0.4807245573822624 -0.339655326011357
Ni 5.9015472477659605 5.52496875739268 8.895488196577546 0.00012778382711590896 0.6704285190417357 1.500893811695815
Ni 8.547276341931735 2.388686312521421 10.237965324205183 0.04851080311619388 0.5490482814593254 -0.303397115010271
Ni 2.214740811619037 5.143063749349279 7.0256335458305905 0.458307880249959 0.5911966326926011 -0.6532388946363267
Ni 0.4945009221767419 9.159086830934665 9.149890251187474 -0.12934654361733855 -0.23739175465373955 0.014241340410362568
Ni 1.4881262920205327 1.3222561884657411 11.199696479614083 0.11193940388448463 -0.8885912502625342 1.0089165642178688
Ni 3.9454444692762363 6.678362619179298 1.6531257667987873 0.870849867118713 0.641330830344831 0.16359646593914406
Ni 5.474830994619625 7.920504737307148 7.9179928921723555 1.0174073752976993 -0.18146511868944876 0.35830328012984747
Ni 5.317027275692172 2.7407411910835418 4.922614414480257 -0.3250856557272982 -0.21525455643506802 -0.4676013897367431
Ni 0.9034891545834413 7.5771381210698925 7.015990836430826 -0.18648134095711755 -0.24748667699589635 -0.09623844820946006
Ni 4.831151526798517 4.35916437981629 7.036107228037776 0.8714093391666089 0.054650597465344584 -0.7661697158998031
Ni 8.179539330127637 7.0842234376578554 9.232254797772791 -0.7046871831142896 0.3150213295127607 -0.5459197631326727
Ni 4.586095663091998 0.4487658732477705 10.450775477386907 0.1788053124690985 -0.024646594904086584 -0.04933329901748923
Ni 8.32970026227969 6.99692622927752 4.805412099025091 -0.9846306950873107 0.18282548937208512 0.046200924036094625
Ni 7.240918591994066 6.1405375507415325 7.007719863053722 0.29714496345297214 -0.27706644753554216 -0.4688059515678055
Ni 2.2353709282804646 5.205404735346264 2.7107035970209785 0.3825917203635669 -0.7267207658755613 -0.1838845267642188
Ni 2.32731870031187 5.2803815551393685 11.32601335906213 0.5234871451607694 0.1653062495413992 -0.3779616777907233
Ni 0.9781865800486724 3.1683226653742627 3.7724885650577424 0.07317719551462236 0.45483509121001026 -0.42885692197869374
Ni 3.53556397756439 2.6226385048750007 2.780364714408269 -0.2668244580925598 0.12442596638726959 -0.5439076177986504
Ni 1.0154361528584939 3.3511186575660847 8.165562403557718 0.20266206448203805 -0.42373528448141223 -0.4508591372813977
Ni 3.4603618397649343 2.435390228877698 6.911623535889396 0.4206998400891981 0.24095401808370118 0.28323915200515737
Ni 4.140542824614781 6.848603892057284 5.88406887937736 0.5254913200749917 0.4337931829380465 0.3038802252942766
Ni 0.6555032555223431 7.531128184173173 11.115748398080138 1.4127980471981476 -0.771624054146155 1.0800438191819979
P 0.29809211731326424 5.6721284537001475 7.868619408076841 -1.0771235602114095 -0.4861673256643885 0.45772526827361176
P 8.535271398553393 1.7019981436481795 7.8805044822758035 -1.1134468201224759 -0.3046178747912496 0.956262942577895
P 1.8165858689576566 3.292707217599849 10.300226998263932 0.15467499507979812 0.2057075361765812 -0.21099141028333984
P 3.9095107536235005 5.99655934468373 3.8657756273188935 0.5598150330575261 0.13739949582880207 -0.7446989476205368
P 7.058969795506121 4.1542691975616375 10.34913903108244 -0.31386484731081427 0.11535768553741423 0.40642790355121616
P 6.213315266792659 7.8737647700698545 10.091386047082072 1.0288482701447894 -0.5709106287500555 0.11434801332597724
P 2.493594376278092 8.43903357168108 5.753807132274135 -0.06444110119320515 0.9145159405480959 0.19082779085127136
P 6.9610916535475775 3.963073350093079 1.648746486027364 0.5123696950913692 0.10063040662956863 0.4231968954794389
Ni 5.284302088449863 3.041946301972541 0.6549715050273566 -0.29561798528548444 -1.1099951141284496 -0.8398693595767988
Ni 1.3619572211846531 1.0111280725770773 6.966695763001521 0.29300497314266954 0.5697598029750639 -0.50496928886224
Ni 6.884708849394847 0.8386552501641982 9.160113379771595 -0.3986994245587069 -0.44310520436759177 0.1968004634949385
Ni 2.780730630850582 1.6291843767160363 9.11271728649981 -0.1903498227735883 0.6013172660663708 0.12904341055462293
Ni 6.333968552833085 1.815936953099368 2.551922899217991 0.338303697079469 0.4633608692928342 0.546358136221672
Ni 4.274534936631141 6.815905742975738 10.32279665232402 -0.50854029404295 0.28557397078592106 -0.07849192285931644
Ni 8.145164815078845 7.1527381370288365 0.3438830451078106 -0.5839510068737814 -0.42628581881740785 0.41013414875820975
Ni 7.609755155669152 3.948103221751169 8.150234470221724 0.46959939400337836 -0.45463248828090086 -0.2648169407442278
Ni 3.164465221105547 8.349059585385302 12.257696105144163 0.0718402218707537 0.24832922750184977 0.011704175810805649
Ni 0.1717905594896506 4.844219971166831 9.994392954252472 -0.21231784240424728 0.5080379004852348 0.797980946873129
Ni 8.476589576979537 2.3163862706437564 5.7439796621091626 0.8480002162140492 0.2800281012670274 0.0189387458860319
Ni 3.588225302008568 2.8336803623428883 11.636609724455807 0.39826079435939155 -0.04100755276061325 -0.23999242550138025
Ni 1.2899996626766408 3.437316314075432 12.547938143116184 -1.3653966750960482 -0.0022466299423316146 0.37628249031608746
Ni 3.190737300645985 8.460970532779339 7.95831850640487 -0.2524440210011717 -0.3053915197324805 -0.36043575309181797
Ni 5.441096382708867 7.681847904980976 3.549415627322777 0.34052461599018774 0.6121107571374491 0.6217698774937679
Ni 3.023109716641661 8.166101364228908 3.4762314375881944 -0.07546881976227647 0.3682832741606948 0.4339140247866269
Ni 3.36380856768373 4.2810421206545355 8.995238280532847 -0.04659147460629395 -0.36324699728836796 1.111553202644189
Ni 7.387222079877404 6.2673825755964625 11.496112230960103 0.27743385817728994 -1.5074730075752298 -1.2565503083145908
Ni 0.5265699833845587 8.94659392550588 0.09822603296034847 0.6936111278057862 0.3530122069342372 0.22021498576413687
Ni 4.460151910262468 0.40144819064219495 1.6778990309609831 0.10726848077137656 -0.8334158906419711 -0.4495699861563289
Ni 5.8945443641285955 5.566715677609252 0.48792253766334037 0.24922937071861595 0.621898175541516 0.38964117101118056
Ni 7.851683605447531 8.829825121894933 11.330445814883053 -0.5149037743671325 0.8320884300797992 -0.24783583280519897
Ni 0.04500141350029508 4.804852409097317 5.730802163825775 -0.3252589480803688 -0.5157121292010408 0.8683690096783884
Ni 7.971570810266367 8.792782841650954 2.22592018982211 -0.24053801359220509 0.1671607862516347 0.5559550358814876
P 8.498148003827128 1.488396673628153 3.542160387518299 0.2992789790768394 0.22547032062580524 0.39247992601155635
P 1.757381309609068 3.163717165324464 1.565880832195924 0.301335604495552 0.10363988287985378 0.4288047285845196
P 4.797669271054871 1.2692613933721648 8.325872559987811 -0.06631877783189223 -0.8789362436712734 -0.9292105664457931
P 8.565274744278991 1.671544161909881 12.420816427749457 -0.4135262051588943 0.5020130344473935 -0.4275307469681024
P 6.190783466157636 7.699972485411789 1.4520420639395548 -0.12846671211554647 0.45163355355357704 -0.5391899006080069
P 1.6896777550609483 3.257179074358543 5.859348790264662 -0.21728469949121934 -0.7569816216426318 0.8012709304783104
P 6.810056487530885 3.926139222492148 6.006507585300105 0.48718625384720615 0.5552155866123019 0.5716979005380413
P 2.4837434730404597 8.648894762795692 10.043476228755809 -0.6771622382211434 -0.6560753356438572 1.149183354292137
