# total energy = -340860.89594222046 ev
CRYSTAL
PRIMVEC
9.33388615745046 0.00000000000000 0.00000000000000

0.00000000000000 9.33388615745046 0.00000000000000

0.00000000000000 0.00000000000000 13.66108587510073

PRIMCOORD
 96 1
Ni 7.876549354320489 0.44855111010645804 4.859262312590395 0.7422198899524249 2.4849107844585268 -0.5917077680010648
Ni 3.664455786651152 8.597078712544153 6.052612752256136 -1.1056005846051797 1.4802221422790764 1.710249229037629
Ni 3.473344463254177 8.92254199633068 12.825410442328934 2.971664835864321 0.9142498313709029 -0.016386925998455648
Ni 6.511347132390731 7.47957916706416 12.790451304324002 0.09135078109985557 -0.48571455439768607 -0.8237755393387297
Ni 5.584641558171181 7.087891959492454 7.361522305496901 0.3599567565728704 0.3467271452564738 -1.4129700539996375
Ni 2.8588947236095916 7.459567314689893 2.1254052641631342 0.8828276083058795 1.1267085702283886 1.2917050018388527
Ni 7.882495039937284 8.296518237589037 3.2949038906025687 0.8140706533461399 -1.4559529853190667 -2.152411095655345
Ni 8.40828219296659 5.5926593665618025 3.2586062732923775 0.5670112936956493 0.631337466577545 0.4398350182567522
Ni 9.317141376449388 6.976912050569863 0.9638348408051836 -0.17477973624947318 0.32767089995597115 1.2577088473990663
Ni 3.1685837394331933 3.5281157084650903 7.165458421992748 1.0340074457482258 -1.4773713030938427 0.3117151479576632
Ni 1.7746331474881627 7.320931100457156 6.792046030542115 -0.9761049170044866 -1.0262272875821745 0.5306247846468152
Ni 4.222155497174683 2.898311725744166 12.48628701584197 0.4787977726731948 1.3460424389391528 1.1693994242286958
Ni 0.45245827494035173 4.461560348642767 6.561775320274337 -1.273390262690065 0.2330782148800502 -2.2957974051952013
Ni 5.313426821958926 0.6886018665112489 5.39386158774029 1.1675171196043184 0.09615591579798279 0.47769194120352576
Ni 1.8914280676183877 2.7420718018202606 11.949174125093013 -0.282016849562282 0.7422787682148184 -0.6078823208783983
Ni 3.814339333958045 1.4872147845400279 0.6647528534508527 0.91387213631651 -0.7873589483829084 0.9399042987142135
Ni 3.789165842421945 3.3125869383278714 2.3414557985483575 -0.059672476159968194 -0.2616578262899558 0.7308934091960123
Ni 1.533193508791725 0.2748269502369008 6.768262354686298 0.07325741393325448 1.8280067822657873 0.24463455225908193
Ni 7.462712834396109 1.2450657704795771 7.025992425261845 0.04885841626359973 0.6059154269600145 -0.08188115104652349
Ni 5.293125619107232 8.969351436469182 8.55714087955021 0.1903307966101948 -0.32810078840453816 1.9548200179383108
Ni 0.8058009439212338 6.59019047054625 10.803214626686536 -1.9607093868395524 0.22019955914516914 0.7454373684484581
Ni 8.431682246092656 9.239810127885582 -0.027180277105347612 0.5220205879175719 0.18968570682702815 0.43660674112744163
Ni 1.99050727142102 7.711218225073573 13.716959933541174 -2.1696544561168247 0.4500726368243604 -0.3307181714227272
Ni 5.24431872728585 3.8501814576134485 8.767835629937135 -0.2013564582967371 -0.7234873465399282 0.7902542676528326
P 1.0232552948162938 2.3574130106841067 6.030371967817048 -0.029679015121671468 0.5898223780528938 -0.5931992649449267
P 8.178985940435695 1.6732951431843308 12.016496647303775 -0.7557780882528339 1.396301592205021 0.526251595279784
P 7.576763591933967 5.948383109955313 0.42382191156150334 0.17176203246907193 -1.1909272709981424 -1.0563516177713808
P 5.9357263600394985 2.583162386394937 1.8186862909820192 -2.4999455673044624 -0.1309642817264196 0.3345910241145722
P 8.801406819039059 0.9461853950708079 2.576330914961763 -0.055266890893104825 -0.16185917153306317 -0.36213448095047956
P 8.385003480363315 0.5909759488162069 8.828804575696795 0.6617533598652411 0.261100411124589 0.8622608398981215
P 4.875462205771727 8.726119691589973 0.9887703182388841 -0.8427695639427292 1.6378487637880308 -0.3642242735999727
P 4.775020254559281 5.018718693756918 12.223652921368364 1.4768575966822177 -0.6442883703112582 0.8332842501601132
Ni 4.240804602139135 6.871495137922955 0.28553291790167884 0.19111935394976118 -0.018747198700516103 -1.2231951298929127
Ni 6.1253722632766054 2.346436360314639 3.834093571068539 -0.7312222532903407 0.12662477381080128 2.6269318382197406
Ni 1.818726426693404 1.5747013014728655 9.754520757961275 -0.07003325056900196 0.0376733461810577 0.3695084048170475
Ni 4.184763948382092 1.2193042441022557 3.4376078125147385 -2.1288122252894826 -0.5967592143820433 -1.197406450964583
Ni 6.293316880706728 3.319148660444993 11.175929776825436 0.1977754258136981 -0.07612830772314631 0.7724439789442891
Ni 3.7434764686476747 4.745515839748153 0.4574425702611813 1.0894959657338332 -3.2822091034423346 1.1004745762325239
Ni 7.681116441534855 3.5763065637861446 5.315897501680693 -0.020583480578306487 0.1301204456688856 0.6368607103886194
Ni 7.480745902860233 6.855562193891765 5.308001033812862 0.22334247564952503 -1.387193716366482 -0.0023944683741055537
Ni 0.8680402316156598 4.183233191017643 2.397971547121561 0.7917331661912043 -0.30317420036618753 -0.25341949754056353
Ni 3.029686176382136 1.928632938683606 5.391689592382318 0.6337656164030634 -0.35738282519810705 -0.6000304289341473
Ni 6.493631416063138 4.999462886178508 2.0541765105071144 -0.8888056802661854 -1.4989171475854186 0.7437715507102609
Ni 1.591250282004384 0.8713910968219853 13.249477835101933 -0.8373769321722482 -0.6149078602666119 -0.037491826297870914
Ni 7.436484613700357 4.866959035289938 9.585984372135382 1.2443954181196117 -1.555884308999082 1.8385853291125818
Ni 0.3109994934697524 2.408637379074954 8.167088968870283 -0.6185125468987348 -0.19794409018107845 -1.5575393281040015
Ni 4.068295714274768 1.1660077529375805 11.210724638430284 0.44393104270299677 -1.0655749361418616 0.06844508014627568
Ni 5.523448599138674 6.06170582435642 9.524919287346124 -0.9593091856033866 1.4910829962529804 0.36833932420961074
Ni 7.872881136977632 3.20878478802273 2.8092524489582207 2.61876909990329 -0.29991249889578026 -0.7254048752776152
Ni 5.5603827874992025 2.653297208568557 6.826171652494334 0.2704594837419858 -0.6077056860912179 -1.309534573821106
Ni 6.8649520835785705 3.4542473317440323 13.981302129220232 -0.8481274858205329 1.7824676601834077 -3.081027994381197
Ni 1.0258874507722375 7.536114516798738 3.531636450403324 -0.7410837194654527 0.43910713895179215 -0.4878771092666437
Ni 2.94444912606413 5.508897070290034 5.961343211178107 0.3394846047614476 0.36935465284800256 -0.05060753774422252
Ni 8.791540901147455 8.422395029155904 7.064134418518469 -0.0419838006309535 0.013926380273105048 -0.2542047124460203
Ni 8.305310758548252 4.700993201769956 12.218721829199836 -1.9657965715544725 0.5677191183959513 -2.5317321156874395
Ni 6.162679807091878 7.161480319622454 1.5961337713524326 1.3731547217749125 1.0821384969274974 -0.26892967736102075
P 0.6672627354953677 8.41251977737793 12.141344844592822 0.4991786503223919 0.04088593958108443 -0.19810067036360074
P 3.795979579471019 2.1076102098014085 9.447132545127532 1.6638228192542892 2.301270255384314 -2.432309356212727
P 3.999691649465597 5.559113378953073 7.835766804610189 -0.8001455586246156 0.15580628047076392 1.3218606994866267
P 7.413943278120202 6.635571826070357 10.860208270241811 0.08981171874750984 -0.7670629171380338 1.250892081587549
P 7.482892696725011 3.4462108555806723 7.759974713908564 0.02276403316939305 -1.0422642864403793 -0.14239052128549026
P 2.6371682529236256 8.992704820163407 3.846210822352248 0.5649348707825949 0.4037976650172207 0.3495113928698303
P 6.786463433105058 8.626209771900538 6.171573134023875 -1.7352004996663277 -0.07106837670173567 1.3364293413294208
P 5.996452624753576 6.5874836434993576 3.6849548678938597 -0.20280707470033457 -0.7737261880908223 0.4512298903572552
Ni 6.565240992282996 0.5181352329843311 1.7037282796891338 1.4888013993076552 0.9416472495472492 -0.08608413338427755
Ni 5.5502181852438035 4.921767616046326 6.446625964310895 -0.48557648615792504 -0.015052009237116012 -1.8826545515176543
Ni 1.6516031912637168 4.647874054446284 8.316322877685922 0.1631166980892481 1.168266339065517 3.4495421536057758
Ni 7.573870087159702 5.504034115491996 7.484608265039558 0.287625196887995 1.681665246752349 -1.9186140003313987
Ni 6.007466610668518 0.5164121975606885 12.896598126884934 -0.012102953911121091 1.1873482953976324 -0.4696292188000493
Ni 0.3558814860731398 4.572008226042347 0.1361534004586901 1.5246132667999421 0.26024037711713893 1.1227490713600083
Ni 0.8242951063719672 8.818123809525211 9.40966072491217 -1.996679377176258 -1.2622591857739098 -0.19463276641965835
Ni 2.122152404763679 4.048899898400828 4.409484729815103 -0.45313019270376154 -0.39725189347890294 -0.03408640016074775
Ni 2.5823690060536064 6.623297765495655 9.461422725157849 1.441117462968131 -1.0562240910545808 -2.2857693315352376
Ni 6.51095510916325 1.5660954582410211 9.340699172255084 -0.152553320751105 0.4322677474324556 0.6248225482771627
Ni 3.669552088608405 4.42275004912215 10.564364208068747 -1.1861599315164861 -0.3729074031962675 -1.2764658162915954
Ni 3.9970781612823907 1.016273547812585 7.40018326283562 -0.9964986501694904 2.18163091175241 1.1531469669255754
Ni 4.022699679364184 6.812327632232433 11.445585754014136 2.0979307052192775 0.8182191282968746 -0.3665364666729171
Ni 8.752627928876782 2.4599737541022244 0.29834181016530126 2.0524612600325685 -2.080154355072463 0.2774174031170577
Ni 1.2183055182608162 1.8864624400702954 3.6398871309517373 -0.4795999568595159 -0.6202418708850157 0.15739573644507088
Ni 8.937905573293387 2.918603594709491 10.323710482604545 -0.10445235147882011 0.40829041068125166 1.0307105201645088
Ni 4.098574841654489 5.669673262989077 2.684034629768976 0.7164664351374048 -0.8359216877829604 0.7624884103934739
Ni 7.534471752797864 7.853289309489951 9.104553713906911 -0.19342769036796367 -0.6766184499025315 -0.7026398136669576
Ni 3.9387880409105174 7.126300901899221 4.710944058027516 0.8889398918512046 -2.023403937655296 -3.151201627182805
Ni 5.491442702780763 8.655602180075242 3.361105413060463 -0.7792743716025612 -0.31210081343185603 0.6875356110356676
Ni 8.087868541705472 9.012352650969298 11.219836378303306 -0.3799856501992875 -0.3223626003691803 -0.7415660584185099
Ni 1.3899370208065345 9.281691276021464 1.7916786907744904 -1.0058746920677515 0.8410443537215063 0.825557570939817
Ni 2.775431111701618 8.480293126300298 10.68040121662584 -0.6917185387687637 1.8971918259018807 0.23207214221303904
Ni 2.351532662271892 5.7441763439832005 12.622010124139067 -0.8759833316905367 -1.2413142080911266 -3.3150449190254325
P 0.3223775009530693 6.276637225766049 4.973619221601142 -0.05412866352360355 -1.666945424043671 1.7137299884973776
P 2.0949721276583313 2.826039443592138 0.46517382834028825 -0.37418909812216844 0.8698954736252438 1.0112009893766711
P 5.512621290951103 8.856551419704717 10.936642532325596 -0.5927914879835469 -0.4624077613509455 -0.1819456578702931
P 1.969226010500624 5.779673113842965 0.9766969362211069 -1.0919804227185839 -0.32120560394660164 2.9958221498368145
P -0.0027637637537408746 6.58773565843131 8.083879238671535 1.185491701804868 -0.34543876546235347 0.6552839500908133
P 4.29748929405561 3.812435221138852 4.705083310776675 -0.0019468393137256792 -0.5051991454848589 0.04038714556779496
P 2.7687760507208097 8.946735429798077 8.527222973572954 0.6335619850326896 -0.8982814809671045 -0.7842702821552558
P 1.4226056230966158 4.497346468979958 10.837258110438711 -1.0216234702615759 0.06774574008640591 -1.1288366723149847
