# total energy = -381167.74944190524 ev
CRYSTAL
PRIMVEC
9.34358995703857 0.00000000000000 0.00000000000000

0.00000000000000 9.34358995703857 0.00000000000000

0.00000000000000 0.00000000000000 13.67528836667696

PRIMCOORD
 96 1
Ni 1.506177346849662 8.01182933671106 6.603086010886425 0.4933553587723955 -0.39951626403304746 -0.19455897575892944
Ni 5.337394915011963 2.267306179375754 4.538732881893467 -1.1384196880177297 0.43627841125374534 1.7502563655581858
Ni 9.045286440202108 6.568814657524991 7.656957923930461 0.5484078196618489 0.22698495749811878 0.2525239823094877
Ni 5.440137029454106 6.2088902313313055 2.9648434734622517 1.5880657788276327 -0.8543976350999608 -1.4869720594084004
Ni 1.9211728918612794 2.480227905813325 1.398968062080602 1.7796402180369417 0.47313826039457224 -0.4802319340165601
Ni 6.962170448348904 1.7327967760675338 2.979695109594098 0.8824226595579772 -0.49243773205413255 -0.08840095444291227
Ni 2.270679215326428 1.2046597010650193 12.547802122150705 -0.42147194236853225 -0.5326631552330827 2.306154837170125
Ni 0.14590389358492428 3.7647098953177065 9.264160033400287 2.8339694060616547 0.1365767428171906 1.1183360298939773
Ni 6.034183787548187 8.120504630734025 11.659194955304867 -0.4263495821758077 -0.04924948105443131 -0.6978706744130884
Ni 7.499651113242482 5.726013505761107 11.975942652611947 1.5089200244344014 0.3136144218629051 0.02429075422656462
Ni 5.706448028529218 7.574792263146421 5.246387415114009 0.8872059398792334 0.6596077742771479 -1.4230752607544397
Ni 0.39550668521683574 2.3301231342133786 5.9159294451689 -0.7696471329254423 1.9833700616618617 -1.2578880532894077
Ni 3.7809210237787028 5.448527573176282 1.189755740829783 1.0736510282817766 -0.018346363717671628 0.1189564586322661
Ni 5.803359742879337 2.894924455948429 9.60452458851602 -0.6622747795863496 0.7020091220614942 -1.8543184235771226
Ni 2.05348746830864 7.042076829097285 1.826171007284895 2.2536135727382995 1.9487488720435666 -0.1570972313680456
Ni 8.2952577924666 2.6614281445707335 7.821895644482472 -2.048084214010795 -1.225309348022438 -1.4455495305975556
Ni 0.21155943103145441 0.45078055993540445 11.343746951351637 -0.562233926911664 0.8809273059593732 -0.10045145784954314
Ni 4.1652322195880656 6.5527810572719245 11.193018027946968 -2.2750115787981016 2.1933754538828483 -0.0608847513005145
Ni 9.166669016476924 8.151142261986827 2.389004568988887 0.3284597144058537 0.8977819156228667 1.3193086224887345
Ni 1.6451445592994602 8.075384435150077 11.284041411947738 -0.04416152500856265 -1.330690896183747 -0.11896725726554351
Ni 0.7915188586467781 8.818125082770555 0.4122401203527427 0.7085443520768507 1.6730718486563831 -1.592436654201819
Ni 4.2361126925016785 8.208642714176435 2.2701933486520924 0.5778508075133144 0.35249027299249613 0.5024316100420508
Ni 3.3760352430292166 8.944637289895564 4.704176090658584 1.3638794671205736 -0.17129897678972436 -0.18864055339196545
Ni 0.11963906240114276 6.250347739677958 10.352138852623677 -0.3858292534642581 -0.19774123014165298 0.20717717874357222
P 0.4116710957283769 5.168303968753374 12.407410946601509 -0.10987686492850109 0.10798530433274306 -0.08758745740268141
Ni 1.0064915030654382 1.2947132204350964 8.631458843926874 -1.1712691304475826 -1.0650293480510367 -1.9040013926245465
P 5.569181349439593 0.14240098173476431 3.9057308288255603 -0.43318074616502816 -0.05963185273001989 0.839478037675651
Ni 3.6109798108400266 9.12265136450012 11.333764259912025 1.650863430880144 -0.8121338413347433 -0.2655756732871233
P 4.439391834171672 4.253174087642762 12.991619838899288 0.24050510347174064 0.27525484824810015 -0.8976739292900927
P 5.291134801461305 5.397791880067802 4.972485683611396 0.1674420649374794 0.2893817745677855 1.2763010085789568
P 2.5732807175384336 8.78322677452743 8.546521874381144 -0.8176205754809275 1.0268811191160896 -0.7727208867547596
Ni 4.512981948153694 8.09287563542615 9.091126092207668 0.8800467031266327 -0.40133686218155395 0.2556596997249919
Ni 0.4342498807001336 5.19784839998892 5.174509981159019 -0.014951221993193608 -1.1958984989604888 1.573426431647903
Ni 7.890521509155373 1.8444807060354242 10.106967725677096 -0.08133582006601475 -1.4446074783992604 -1.611360230579199
Ni 8.417060830286514 3.2802821338255908 11.545266695045143 1.0892576244707821 1.8888426826062372 1.8085723276902594
Ni 0.12541807274876599 1.4837060131616524 2.0252277806831165 -1.716083833441535 -1.398402440598108 -0.10702062642662859
Ni 6.131273030106236 0.7475796928250594 8.524299080184237 0.07292625584608085 0.36164725690141586 -0.3389588141649646
Ni 0.06682442054190223 2.2950659849421053 13.415580558411381 0.6802868998930542 -1.223139594064629 -0.010319636758453194
Ni 6.713957982892782 2.6417225134904796 0.7182314769772268 -0.3165660482920613 -0.1181316487381256 -0.019687194016282224
Ni 3.31074223687046 2.1043446280857028 8.70285788607944 1.886008812701868 -0.32595597414739347 0.47627474914102497
Ni 5.977524258448774 5.417422762428929 0.1490760423529406 0.19222389986784957 -0.7577570663560756 0.4509033602557719
Ni 3.437329192714598 4.260714364684851 5.322901138372945 0.6619832164878598 -0.9343563723127908 -0.7398950984739903
Ni 7.061558214020154 0.943440958480537 5.9323807038900975 -0.6364228515202524 -0.15961974067958318 -0.6052376841666995
Ni 7.525616949549749 0.704641225480674 12.617874374538742 0.11855948030416356 0.29194542152990366 -0.06209059868315758
Ni 5.707784161883641 0.12962549127671222 0.46326172731188797 -0.9990270730182987 0.25078205991771646 0.22751717585250492
Ni 8.387310840073365 4.281615975271161 0.253004792711248 0.02991967037756783 1.1033310718447127 -0.7875774921516178
Ni 3.416521018027198 6.359555618324717 3.84971694178762 -1.9965873316830842 -0.07853460317179378 0.6889096085650588
Ni 7.773679917567614 6.13482359426484 1.6807884860158921 -1.2094806085202976 -0.9771968645170847 0.820721068783122
Ni 4.64780060669186 9.190896945064454 6.868427145330846 0.24629265668779518 0.8003633310623764 -0.16205123293921123
Ni 4.714504494924167 3.669984581002097 2.5290257383783974 0.5278955586411102 0.7165463964457208 0.11557391531327839
Ni 2.4472730642675415 6.158444189509449 12.825573968586198 -0.7336267489667753 -0.015710211646405202 -0.07000548265486009
Ni 6.9979283668620065 7.442748650805901 13.66906561164303 0.3268977692353725 1.2545001106537814 0.7378220179950454
Ni 2.191866034595301 5.3179976223981145 6.8887485189849205 -0.5920744073118642 1.7294204026494409 1.1918284426561732
Ni 0.3622902231541025 8.331193239187634 9.017088420269866 2.387546707285056 -0.02062821777331286 -0.27926859739318355
Ni 7.508518180049102 5.50645783050088 6.206680472322069 -1.487389606561793 -0.4674121565440725 -0.013645872918208757
Ni 6.858746251844714 7.694614459909428 7.304341119390577 -0.2268224637783255 0.5277040114555944 0.9965942952070901
P 9.293424156939102 4.503460830054699 7.183710702101993 0.1233918686958004 -0.8139914633687723 -0.12675924250613654
Ni 5.31374628899768 5.419300823997033 8.590529248409068 -1.248280612106631 0.885401796790959 0.4582482306566172
P 3.0569049302999183 9.307159234078965 0.5692283146254364 0.799366771477062 -0.23849552924087958 -0.28003761434872415
Ni 5.598436129388515 5.045641320663483 11.017372553379797 -0.1015619173049025 -2.585122358383122 0.4828416037252652
P 7.702528480547159 0.5455226927128174 1.1901724649389245 0.3243724317103575 0.17011164134984252 -0.5396475569707158
P 1.4873780439888407 8.19936452941461 4.159502730266865 -1.8530917502588728 -0.9045647428726551 0.4060118990597201
P 6.042471551781561 0.8087306855851075 10.778834440896883 -0.7863575037015876 -0.13055984719914934 -0.2652967085941238
Ni 4.028451407172776 2.032389642334617 11.035752329054509 -0.7357980455864812 0.4032389643002733 0.1954274944068118
Ni 2.3534353909915837 1.0541718422795392 6.247185868858822 -0.4606041324833035 -0.3714313328713732 0.33080918847463675
Ni 4.3704267971857265 7.406374055359987 -0.0004195271861087837 -0.012135349810953294 1.0557952310472785 -0.7800112497685857
Ni 8.539985098893355 7.688120664935139 5.3750860222735275 0.792024472179378 0.9126480341014217 0.4117624283902521
Ni 5.515203430638915 3.789348941860443 7.169365488542242 0.2040751427794808 -1.742203156236406 -1.7909052494277995
Ni 0.5738104111080143 6.0642421162277405 3.219942164668087 -1.1898744042535958 1.9248566388070012 -1.2530186410122486
Ni 0.05195690030724084 0.8491902985313938 4.187072860958428 0.06920304135822275 -1.1084984749782651 0.8657379998134446
Ni 2.1505580236869064 0.15401039217441162 2.5688621338789495 -0.4073930956779629 0.5875274113711301 -0.37913744326637927
Ni 6.92535670417811 8.397514040234409 2.6511184274849335 -1.071361975137284 -0.5491459833794542 -0.1414726374569112
Ni 5.978841704623413 2.7417176125046487 11.850075153189419 1.321409470881821 0.5779649644936756 2.3712379428227033
Ni 7.7140024089333865 8.722101009460088 9.61576492715497 -1.8201248084145494 -0.677051166564576 1.1378756425888017
Ni 1.8599910652545908 3.1640945935302067 7.418734690426876 -0.15608061717807314 0.6683109584781006 -0.12253877666688573
Ni 7.643486336025525 6.221681605892173 3.8971702317673675 -0.3176243143532465 -0.9312425092741574 0.7640462417988971
Ni 7.537754272818241 4.5971676930721825 9.717960441588483 -1.1181385691711905 1.1222649326347383 -0.6914349460900737
Ni 1.6663171339926117 4.8307948147083515 1.174225760071845 -1.1813033747551334 -0.9543680395480273 0.10580012375596617
Ni 1.735590509444962 1.8512267779367728 10.480945845425932 0.6924723862156527 2.4253192980481395 1.5099016716213802
Ni 9.170967067826814 0.4146619788525066 6.758409177440531 -0.4744870611129828 -1.7550231908192095 0.713489869007584
Ni 0.24809380186450464 6.647665212615681 0.6292655514704697 -0.5775574446426117 -1.2346437380494866 -3.146690369576013
Ni 3.9109183899330797 7.0237633929108 6.534914244682232 -0.692087492072408 -1.038089072016767 0.7338283234546201
Ni 2.7364291406263064 2.2831715950107805 3.7368407697496293 -0.9441946985594513 1.0992083079255908 0.8795252834055239
Ni 8.597065089537866 7.870946688333592 12.033570177624073 0.3538928097669776 -0.26064532586504147 0.00437653180114085
Ni 7.642019392412627 3.3157410574621795 4.721803707347067 0.10067462960394274 0.416262887363767 -0.1612433923259352
Ni 4.128539942085856 2.3623491757476587 0.30101589500749243 0.6643725426556428 -0.7187089513146784 -0.36701057809585824
Ni 4.429833341713113 1.3942317963648214 2.4480411073565875 -0.00583126196979641 -1.4991050952265086 -0.6394001889810214
Ni 1.995697364832408 4.62058272933919 10.764831202727146 -0.0415611112712381 0.41015446047318393 -0.5173594349964767
P 3.1777082040014872 4.589580698080638 8.983228184863638 0.3418001402685017 -0.33717961077735475 -1.1525113902241053
Ni 9.175835078160057 3.736370787178109 2.379363852939287 -0.4600755136733432 0.4482672081845054 1.1647321006600133
P 6.876788723924359 4.253370303030475 2.6816280515562254 0.5138321385695086 -0.5126617724104913 -0.3035027873501999
Ni 2.2867128155794942 6.680806925959287 9.102299156999404 0.08531897308347887 -0.4049572325429606 0.12409660807230888
P 4.18396611731965 2.03197852437941 6.646764490550183 0.9421969514031321 0.7651703281010113 -0.46451709438446454
P 1.8980942248303507 4.540573569102007 3.4093180445801767 1.716136026835709 -2.2300085317248497 0.6156673641404558
P 6.393641034247319 6.783352825013717 9.803636489094597 1.03966284426179 0.8730733571325932 0.41332257378852044
Ni 2.438284530792338 3.6277702418742694 12.803474509775853 -1.1395193488398117 -0.5233069108291633 0.25675961765739
