# total energy = -340870.7594925346 ev
CRYSTAL
PRIMVEC
9.18981206623461 0.00000000000000 0.00000000000000

0.00000000000000 9.18981206623461 0.00000000000000

0.00000000000000 0.00000000000000 13.45021887937363

PRIMCOORD
 96 1
Ni 4.0908540250585945 0.5759062227355874 7.482195179348353 1.2791053107969714 2.482741801831666 0.04353906093321534
Ni 8.86224120205364 6.0481829043449595 1.2124413115074673 0.21093767422726897 0.30085480820439153 -0.046096280137430286
Ni 4.6889545628825875 5.050086607116404 -0.09264800919020899 0.43854509580073503 0.22397599546846586 1.5237241793267695
Ni 2.0433547099114198 1.6865143079062006 1.062839442120829 -0.9662622198824521 -0.6204465306966541 -0.24128980415656506
Ni 6.974396491697522 5.816618020241753 13.042878771885626 -0.08506263409829867 1.4681011906458263 1.722188660787692
Ni 5.3620899161166395 8.46255789625887 10.539201781349886 0.3429139421579707 0.4705273051342864 -0.020343082432726256
Ni 1.5731304068003447 8.048198460615984 2.2673168625034514 0.2659816504762903 -0.8922188197127925 -1.1051825232311547
Ni 3.264781819643989 7.81162512894407 4.123608353176724 -0.026489561650096312 0.0903886742969024 1.5089945864260788
Ni 7.3778843796821 0.6934439188892507 4.0460546102830275 -0.28657592968787415 0.9801749733088023 1.275463600279326
Ni 8.791130436390073 2.835985189266355 1.1567767819420276 -0.09597491013542826 0.11376205891552019 -0.002300880219034747
Ni 2.287748571640155 0.8993839310647891 11.882501421581363 1.1760554960926328 0.10394455860446615 -0.3780688927925489
Ni 8.774496876574737 7.002232432405062 7.429658861805644 0.3395576240912281 0.8065553188057012 0.026392888171231962
Ni 0.3576702420335751 4.7371551270988475 3.0080203088547686 0.18183998553036426 -1.1245249323135085 0.35781477052920313
Ni 7.846555604556274 8.13137544950471 5.4562827327129035 -0.7221979383045433 -2.0277683852715787 0.47865353378584663
Ni 0.25566149028651536 0.08058362392746236 6.880418716703292 0.04158502253063806 1.057380059035895 0.05621768484214834
Ni 6.518489915764508 4.260406057430376 1.6474098196596747 -0.3738450845191884 0.1937195105767696 -1.0255150920064984
Ni 0.7042520568443973 6.337652794192047 9.592090561389549 -0.05741710446688821 0.9530086973066553 -0.47454388249284724
Ni 2.4776836071447614 5.011755901044713 12.612498736891318 -1.2215809913282574 0.6665631225490585 -0.11608196529794847
Ni 4.143190004698556 8.716279417221067 2.136244411158614 -0.44130928880943354 0.8064455327007144 -1.5376652148878938
Ni 0.46236885176845177 9.069370375908797 10.9735086230343 -1.1218772102780163 -0.88808679982229 -0.10828638051292963
Ni 0.11987742230227347 2.702760483938782 7.191442391738714 -0.5027244586921213 0.09276051696318863 -0.5133266596879998
Ni 7.902907532063252 7.934189652290545 2.8658915946293626 1.4234732675238064 -0.2967544128827728 0.900871610291784
Ni 4.651818532377743 1.9939778497524179 1.2868052706376816 -1.4040853499154982 0.03962867013521562 0.7719798948236769
Ni 6.635623260187855 2.782371825751072 7.76682847111212 -0.8405447883772684 0.8831559381795757 0.7705128233598473
P 0.35912958418753926 0.7320824836647064 12.988849109884358 -0.3981731197415917 0.1004720266748334 2.05071650942732
P 2.475569950372647 8.942238515972143 6.316249721921375 -0.2734072535164001 -1.1566642360502144 -0.6367900050516839
P 0.13883692354813923 8.571089576600915 8.934267272997657 1.7838647976412505 -0.6327130067688329 -1.5393258904197684
P 7.724294345007538 1.545322035528962 6.498378931068443 -0.6432714990109696 -1.6833277220564362 -2.1286512742315855
P 6.4599783824251515 2.5255349585030196 0.4929709259038465 0.6130630937483893 -2.136497766859198 -0.6816634685256067
P 4.2135104465255955 2.74345297170801 7.171575856043249 0.927894418737531 0.5391873295048456 -0.28660421182264834
P 2.6561589470196867 6.783257590814016 0.7111048996920741 0.6008585812623974 -0.6655192546655765 -0.2851350834762896
P 4.84388560427857 0.5037367907235507 3.867300819102906 0.4626250195680742 0.579395526292615 0.8931292473422038
Ni 5.683650629651655 1.9329574977226818 5.470015987844415 -0.11724821769190776 -0.09602838908118301 1.4694787877196434
Ni 5.761038036947198 7.543448033623022 3.975305923214334 -0.410854314753686 1.88500119737296 -0.5493848388631376
Ni 4.3560352416504715 6.411832957081208 2.3325103081863054 -0.4285039095146491 -0.12412206199360559 -2.2552153700077806
Ni 3.9499925859152514 2.2086059102425515 9.970647408256436 -0.08314073448523747 0.1546423420696498 -0.4824322841019885
Ni 1.4215904060517983 3.8397699801555145 5.218159998728911 0.699487384080905 0.9694231341089368 0.5179721288798111
Ni 5.022002541483442 1.1888859852540608 11.942274716115552 -0.5001366433602871 -0.09863060259072046 0.7475001645147579
Ni 8.260244183919315 1.306506389716198 9.160674834576904 0.7787683785004201 -0.9341776806430815 -1.8022785242617478
Ni 1.6430097376488557 6.927363033611951 6.077441427958254 -0.7709162294458529 0.4042200972666199 -0.4646821592074191
Ni 7.681892552196513 7.6808541034345605 9.749323650704726 -0.4432108767075205 -0.8037057651720481 1.294344753454545
Ni 5.048616237187977 5.244993330941505 4.158888041646929 0.8966177201114366 0.13166593577913452 2.6080311446604956
Ni 1.0235704562385601 2.7929125401754855 12.272019876264675 -0.7565077673300068 0.6900948871224115 -0.23935067815232328
Ni 2.0059797442932066 7.351371771910143 12.035147875701051 -3.0746231192961178 0.15970947217991202 -0.4846840562506427
Ni 7.2494935154942315 5.613366947072826 3.229733714437512 0.4631328124424282 0.9166304157879376 1.1727488003169029
Ni 5.967468785086349 6.011800438428435 10.968814467037797 -0.40171147191215334 0.5880837980952323 0.4394660649531077
Ni 0.04214815399837075 0.6462909932469953 2.34293431199765 0.12422104946531512 1.0320246109902418 -0.43698495040246677
Ni 0.2252818096027952 2.085287822307758 4.491054717271931 -0.6456214873003849 -0.6433632873938274 -0.20762583624521663
Ni 8.907096674682728 6.35754873728608 11.767838298637775 0.13849375733424538 -0.12177361636608704 0.1294902682840544
Ni 3.616558635208186 2.8132587840600993 12.871711170554986 -0.98821635555604 1.2048400244244928 -1.0335341056562328
Ni 2.228180209914741 1.839846322005018 6.0867488696051995 0.48453621781886874 -0.6824551111889666 -0.19050486029421385
Ni 5.791447125029487 2.430953412856929 3.178798262154377 0.12179675629453862 1.1420297739664913 0.9214584333042002
Ni 8.741156238447648 5.40405978776119 5.165933377852376 1.0513703625067055 1.9823087102768828 1.4255311784940998
Ni 7.358916607605386 3.593620864324719 12.442299741751029 0.6453101267075532 1.1332625692968226 -0.7050589646314116
Ni 5.903388225643074 8.981497393061154 6.3888538320435035 1.0726326143195914 -0.4878984494228823 -0.14735660704151396
Ni 5.488808234510922 4.735234456379839 6.699338984092639 -1.0746858973041944 -0.18366546877487724 0.30591525344643444
P 4.38038824359005 4.217204750970769 2.488613050619003 -0.810363893918514 -1.286644813707126 -1.2748982146941592
P 8.16633349455307 2.770287222901809 10.662217524468145 -0.5608815266488276 0.3164153816468099 0.393317077200871
P 7.847382687641013 3.0890082845125484 3.260400117257275 0.5788671645929707 0.23687856246274688 -0.06110432351048831
P 1.9166547711412432 2.647777838427651 10.145042471579975 -0.8382109980377693 -0.3316396547957321 1.575173496245997
P 6.335052077381141 6.4599691926131 5.671554080046724 2.205732432786305 -0.5001618401712676 1.012953453291404
P 0.527332552149989 6.879419784133167 3.7373853650955002 0.05461537335203497 -2.121160879391811 0.0750949813626255
P 6.272662443355557 -0.12502555501417983 8.595873580725764 -0.21542939145003545 4.157451443201788 1.0573895721175919
P 4.523060075707769 4.281073944736833 11.414218925757018 -0.40389253872387215 -0.16507587869814797 -1.7330502860925445
Ni 5.527488153440615 8.653274065787953 0.10683891696194371 0.8915217936457678 -0.8513403363308758 -0.15761839397883823
Ni 7.4327567474485985 1.1257152172039995 12.234131200152717 0.5582199206562644 -0.6445956171390318 0.29035313734211926
Ni 8.131255981948025 8.285451838379792 0.5808089874656874 0.19104710595092902 0.8798294449095041 -2.0933412860763814
Ni 2.629131709772781 5.47242279962101 4.006968501660607 -1.092184311199274 0.39142448816384845 -3.0373639778343433
Ni 2.8450463439502887 5.597799405455602 8.002382652627391 -0.7825098478207233 -0.9249101392982266 -0.14490300329469882
Ni 6.242290114521479 1.8624165004063784 10.140846403396724 -0.12388526339245115 0.0017565776797905232 -0.6807306722986921
Ni 3.3648680627096295 7.823443227243805 8.140745381873613 -1.396345558069079 0.3737563814601241 1.1723590210776518
Ni 0.5937647844975431 8.771721553334832 4.562999917869883 1.5222748484747524 0.9662321379754651 -0.2816980327702826
Ni 0.2407510202310565 3.9507737199397286 9.415206896962145 0.8895453866456874 -0.5098307307195995 -0.39997572016796923
Ni 7.2503757374512885 4.653086726441012 9.805626872207824 0.07272905223361022 -1.0713714882189806 1.549000694505371
Ni 6.0576943598194735 7.195365522503999 8.13181380353962 -0.7654392654916817 -4.094644535177896 -1.0572970124037857
Ni 7.873628790863442 5.046318784174808 7.798100482546154 -0.6153454620246628 -1.1078469574371952 -1.823259754499105
Ni 2.363555331262639 4.831690723684675 10.206415712392534 1.084090992668178 -0.7644601894078641 0.4865272801069685
Ni 4.036459527518834 6.570265316869258 9.85274303860187 -0.9715898027429526 -0.18872848512008142 0.8435195547348763
Ni 3.9674348491912212 3.2081541977754293 4.588703822181204 -1.9168131996772342 0.022124085592548994 0.3353299591631257
Ni 4.9891489633951425 4.566785201454378 9.10048524155673 -0.45492328004844235 -0.9100157386848973 0.36962667556246664
Ni 2.470092822389255 0.7453047852460897 3.5383358739970547 0.32808664733715115 1.3818825885662136 0.5191738624973962
Ni 2.1979641078855585 3.0922247187309835 8.109230759401386 1.5088722019156016 1.0317117077355136 -0.1692832319112762
Ni 7.1255413305278035 3.933726618582024 5.202867232492061 -0.46919753057926933 -1.4097507757313912 -0.4012905823246508
Ni 2.1954185299469686 4.1956822111434136 1.4480506318950541 0.7751989159816068 0.5143980383753076 -0.07909818898474764
Ni 4.3939799756159506 7.044827211269194 6.315066074128993 -0.6541243825650735 -0.11506869354208568 -1.0408614925555817
Ni 4.1087373993130925 7.1867546686106465 12.227096399026397 2.17186894726964 -0.5960989550902249 1.0187623466636972
Ni 2.010684928064174 0.6450981556425587 8.57833482442324 -0.7724817741607599 0.1821875986777701 1.5090267252155947
Ni 6.771761135936124 0.7842649934433888 1.8160621694315002 0.371498952884515 -0.5200796621411172 -1.1785600076820413
P 0.7728190825317869 4.7932313602442465 7.204273207326652 0.0018761339767903173 1.141309607971015 0.14564682343925883
P 1.8046033927830243 2.7070521261673797 2.97303653233266 -0.6213032222699946 0.6928616512342713 0.9815224884756322
P 3.5944571372215117 0.5689421831620732 0.10406910760926864 1.044400873167408 -1.029877482740252 -0.0330103934877496
P 3.089532103799551 5.341798811104343 5.916966172950895 1.8839781554250845 -1.7027228387535966 0.860874758183872
P 2.999839538165481 8.568470480165905 10.524406183945084 0.8628971879305397 -0.6542261982502604 -1.6304748399214628
P 0.24444991958225662 4.543268472411593 13.246958766101704 0.07834871241323281 1.3401055046294275 -0.12519652600470696
P 6.474553424340689 7.0847201853898385 1.5758680518108354 -0.8477505620970884 -0.821037057361644 -0.590072546390487
P 7.14641139369942 7.93314201371654 11.890114261885795 -0.17149078108555627 -0.3553750507394589 0.5112638636217002
