# total energy = -381168.9998509811 ev
CRYSTAL
PRIMVEC
9.29026162931547 0.00000000000000 0.00000000000000
0.00000000000000 9.29026162931547 0.00000000000000
0.00000000000000 0.00000000000000 13.59723696853348
PRIMCOORD
 96 1
Ni 9.062538638123321 3.275950600778607 8.45247782139564 0.11534508713192393 -0.6157398692496041 0.7878569710652497
Ni 4.986139104030614 1.8933460092906267 11.363374098586455 1.153964320620548 0.44103803742591785 -0.17398449404168748
Ni 4.954477892740753 8.655931761796044 11.890362325750518 -0.31688692196658974 0.45839092688206856 -0.09030202812036707
Ni 1.328702494098375 8.818167598871998 2.0458809552782955 -0.8058204975222059 0.12255034663111151 -0.9668589729261865
Ni 7.921155687228431 4.122581424151951 6.359332660590006 -0.6650631409647642 0.3653018229348676 0.16946835133888877
Ni 0.2329969720617183 6.614926335768018 2.6426641302291376 -0.6534301847115263 2.36056169405578 0.8749407493586352
Ni 6.119067916934373 8.069716259334115 6.043482349136747 -0.7228977925850454 1.0382227693811539 0.8552329865170625
Ni 0.9396356315373116 7.03517131601945 0.36259983649190664 -2.717709006204313 -0.7190491082629166 -0.5719043601218924
Ni 8.87431793955155 6.66234383061058 7.191809770524352 -0.2813118530754574 -0.6615492142742349 -0.0985922931536173
Ni 8.908794100084613 0.7199831911354397 8.771006515247628 -1.2344940998454996 1.0242318544187006 -0.034093342139283216
Ni 1.833609627660988 2.5479749976500137 12.680416385440138 0.33339031893825166 1.1290058509029974 0.46576896451369465
Ni 3.813085651584333 3.9888388191845667 10.623657462937869 -0.276956147209923 0.1140371669537778 0.5125090488827109
Ni 1.277819731705602 5.638473397792408 4.648731669726124 0.04098441283216167 0.787095924529509 0.19869562363512233
Ni 6.4911150203748305 0.27587524512135037 13.537395631130316 -0.4771918616386556 -0.33268532245142707 -0.7324988060099191
Ni 7.848004167951327 9.217351556237832 6.899605032713979 -0.11801080688954516 0.7865747619187163 0.34635922039409384
Ni 1.0074731212199899 0.47912201268966403 3.995452556366859 -1.8902421340569253 -1.4739494218964873 0.42846071498153954
Ni 6.645194007828572 3.1705154226892183 3.989266171214888 1.3196009569181724 1.2285137138923485 -0.11078934944044146
Ni 4.8041707514676695 6.971003479640614 2.499321898024132 0.15716562271213577 -0.9354876577037567 0.3173083257747245
Ni 2.938481850748028 0.9496505334652666 11.655415327793921 -0.30899569214397105 -2.1161703681557555 -1.8400968806611018
Ni 0.5163601679752131 4.450406882715724 2.5978339732223223 -0.81198728845455 -2.1899116637039637 0.032939945261130366
Ni 7.318449970553033 7.033015975344788 12.080614804518618 -0.3354032356032224 0.37998410753739076 -0.025639297834659066
Ni 7.181223517512381 3.4002543000328163 1.7012317621121724 1.6565090592016953 -1.7645241883311096 -1.613404000482105
Ni 6.21642056749378 4.8252224840917375 11.332182045503792 0.8641210330353117 -0.8701839513999402 0.16590763057082394
Ni 4.904728542254483 4.138774349996502 2.284362897746567 1.9008772451732683 1.5737475624327477 1.2523483544181013
P 3.450477453857051 1.660662119042426 9.49529016844471 -0.14953895940481343 -0.0998099676108023 0.055291059262820914
Ni 2.099060270320967 7.16691651475816 6.858854229544423 0.3296622193543871 -2.799146899065831 0.8902431840436603
P 0.5345328485515329 5.243981022498574 8.705889214140557 0.2978874980459515 1.2978643365720293 -0.1452999816228014
Ni 3.6195787942027247 2.4899387338801295 6.99545173187958 0.19951683398483702 -0.6304635486130238 -0.9955601975156209
P 7.143235638121465 2.4636194229692796 12.484234861764413 0.521266997580999 -0.5632567117492235 -0.9553584284857547
P 4.601011312357725 7.29099724773568 7.692296597651603 0.4040113236899236 -0.7077185137414458 0.7797446263707604
P 9.154986030595566 3.545358894849819 4.7009587329621025 0.2601917832673906 0.9002756285789979 -0.5490310550681448
Ni 5.484329378507966 6.178488429672036 0.2422575047535416 -0.2808164014962776 -0.10334317757504138 -0.27281487134803983
Ni 5.70750933121229 0.6201927759508985 8.438377062447357 -0.23148438803036908 -0.5710039597948101 -0.2083470306819573
Ni 4.602061111910471 2.083787080367759 4.193251514574734 -0.5966162610462757 -0.08972532968129064 0.8740856004471914
Ni 7.255972961772423 2.266387170714656 7.616790926103122 -1.6735343901150983 -0.9360371024493235 -0.9235682805583514
Ni 9.042982637605377 3.0245096725039304 0.06051769262420361 -0.2278758447435043 1.1317001099057091 0.9123490148037642
Ni 5.582406669466612 1.8763912820007214 2.156399764476197 0.32788918661436434 -1.0574474219387207 -0.8943482073509694
Ni 8.452781612947629 0.8707492713280413 0.8346213022951736 0.43404386549627183 0.024772321848673465 1.6066900787970393
Ni 4.1254335344412665 0.9802340744177969 0.1884622453715163 -0.03997551195167309 0.4585027698695845 -1.142225434917065
Ni 1.2607628115388807 0.2129365103427636 13.346924831216294 0.7332935339970725 0.4807983480429913 -0.698099759704759
Ni 7.790460288042466 8.03751621287559 8.97985995564852 0.7278651638926497 -0.2301492141587133 -0.1455277813628913
Ni 3.8491504468388054 5.150121510273966 7.292973286362837 0.1765666529465669 -1.2035182202892756 -0.6640575825183854
Ni 8.743511057227241 4.975334529872718 12.05675183875596 -0.6702449422760198 -0.496561524414519 1.9525960137037983
Ni 2.8233848006687756 7.5202437412182555 13.066074651046318 1.6369460494681034 0.4994195626886044 -0.7875373829423018
Ni 0.9470120991911114 4.049838676382111 6.589778526835939 1.191124474610613 0.4720056894520258 -0.725764315499563
Ni 9.060485490325476 1.9079317198907095 11.561648718184598 -1.6889658941788201 0.86696493024201 0.9335480174788825
Ni 7.221320286270315 0.8711515396522347 4.247002180701422 -0.31702884686109273 -0.7001779823900265 0.8127336797022713
Ni 0.9554662371822423 3.9731382772010386 10.545513357115235 -0.5871304330430275 0.07076035854301362 0.2565318179173002
Ni 5.492755645714511 3.387777478799752 13.389293997944153 0.026638942743767026 -0.43906085909488907 1.2255816278472182
Ni 6.337082484228732 5.907026987802978 6.791628968096487 0.2184244695226174 -0.2721985779202796 0.13083212702392952
Ni 7.983985725947131 5.481644492926167 4.202715503994037 -0.4795004551671742 -0.16462799252745194 0.9943072989451263
Ni 3.7044546235290663 8.596474088012267 9.319165390383327 -0.4176263433701969 0.23287458350967638 0.8821776334267065
Ni 3.5001246114665046 9.027179902745031 6.8126370364913695 1.4947421902721227 0.14806031797675792 1.0635566201602522
Ni 6.846829844047807 5.456867365429083 2.1141123520497915 -1.656634014815334 0.618550856335838 2.199644574721012
Ni 6.979541229985503 0.5637172761178387 10.656208681282182 0.15624491067007928 -0.3436757600246597 0.2711649944494427
Ni 8.976993909966913 2.13967729372451 3.0917126373241977 -0.5883794749587802 0.06077856473995339 -0.8332659953276682
P 3.830096120443411 4.501187452231681 12.82568913399081 -1.521989713134166 0.8073986406426031 -0.2809572979495161
Ni 8.227659995583803 7.809226616330471 5.148947221216736 0.5980892460473765 -0.5897149059407522 -1.9628662852815553
P 5.488612189072703 5.339819360428801 4.342263593390715 1.146886330727844 -0.7859055037658337 -0.8136338229190373
Ni 2.143300495720709 5.579071465577803 11.683738548116516 0.1377090566494209 0.8370941108245068 0.410668423995125
P 2.1910617302398334 7.89664797731568 10.966987438966916 0.3774808814995628 -0.6815287427199553 -0.7419267841920384
P 8.719068379145194 8.460966333354426 13.009591719004032 -1.0882854903655002 -0.17870761054896964 -0.3923675688034082
P 8.426007079221872 8.817721666318619 2.7220986533781106 0.4322785460657329 0.15725149755772272 1.3053207928500745
Ni 9.246374333253538 6.559333410780186 10.561327240289414 1.7002676923448845 0.8940846692769375 -0.6546748557519048
Ni 7.657507355305023 7.296367018899277 1.2761019623489425 0.40675957585902206 2.8861306614462423 -2.311369291491529
Ni 2.716221633935046 6.231303566462781 8.952801139919986 -0.5635225638161004 0.1751594881863951 2.2353361145853503
Ni 5.43122624360983 5.41054612144691 9.026158903003026 -1.721404988544132 -0.5009974486986856 0.24852643111432035
Ni 2.993396586644263 4.022497436703102 5.204124871514234 0.8867714234449761 -0.17930642047523312 0.41952921681986455
Ni 4.807682470325523 8.725701625876695 4.314988314568559 -1.3592789922340849 0.8636111832784288 -0.02773577535237159
Ni 2.756717883938715 0.9692622755523842 5.148729829096964 0.7792468607987354 0.28039988278414935 0.647091386977692
Ni 4.2104115566444245 6.6263254866637515 5.507030132553381 -0.5663340651229666 0.10216972609223048 -0.997675701196727
Ni 2.1513551524661048 2.3669728322860557 3.516558155084649 -0.3616025197064095 0.5839787747879233 -0.8915333636099936
Ni 2.2573477462472162 3.811404114247636 8.5731258027383 0.7437054733590159 -0.5689766449521362 0.07320753453192554
Ni 2.794231959991667 4.412242488355762 2.9578204591462014 -0.3519462275635681 2.4304777023206268 -0.16416905061316242
Ni 2.5007711788226117 6.933480113326133 2.053332674050478 1.339992376090331 -1.1897265658218221 0.5474415990938378
Ni 1.5499036210970836 1.5357545527888505 7.553904216789097 0.8831747072326531 -0.2928813030806117 0.6281572690773504
Ni 3.398860760803509 3.0214438861994544 1.224563307492242 -1.2098719304214454 -1.6720606337830495 -1.212822014188705
Ni 0.29807060893960385 9.013439605944063 10.991680025084088 -0.36867151073804894 -0.8589302328629916 -0.07924268498241191
Ni 6.287054425896602 8.725469369338477 2.4785451571413137 -0.5608344754609761 1.3070891976044072 -0.46708305533942784
Ni 4.589770095907981 6.352095546859137 11.619668259483731 -1.2130937797928527 -0.11426136714944192 -0.4555287748429252
Ni 5.964635899542541 7.458723629375103 9.999380688018949 -0.9686471751748609 0.37504578969550895 0.24661661568611723
Ni 7.602221008947638 5.5521482876675865 9.320647187097158 1.0473923516955639 -0.4553673095643964 -0.29747817842267477
Ni 3.625338756350528 0.5559050951983422 2.4107355382432214 -0.579961168988098 -0.4436392224941908 0.49942059112986886
Ni 1.1668103966989842 1.7298931479544117 9.947180566541402 3.1155393978945054 0.37966580496602353 -0.6741172807472327
Ni 5.5028634502577525 3.774373131794177 5.990983081237977 -0.3292724401151361 -0.45094809745077824 0.41238849201002525
Ni 5.0054721382718705 2.9518598273493777 8.764411358588392 -0.1699748586616621 0.5650300015995624 -0.29285893448310857
Ni 9.164554999970143 1.805878196997773 6.081078179491151 -0.6759286229243585 0.2985094479006665 -0.9365274118221806
Ni 0.8719133410975893 8.865733737899019 6.1121206593632005 -0.7009485420074638 0.4857983723607439 1.0015115300030493
P 4.546133737507605 8.22124971512899 0.5348672979665667 1.1259922608876545 -0.4335391579457114 1.1929466154210167
Ni 6.9568822821169665 3.071629878977574 9.84012981197217 1.2196611485977251 -0.295579161627749 1.1211573013928562
P 8.570470645993392 5.461456754624269 0.9271550941996356 2.0409303765748334 -2.479592200459091 -1.6675519472794185
Ni 0.9034807207460106 8.017607182419551 8.675825927833634 0.7231854990287931 0.4299565828007756 0.6633021924095995
P 5.489550505487104 1.251073068764431 6.053530696006205 0.046129190257894755 -0.20805906712789332 0.43979028106174584
P 1.511850709875466 1.6855321491547968 1.4883667867831798 0.08050818195839682 0.5152755558842546 -0.6315200149019963
P 2.4024151800181044 7.785740835185878 4.914299369681365 0.023988135384481267 0.9596717111491279 -1.9028256271488906
Ni 1.7319648762753153 4.584391034482854 0.4818422012652719 -0.000641233128424702 1.060511148465709 -0.2858508785963916
