# total energy = -340868.9431572879 ev
CRYSTAL
PRIMVEC
9.23449849234342 0.00000000000000 0.00000000000000
0.00000000000000 9.23449849234342 0.00000000000000
0.00000000000000 0.00000000000000 13.51562198095750
PRIMCOORD
 96 1
Ni 4.9315176613138005 4.037655152054936 11.747561894304111 1.0614945954249009 0.589992585082171 0.46227354976592644
Ni 5.838927179757786 2.1259200542277554 8.611803265135208 0.17065234434466095 -1.0705716180255045 0.8435347242435279
Ni 0.33653467289374256 8.182347375319626 2.205695039195993 0.7642686422223482 0.4225842015961045 -0.17752336043288136
Ni 3.249499946233053 9.25324445382724 5.589818273774933 -1.946314551570461 -0.25800891668345893 -0.9147357698683859
Ni 0.05714584658505145 0.08425094635339542 4.404430036931301 0.1538959508219285 1.1052128622484578 -2.168147789664311
Ni 4.06632826965534 3.5538043727342243 9.641950349006086 -0.06763209732667708 -2.026624758585439 -1.17232328274371
Ni 3.982479023983303 1.7858504153380599 3.7017391905554686 0.07480290404350343 0.30460064840006895 -1.02568632747704
Ni 8.326036170766422 2.6417037290918484 8.702871118223747 -3.1716449826388216 1.932224392025982 0.15051237906167625
Ni 8.965940738921025 6.105434804217587 3.011767018856299 -0.650612255646757 -0.7088533986768372 0.7505335520244429
Ni 2.538776009679896 7.531546099027025 8.633008443861717 1.5573832621421115 -0.21993499262987284 -0.16189516697732115
Ni 1.0801777494217537 2.018947624506954 9.03855898761219 1.3771522729700798 -0.7901149138614909 0.4075399056684723
Ni 4.413619286311064 6.881852962545069 12.60479022487294 0.9272842959573578 1.0089497314486497 -0.6526768514852694
Ni 8.374304894018374 3.270139050206291 2.971639429413208 1.2762171906158988 0.5305034285776025 -0.21961411895534436
Ni 2.9378171554926786 5.263396300103156 11.946052820636448 -1.8695460391601544 -0.043337743555686654 1.2160302367133573
Ni 4.142032687719147 5.828215161588231 5.696577386582185 -0.370489023562762 -0.28007618089614345 0.12879992708524912
Ni 0.8148078151675471 3.314436939136771 6.941380386273162 0.5374202103020937 -1.3513666793655434 -0.7804154271855398
Ni 6.8617679284771524 7.6327100292403705 12.153895523520772 1.0370719436061624 -0.5296323388265588 0.1716717867481108
Ni 3.4736673954278436 5.63083699231575 9.855523981611123 0.6055912108513763 2.236583870949522 -0.8386581128775169
Ni 4.1698100589726135 7.544705259278419 1.4060438062885243 -0.4653069372756115 0.3867407095349339 0.5609769145761113
Ni 5.650247907998859 0.04615494656315073 13.124372048938016 -0.4476573425146484 -0.5344757829617891 -1.3783979724517228
Ni 1.6952876893132065 2.2659889262931143 3.1634667416842053 -0.8458548877362723 1.001028933939676 0.44714106499986217
Ni 7.323068062651266 7.240086859830899 9.754778374176295 -0.2326835505447928 -0.5002474579065385 -1.483510326112045
Ni 0.7516844777539153 4.042946519650759 12.439616445397448 0.6189604330694308 1.5489500437730936 0.01794347185229813
Ni 2.990176761545592 4.812337224679076 7.573249093900916 -0.655045351717446 -0.18071152835287585 0.6824206584066054
P 8.104131173685028 4.763652948998131 1.4451038877140292 1.2655337427601236 -1.5206457975117618 -1.5049286438868212
P 8.874648487520833 4.461472457134025 4.738631152073796 0.33487744500673944 0.20369230551876533 0.4309508283932449
P 5.8162103136395915 6.031715803314517 7.057236403475957 -0.07333891790346725 0.4158700228007225 0.41384553617152603
P 4.527462182857856 8.82293529635746 4.021154026824608 1.0171016711318224 -0.23161911383602046 -1.3611160454428235
P 5.0153853759826825 3.6031904702952433 4.708896990604701 0.5074041235559777 0.960325799793359 0.8927824055257463
P 1.9297700732454053 1.705778079520633 1.153885668926717 -0.5234328948840663 -0.057329944069720626 -0.8962299977547146
P 8.526036937590758 0.41368613686028094 12.316758831491072 0.6297133007105606 -0.3235671622002428 0.7751603494341875
P 4.422438232304103 9.088131622041333 8.34347736793611 0.8435226400586698 -0.16708545292900903 -0.9945451259875453
Ni 6.2262497470730125 5.364846499767583 2.047548713019667 -0.9501794553879764 0.06318331752670409 1.039726350509874
Ni 6.4116969443842295 2.278797175604471 3.6536376117249545 -0.7680358225742644 -0.9354920285791308 1.1625834297481268
Ni -0.1924524878141692 8.065420156299876 11.004851502116725 1.0139104178880345 -1.6895873298129032 0.08810270647620311
Ni 1.0838253762984558 8.445521345849073 13.243768572835815 -1.3460046437226818 2.1739330288875203 -0.16715358716278308
Ni 6.402499383955887 5.56506889455405 4.286736354542522 1.548201338532527 -0.6383424371404683 1.386800337582805
Ni 2.950449949334016 0.9855241405959408 9.6746847990125 3.352068033217001 -0.5316210871218136 0.6494632296439782
Ni 0.9137157574163894 5.551189443425737 6.434652060561713 1.3710723853245872 0.23862922660526642 -0.7837434631175082
Ni 7.757560447906223 0.4680025331288222 10.184548236938227 -0.951898237851296 1.309382621624274 -0.8628853608559978
Ni 6.8027687180587995 2.2676141980153917 1.3814855811849764 0.2796390933587249 0.9414683007672237 -0.7502450742497466
Ni 8.251679989472231 6.467168576405366 6.974452818921821 -2.1850530500600818 2.2391035520475824 2.2243299932828338
Ni 8.9248933934351 6.385110823427203 0.3017630925354288 -1.361384468612862 0.3070267413430583 1.1051550124273288
Ni 0.9227664893198215 6.422556714528537 9.650816390941076 -1.5778803536541985 -1.0277115854371848 -0.27316608403987147
Ni 8.374544990977348 4.738202671347015 10.213931487467287 -0.1101010651241652 -0.009403038481454773 1.27409988716258
Ni 6.515077154218861 5.214416520472707 13.284842698367164 0.5621004866575932 -0.14576792239815542 -1.2961311559310065
Ni 7.718600099063676 8.775229877509252 0.8265245467654194 -0.03931088178448069 -0.10339691363111225 -0.542813356293207
Ni 5.21725151148827 3.754783996391297 7.146980029490776 -1.128157129749457 0.3674785188712123 -1.3708037050442325
Ni 8.40084484248329 2.239199646370804 5.121096373219035 0.36127598960492624 0.8358142156708186 0.4707556190950086
Ni 2.9145646884660055 3.5574519996109264 5.351983766915537 -0.011556594489347838 -1.688537034171518 0.9954318994678728
Ni -0.09547547918537351 2.742405934384091 0.6621477045037496 0.008406221785824234 -0.5428398386557683 0.16039672805492375
Ni 1.556576288515886 4.4677334470641625 1.8730351618401342 -0.4862619422607238 -0.12264599166871136 -0.8735564674165989
Ni 4.790377587431487 1.683319779358255 5.881052191209563 1.3528332366087412 0.0960921524395829 1.5770928247558968
Ni 1.7885838268709808 5.172741229094083 4.276801881140102 -1.2625983142808836 -0.18397580092644447 -0.21109888239548158
Ni 1.8827757107756922 7.539774037121054 4.28684439817406 0.02003609271526872 1.3914499205396744 1.5891708389663535
Ni 2.2412589395189166 7.658437341844147 11.071011142611521 1.5444611547638045 0.19643716661824878 0.21313468187858775
P 7.846239336252982 7.538582786824613 4.74479425632066 1.4519088971566803 -1.6640305643897215 0.9377795390617268
P 0.833862279211565 6.408021614012261 12.10387501591816 0.32857078606242124 -1.4550443574618683 -1.4650068679912187
P 6.210117078329724 7.131710786349949 0.7907288605321026 -0.23784581147202266 1.0255469736856984 -0.5983759240498597
P 2.460790670505848 7.135635448179312 6.483430528126562 0.27384485527445096 -0.05243327809905163 -0.10007324857451798
P 2.648574195917839 2.953441926822754 11.41976767416682 0.0814944571310661 -1.1087285887112 -0.74830826223835
P 0.07061436253358296 4.782833002220689 8.336070376751799 -0.007276221946439082 0.17917863664811723 -0.29015207707490676
P 6.854158701777399 3.1261916888036794 10.541455136800813 -0.23786920851079035 -0.2536778934082728 -0.5840903606651231
P 3.134604316866149 2.4710779017479902 7.8858654924317575 0.0340743159758897 0.9044577849811455 -0.5346321060339954
Ni 5.242554037164633 8.070674585902012 6.300415697699708 -0.4445535067783441 -0.5423778114176853 0.2865700161506033
Ni 3.6687000021011285 4.401466686387671 3.1253661246447497 0.3672964847673932 -0.32237648432625127 0.00669875217641427
Ni 8.981565510251102 1.011593129641333 7.23470961139975 0.6637439079327085 -0.753918666446592 -1.0807927815328806
Ni 5.093740095093611 2.203942331395491 13.42978461524983 -0.8045172053297499 0.6590472737879876 -0.5882303509754255
Ni 2.1954281238503794 0.2170199474161392 7.540906186627597 -0.8064697010704305 1.420012819779032 0.1723209902963355
Ni 5.239820625631712 1.720608683986414 10.988903523341879 -0.4790692811670265 -1.0566213264929996 0.20385479923855862
Ni 7.238535464095998 2.0360591500829766 12.536631315469776 -2.4758121645913684 0.06037361599205087 1.5931899874280757
Ni 3.0594632032060867 3.267636501133921 -0.0730781267125807 -1.3633413352289165 0.0008595197868178744 1.311832111606031
Ni 1.2912137418604173 0.633256652740585 11.147131113104319 -0.082248047467639 1.3208145176102994 0.9764605005716926
Ni 6.797957544380922 9.081732114634868 7.952726954806626 -0.21844452412727539 -0.04675936764272592 -0.031016502986172388
Ni 1.669126355283594 4.095832492113727 9.983124433907056 -1.124401519361767 0.5632438562334171 -0.5337882699764613
Ni 8.874796239495584 2.429504189852009 11.277597030260608 2.555808954130985 0.5461655605948916 -2.3585696033264156
Ni 0.3858819855613892 8.068458306280725 6.210495692765028 1.2035827549786238 -0.06240658726167961 1.3168719880227837
Ni 2.6594893730526787 9.264048816981017 2.6601173189453773 -0.0469408875259127 -0.5494935965268601 -0.591126441576298
Ni 6.998447739621626 0.12500463478950052 5.347010066065431 -0.47205582596367085 1.3605645438147278 -0.06296091710325286
Ni 6.370760412879368 4.884892678780969 8.875587636010353 -0.27028850538176036 0.6348634774529324 0.7683901205898896
Ni 6.475470390486771 8.017511578486381 3.2099873743848684 -0.29723700894614613 0.35178141985092964 -1.2226287158664815
Ni 2.0737359036448613 6.616961375309123 0.4061757192936435 1.8331595301113204 -1.2559214164813404 0.7823481254318785
Ni 4.589933564682893 6.55628148617796 3.5468369436748026 -2.3362310877302153 1.4440081542523646 -0.7000946786476007
Ni 5.148297511770967 0.4894256460180908 1.7873464040824287 -0.047992982939510896 0.572217263376621 1.8399698681649346
Ni 3.2911382996179883 9.61089657771248 0.09067723380528647 -0.465689774536327 -0.22866903006876105 0.16803316155425901
Ni 4.182128879867602 5.181015339680222 0.8041456632894707 -0.3102779012905043 -0.802630015609366 -0.13028113961646595
Ni 7.274531538945072 4.701338553646268 6.302982888261033 0.43359237978115006 -3.4529030996582084 -0.4266869109105684
Ni 4.712429186251127 7.674440727609525 10.074895955775354 -0.6992487857075377 1.649913665372365 -0.568502276418879
P 2.108993218620174 6.521550537612703 2.5735097285946793 0.5417764303882604 -0.5983031618303953 -2.085935480530614
P 3.8475722365358593 -0.24167051750390744 11.596714515680558 0.49098685854021895 1.2302960026037522 0.5930488554099915
P 1.4256680388851815 1.6755535661853271 5.218422445888183 0.3524175107730318 -0.22619331483475882 1.5773627905878318
P 7.059626291667579 1.8891659836837373 6.790599496038247 -1.096117584815409 0.3454871022017856 0.27310129224020707
P 7.985901890387771 0.9089913880236786 2.4937402843254954 0.7417087546439612 -0.19161994773526353 1.5433221560633548
P 5.868394464222486 6.186873845801474 10.894064301097783 0.17819673235082215 -2.88081182033649 0.6173568360277367
P 9.170955838388526 8.583235420816816 8.59789518706179 -0.6216305237024262 -0.85880681991125 0.42948015738498935
P 4.502288940159401 2.9526846979521477 1.7976585684703101 0.7370231762428339 -0.2988385491053111 -0.12309876293541382
