# total energy = -340867.56627935986 ev
CRYSTAL
PRIMVEC
9.27734463983535 0.00000000000000 0.00000000000000

0.00000000000000 9.27734463983535 0.00000000000000

0.00000000000000 0.00000000000000 13.57833164876701

PRIMCOORD
 96 1
Ni 6.903745441695125 4.1485781251374165 11.732275941806286 0.002923344294382062 -0.11340673245863049 -1.2860974258440883
Ni 2.182829358550454 5.488096837528574 5.471320614850358 -0.9334400311461084 -0.1211411249884107 1.6025472602732596
Ni 6.0041305896882955 5.000906350483367 2.597561926908826 0.03498808603941071 -0.3610664446972814 -0.05075023396967389
Ni 4.149617187759747 0.5037885847024522 2.29230759409575 2.3081824091231153 0.09398641895048974 -0.388786279210053
Ni 0.6984810880926587 5.844105668504557 3.6197527699092213 0.2582266891212198 -3.02820725103574 -0.3778624332086976
Ni 2.1152253466850772 1.4168453816511986 2.4049262108701432 -1.9766936780829503 0.09122042616957839 0.2839138094746788
Ni 4.9720166986446435 4.082254386860269 6.72556475665513 -0.03537066618981005 -0.11364198839788814 -0.685666933258045
Ni 7.842659126453668 0.1267507961725718 0.2190780043080251 0.21615804208594386 -0.32486916884111794 0.2274068755268858
Ni 1.5068820133451037 3.594191829399891 3.8532459126331133 0.03612194253353779 -0.7699222409636999 -0.22366386354468573
Ni 3.6870209418913094 2.826742032015562 3.0722743851412244 1.7492459220158003 1.3499536010681008 -0.5320409482680514
Ni 3.809899374326732 1.2138014124340109 11.488097153293106 1.1225099587660086 0.10826504035669098 -0.09817757421370188
Ni 5.8240016622314315 9.166888774544821 11.138523088699698 0.9000869096069596 -0.7479292816323764 2.0937331221981617
Ni 0.45930928259083365 0.7076433938588514 12.107731015306081 0.8688606046028262 -0.04419906311471743 0.4943922846773421
Ni 0.6377951922761372 4.432065951481637 1.5613994025760223 0.7824581686471815 0.8470180548064381 -0.026168430865251707
Ni 2.9995418570470593 5.407792140574175 11.57615214412871 0.4488446779545302 -0.46110601182038646 -0.3233594170648108
Ni 4.5580151850598405 7.730848566415035 7.827039788677279 1.4618163860783793 0.7520805847965887 1.1659736863765984
Ni 5.505547523176821 8.7766279864113 4.452810094548878 0.890210531033512 -1.3333687001262264 -0.6218166715713033
Ni 7.834801215372294 1.8629093990107712 4.626884626761698 -0.9292612171780706 -0.8397022378713153 0.9577850356493762
Ni 3.7692089398486828 5.6965958855129974 0.24771809557049335 2.2874922277636154 0.26540932291258806 0.9987465656634026
Ni 2.007775138722294 0.938217883895376 9.980603762922899 -0.2822942715933848 0.09949680724575767 -0.040088126270137414
Ni 2.696460278396035 3.4237113405789534 9.931639792314542 0.17841347634731852 1.0425134263367077 0.5608257337102276
Ni 5.803582226233669 1.8220055856013506 13.09687131730601 0.17432619365182236 -0.9919570535453949 -0.23307795776973408
Ni 2.0429084436398437 1.7928840001415702 7.079647610841866 -0.8746072772786163 -1.0474481446341637 1.4725381433712577
Ni 1.7017155323769124 5.884666220154815 13.416559343224636 -1.7081607219397164 -1.017974560655079 0.5682742195684729
P 9.02904598487887 4.3314345919778985 9.251311684874688 -0.5598399727581908 -0.7540338518682175 1.8254799020788757
P 8.049386201573224 8.59265823818975 4.769199096641606 -1.0366232861045177 -0.5543918051594259 1.5382745663371185
P 0.38054369714576164 0.862559281237969 8.44547780094009 -0.09146416674926829 -0.09703394752756192 1.1084912758894134
P 2.5762629986200194 5.979656953994475 2.276896068843827 -0.38031295163171924 0.5057053956973161 -0.8151361184961768
P 4.02957762284605 0.3457916911012279 9.406552279323282 0.6137611482566784 -0.09980122586005392 -0.4358279539798881
P 7.963895468852015 5.372167136379987 1.7114131409405022 0.16887648339116076 0.30890416087142925 -1.0925141837348669
P 3.080625850968206 3.713053171518625 7.795320546661673 -1.5404918857034113 -1.163189695873558 -1.688001987603654
P 8.788892636292736 2.1959104147780075 2.7003632573711642 1.667215646985922 -0.3142289155184524 -1.4894511170765121
Ni 8.05505465927183 0.4896415615525258 10.17785588575508 0.9572443326545579 -0.9924121388049424 -0.4339615901951107
Ni 3.6008436856517747 5.663614924598846 8.402950452183278 -0.033888682327644866 -0.9878080643740279 -1.3741389400650528
Ni 4.694772525379248 0.793401314111517 6.8454484621754785 0.04034652213784664 -0.3146130383307485 0.4602107536996268
Ni 0.7810030704643524 1.2256671364872314 4.486253994970657 1.4973968542861502 -0.3128698303873967 -0.06452646181815984
Ni 0.6349201431095282 7.790622499233565 13.13850247455106 -0.9463102022405574 0.6547720434514014 0.04317833515968693
Ni 4.219800301491266 7.063983741810233 5.718582265054613 0.4603359664235813 -0.5998849044952185 -0.7707411373205694
Ni 3.74966157426609 7.000035003812697 10.133210519170785 0.7208319111949522 0.13294325982966135 -2.061655267827011
Ni 8.861729070649135 2.368237095222551 6.701681160093277 1.1330453110796939 0.7451524902181876 0.7072549438414658
Ni 8.455372089214334 6.5063039886537135 6.607406637275438 -0.5226975593799386 0.3131529088454542 -1.6680088323111788
Ni 7.329566292608938 7.210946161456101 2.631616276621223 0.624029620062222 0.32350237040057833 -0.2904258995615837
Ni 2.364906528424188 8.374659189086877 8.711396191622082 -0.9339807341409271 -0.8530161813714019 -0.46519946516346977
Ni 2.479732225536549 8.518049830968485 6.3697173514794025 -0.828449033554999 0.13395138937920156 -0.0913078436770621
Ni 0.6422696556935478 7.611356364847029 4.752022092666206 0.4010046756531158 2.011527755043 1.8492829180357442
Ni 1.559809265670063 6.176457270132838 9.618781747668772 -1.2705705338530828 -0.8220256465271585 0.328610381051105
Ni 5.219406376207721 1.7435099708911876 4.737901046081837 0.04654673741128758 1.345785071512708 0.9265564166523979
Ni 3.143201541929091 2.835360685374 5.541873894641083 0.6663816026658717 0.8276072543799939 -1.1620093024122118
Ni 8.417919448086227 5.86987813247629 10.547648067963172 -0.8599640734441448 1.2919320302479942 0.603752872091057
Ni 5.694749693889392 6.376569598379879 11.831954517994728 0.8546082084488701 -0.2952904267427366 -1.0841465284964618
Ni 7.2164754589820745 3.620455992648263 8.108002321755443 -0.1576415339072898 -0.962709212423871 0.19002843487842758
Ni 8.985767171189837 7.514640044866713 8.483307102268794 0.06894464549051353 1.611376428529115 1.5158465763509055
Ni 8.478676779458032 0.07342740122284913 2.821998525597727 -0.6939024337939598 0.8745229450949261 -0.5390194364684137
Ni 7.733427668281177 3.130537966219438 0.07980743127085516 0.09053934094215374 -0.4812734879071969 0.809885925840831
Ni 8.545009795080025 5.310751113524383 13.136995833748681 -0.8251940169528111 1.4170303401119404 1.2234746088065445
Ni 4.760270579965438 7.107949079017592 2.4560351036060237 -0.8308537863417498 0.12075520240390172 1.0644012275487345
P 1.6481666979475234 6.654370412335808 7.325428596809299 -0.2603380790372678 0.37201291640645606 0.18567144346131248
P 1.622106636285681 7.907405716107636 11.104033631514199 0.7597136758618142 -0.32099014550168586 -0.5109964688929264
P 6.216489013127088 9.077065521782286 2.2940183364846587 0.157264095963213 -0.0034450211258069702 -0.5974346431825129
P 3.5121337142703095 0.2949045269070766 4.883365174535684 -0.04789965189475622 1.2554994984525731 -0.1640932030699045
P 0.09541192529549694 4.112415034942379 5.423959769430741 0.5977627159458931 0.41841052983438903 -1.1758930023728393
P 6.1062741564013185 5.908369836226729 6.884213847598764 -0.40801915929773597 2.4683760200282974 0.5679343197305509
P 7.035891941627941 7.60987198967227 9.949115526793863 0.15447136370942427 0.3258287045409098 -0.5182518649037591
P 5.169141721852484 3.181850960541848 1.141440905868019 -0.6879580432850668 0.6295934873032447 -0.0744717459563298
Ni 0.7058046241111202 4.5113965272276015 11.701656992888967 1.6728463629091381 -1.8561413357184742 -1.2975205800793654
Ni 5.87622383634838 7.625309491489752 0.5245067512041347 0.49216828044282984 0.6326944948260717 -1.157056843502943
Ni 0.6063051006781339 7.582633705215465 2.3895146856182197 0.48940383032381524 1.0566817474172898 -3.022694034526994
Ni 6.396840596860166 2.259989035603335 2.870758394619553 -0.23784683991328717 0.23755579103542956 -2.5676023472214875
Ni 4.010011702573773 7.971948204175075 11.901720151208346 -2.2486140626411792 0.4597425558139566 3.3272453177463666
Ni 6.883956865146634 8.675523482320607 6.811108370241941 -0.14451759493082209 -0.14358505581422368 -0.7505191538467397
Ni 6.1265451548816054 0.3911319308142061 9.040548037014275 -0.45432164190870145 -0.5240566445109942 -3.7830749116591624
Ni 6.030793678764882 5.041216413822886 0.2071983642375413 0.8336619452145062 -0.09216067859566063 0.4881285631558174
Ni 6.001356663580466 2.208397720935658 10.47865709304388 1.031746674738507 0.6294587614975934 1.3164894078723843
Ni 7.284237185709769 4.54200248786214 5.851052544322424 0.13007339448103405 -2.117824358819411 -1.5427585702504012
Ni 8.367153817109509 4.0441894409725725 3.3802581128068865 -1.5044776723923314 1.2425339394308408 1.5923191547873479
Ni 6.270232671798165 5.548445965727323 9.06312909436028 -0.6199220256517517 1.233910459427888 0.7943204673024062
Ni 6.39586647565173 6.471161406391322 4.59672676188304 -0.37480667710150933 -0.07988134700767534 1.2383803222737833
Ni 0.6071910871105675 2.3331316223395278 0.7136931504304739 -0.6834218459776101 -0.015128113890690076 -0.7215819019870993
Ni 4.334310568878991 3.5599027628629853 12.478120658522014 1.6599702782774184 0.4815311124439578 -1.6564689499923795
Ni 2.6273162272868467 8.447152361684115 3.298489450836382 -0.5268527191988926 -1.0407298520737238 1.1287777940525914
Ni 0.5751805364669147 4.643812070160844 7.396823331777215 1.578960731202571 0.5029895394280499 -0.10177686152918602
Ni 2.977925643564648 7.905067825207394 0.8767758844742122 -0.4940390151029814 0.6057431630482083 -0.25999432254460386
Ni 4.650398984998831 2.5483010812655182 8.647876994690742 0.29473095469484084 -0.7938977779426908 -0.06265212761358242
Ni 2.799550134282967 3.4664335135774524 0.3981298320287051 -1.5294425698677854 0.31901836648729576 1.8541842119921033
Ni 0.020807229012167996 0.08078804662067957 6.508121420508308 0.012973272331216368 -1.4281079380823405 -0.05748189626655261
Ni 3.902450166472883 5.399924952147959 4.019701889261489 -0.7353005371247724 0.6397866257861627 -0.9567905329465908
Ni 2.737447587909036 1.1365860713120766 0.04711128484336111 -0.5809361313068576 -0.24982509532108588 0.13774916585873695
Ni 0.20011696691946215 2.3659734230810447 10.256827428255647 -0.8565802445735763 1.703263027527783 0.05301434741350225
P 5.059965927749045 4.256250989376413 10.472750207582829 -0.5670789137087912 0.14934561244708472 -0.14796698693200322
P 6.7836780447469005 1.8101584162378146 6.569170060508161 -1.6914804330705582 -0.6057526761299051 1.0061842528883702
P 7.775852966244724 1.5681588760280756 12.030483203477198 -0.9273796838846415 1.1776241261313332 -0.1875133817660577
P 4.572979542290367 0.048336822097020546 13.35568790051127 0.3386860201195522 0.18445454033507586 0.9119499795931327
P 7.716459404564725 7.286194705471482 12.703656622574721 -0.5093314224856775 -0.10760246707202759 -0.055973687152142314
P 5.32712562717093 3.9857885551906933 4.345188255706514 1.2123594727299893 -1.7704143285632994 1.432885304866326
P 1.9946291410808448 2.3662424660814696 11.713891027532426 -0.5921587394955544 0.7790144330729551 1.3455194765561471
P 0.8925492261749827 0.28583313912033775 0.9561315090512504 -0.21403173977156043 -2.7035687101481893 -0.21742276773098038
