# total energy = -340890.5567699614 ev
CRYSTAL
PRIMVEC
9.05027367099623 0.00000000000000 0.00000000000000

0.00000000000000 9.05027367099623 0.00000000000000

0.00000000000000 0.00000000000000 13.24599033318490

PRIMCOORD
 96 1
Ni 6.509861975829203 1.8605824476253232 11.642218876019783 0.6497043991205069 0.9727236592370796 -1.481940410521764
Ni 4.7561542120250495 0.23902135232370303 6.239987334944678 -0.6813652205588975 0.0705785815495107 -1.8876458340846585
Ni 2.697687526805529 1.4364232633890002 4.765828049736663 0.7238542429610437 -1.1448466745899961 0.7585978170898161
Ni 3.289783592486989 4.284028576416705 4.832826321974763 0.02930234850854308 -0.6754167162849465 -0.6169418599775053
Ni 4.613060332281083 4.452128362791029 2.4153533739202757 0.9641112349777201 0.7067836606320022 0.16133235249531572
Ni 7.218398864784705 5.98690095204036 2.6457280946136335 0.22622339674174588 -1.545671630132138 1.13274140668603
Ni 5.2081610888786765 4.681308447337009 11.587089132900411 -0.27893229709968737 0.0717566610180119 -0.2136116215150063
Ni 5.613405200781504 7.838849438418721 12.796805751584936 -0.1004504294082786 0.14571624322461357 -1.108706220113697
Ni 1.8443462563495863 6.842341886028059 0.10009693373956426 0.010128860903885782 -1.33853867436294 0.7405142201152279
Ni 3.0694275249386926 1.8127789011824902 0.36345809253872263 -0.9171914304977301 -0.7213949827872738 -0.11372297814746865
Ni 0.5812330219867734 0.07250264878988646 4.714433354632619 -0.04090162331036827 -1.2216992620736766 -0.3867782476410887
Ni 8.593569874799018 2.4876125703437646 1.43179857345483 -0.11994581912872891 -0.5034379398193781 1.0053393883895718
Ni 6.853718080249688 0.8429397907272894 4.778862254126471 -1.0062840116910283 -0.17009827161340382 -0.23540043525532361
Ni 0.8613779136292173 7.401983669705733 2.3575474648253 -0.3667436975877168 0.41462869419445364 0.3357081684381508
Ni 7.805001414242992 3.8990389773762506 3.820647315396218 -0.3955387674425382 -1.0053051927175267 -0.8841936354154708
Ni 7.730001794899607 3.886875409330214 12.847789564256473 -0.26190053842838124 -0.2309735098322216 -1.0553730559081953
Ni 8.089189063211451 8.85696904474832 6.714630756736361 -0.48114107609439066 -0.4634631991986534 0.12000624005301912
Ni 7.171210736963249 0.5402045105433922 0.6025364615876415 -2.0458941483380118 -0.03419310094194111 -0.42009511662566357
Ni 1.9942187912025429 6.386488642790827 9.09104080230686 -1.723391937067174 0.5405037343234239 0.47960664172773526
Ni 9.225758653608413 4.783648943962445 1.4451775932780861 -0.7303110543299809 0.18589127278160245 -0.7612180283214827
Ni 6.393249197352129 1.930133802114754 6.8788552158507805 0.4877711798163986 1.125945466810119 0.33052405313405014
Ni 3.3319126172297735 4.343570328034917 0.33734262233511814 0.37735618299624046 0.5058727745131159 -0.3608813252696688
Ni 5.77772197268913 5.521418217433349 4.731891332877265 1.6973093810475088 0.0534393507660628 0.21318404705928445
Ni 5.01911896882985 2.8961509819257274 9.64371659020698 2.1496715852369945 -0.062494004769163336 -1.8359856867062057
P 0.06286048703672584 5.656629308659386 12.578538487239783 1.195883329451837 -1.350057987856449 -0.5007580789943699
P 4.037888278687486 6.209329532298881 12.704428701434114 -0.5488328230144096 0.4313470353903991 -0.7852077063678605
P 2.524691542281721 8.570545978140448 1.275999919288968 -1.3128847212402615 0.9604044755500943 0.18536985306049367
P 6.425848283737416 7.791027791428199 5.73665273501345 -0.2157078419224027 -0.2751779722635777 0.9838287680113056
P 4.838556955372644 1.0083905619475402 12.559941079518206 -0.3029975655790072 -0.12263879257985974 -0.624107781598325
P 3.9714502184003155 6.1966138975483736 8.296851216666465 1.3746076521713553 0.20011615813173278 -1.4139373030089133
P 4.785006485039012 1.1629601889254173 3.9658625793291673 -0.5643283475468475 -1.5627162443192506 0.6369591836396966
P 9.1847609130961 5.576733491166517 3.5108501065320215 0.8571330317532528 -0.16025017517473047 0.3778634616499621
Ni 1.47288681670558 1.1505884645809732 2.547032143265086 -0.04875531502683216 -1.1774906858772625 -0.7698047415492291
Ni 1.571263293387442 6.603052645598581 4.765390921510008 1.4670398392608477 -1.165961087971108 -0.5914905097839361
Ni 6.033120700560532 5.801352237695232 9.34492722941897 -0.7412670391208525 -0.5843502991947291 0.047508072883292375
Ni 8.753252906498629 2.2908143656108213 10.089324923453056 -0.8669348483350231 -0.054887653176815154 0.17174223497473
Ni 2.528691763320671 5.041047782353322 6.9373091245529706 -0.20630146100683827 0.6911017311203711 0.4695500288226816
Ni 0.4970528048562608 -0.07918627602351619 8.786754305186141 -0.3224983546160962 -0.17226108359267753 1.8258948781291071
Ni 1.497123450059216 1.1186862492816574 11.754028674167964 -0.13922292219078605 -0.6661054661863497 -2.0904716778380705
Ni 4.0372638097922655 6.973769962787397 1.6680541620918743 0.8948665417482846 -1.4455950391235104 -0.5250323781607023
Ni 5.920381439288596 7.862986518760075 7.989624285573901 -1.112045311789259 0.7135742011912742 0.5933267916617265
Ni 5.368151829888975 3.1406712806369095 4.648388981257653 0.4814447233777386 -0.7927690636548862 0.0839208071843716
Ni 0.8758701171352584 7.359293527984634 6.9706231825719165 0.04317010762957082 -0.5978871573388993 0.19610420875886228
Ni 5.314972420782939 4.657144216174123 7.120382589001825 -1.1153700052871178 0.06025123148157365 -0.017530552684595614
Ni 8.183927329808114 7.021464905944105 9.458008591042201 0.6885565961010142 0.5767676017514648 -1.4005919920502587
Ni 4.244207371504084 0.6371121277804093 10.353675277183338 0.8016712512405226 -1.1551465138541073 0.23062126869912541
Ni 8.253985499632797 7.086491123511647 4.822269177535998 -0.633036965767155 -0.012849859379474644 -0.2020653114383036
Ni 7.383014295729176 6.234444042215364 7.137866813040619 0.022382738570574354 0.7103639217840928 -1.5362665347681541
Ni 2.1498110991247668 5.3039491872412174 2.4795306758012714 1.5212687758077414 0.05281508691850259 1.113940986150075
Ni 2.2937647548838926 5.025942875308059 11.441648517148753 0.1660323290741463 1.0859810106020393 0.0935480458614905
Ni 1.168299850493246 3.0650743432198357 3.828885779676209 -0.354673396686744 1.6304501573311145 -0.25241239643228786
Ni 3.501713855086728 2.4573846557055474 2.7754456696164973 0.747426630964345 0.11422948547024199 0.007272108181381025
Ni 1.0526373507697686 3.3408361872397383 8.057946612875346 -1.3912794564000814 0.20644081479817994 -0.7003456183161423
Ni 3.841334431348325 2.5720335247585218 6.762780023640027 -0.22978257484791395 0.7474888516608481 -0.027964346423409902
Ni 4.324021736532358 6.968955217102508 6.009546547252261 -0.9507414985390336 -0.6127928708061382 0.25925255928257285
Ni 0.6283098314399512 7.3153544484730935 11.270735000636398 1.1889200107601268 -0.27504247512697794 -0.23338777570066901
P 0.1527776727568091 5.562796069447099 8.109818257410957 1.1220638723675256 -0.3229423841320503 -0.42089113016439766
P 8.308060885849367 1.5947759048335763 7.866780393555386 1.122282930356867 0.8191853488648859 1.0830376117029992
P 1.6472855936751738 3.1100361036757227 10.178842087069244 0.7063985093784414 1.5696098861152905 2.5141897359283023
P 3.9403534774730957 6.012404623732126 3.9069317211954093 -1.3861678462051288 2.039001277872921 -1.8361039574516251
P 6.94898126272929 3.9723280949631614 10.484466214664074 0.10951768181686945 -0.02449978491357716 -0.5578787352667618
P 6.448383465608422 7.923315644202695 10.368365681686559 -1.4042236752655752 0.041557511726812296 -0.22033505628176892
P 2.4271838918888617 8.313979764943198 5.626724488797391 0.970635152139167 1.4863665646139177 1.4100102000403651
P 6.65669361867065 3.943150012090823 1.8024081923849056 0.77865216463753 -0.6068726486669612 -0.14505418416058244
Ni 5.357110495799567 2.9499096085577663 0.2694447528769457 -0.07251976443628157 0.29723803738741067 0.25452147235549066
Ni 1.3825922345662112 0.8592167082353233 6.9196257944896145 1.1321503100692503 1.207322167416398 -0.6222488740127153
Ni 6.905395143897658 0.81996567057486 9.371670788627332 -1.0098228780822223 -0.4861675827747047 -0.3032212515540391
Ni 2.618063217527974 1.7309101239916784 9.039726654640027 0.5047420033427823 -1.1234892919601425 -0.8792967123344856
Ni 5.991987205940564 1.7829944499626182 2.3672041070166103 1.867489927962074 1.6028192829877235 0.7563591575672844
Ni 4.033770404088568 6.986974312325469 10.353371187982189 0.7238300745913275 0.48736803084070907 0.843274785713922
Ni 8.151273941779765 7.065838398600146 0.5970999620896843 1.270760795487018 1.0902356721133353 -0.5593918294771786
Ni 7.444130794996205 4.188656790650977 8.090107666006594 1.0080128214566768 -2.3656537638667063 1.2658780134734198
Ni 3.1046330901909873 8.58279099865108 12.338242856358878 1.0705973290571174 -0.5929506392692304 -0.31211161206513344
Ni 0.12139856328566351 4.824456628724039 10.322733295938846 -0.8062575850596244 -0.2524301370441007 -0.16740426972100847
Ni 8.787435790806578 2.150498919936894 5.7254738367616165 -0.32478869331216964 1.6292198844684393 0.7502533017798627
Ni 3.7102231141735196 2.889127969422956 11.411341865128096 -1.8748461112168293 -0.7640508697845874 1.0630706816627693
Ni 1.1471493605203378 3.2307667567517155 12.602566964295013 -0.43949100465377217 1.1872315673141103 0.5695484582952063
Ni 3.054657478025648 8.500741215983393 8.073391810217137 0.8535990504580654 -0.5135927688651929 -0.3747503699422772
Ni 5.779251468968728 7.805553480947462 3.6598538150959756 -1.972723380581293 0.4576167677202054 0.6011845971432485
Ni 3.053833903105864 8.259632870511314 3.3997824308390303 0.5124077474181562 0.25126157065729626 1.2563718737551974
Ni 3.2223862031723773 4.372313997762755 9.284883187602428 0.8266389769294538 -0.7807005625261264 -0.2602293213735454
Ni 7.252889458403342 6.219149079419379 11.494022451882692 -0.09765744004417375 -0.6817213183467355 0.6123475557386034
Ni 0.33454156258046897 0.20368817821021104 0.6320810805506534 1.8635700240823776 -0.6714034813604954 -0.4462555770711153
Ni 4.6470622111121545 0.26245251130524316 1.3090669048319779 -0.15319583943111037 -0.9166797809686341 0.8945107010707627
Ni 6.1973650702774075 5.56689584349833 0.388653149892415 -1.3023722517447118 0.19781116414763997 0.8353982111793226
Ni 8.055178134106534 8.848751396098171 11.608349131186829 -0.7148738938393043 0.009139757517739098 -0.3525396381731929
Ni 9.185756443218915 4.730342831022595 5.7991213451927415 0.02921493100105936 0.019877712760533506 0.4502400156401601
Ni 7.81127325401673 8.696824449082676 2.8158460920551205 1.1279265017958897 0.5664371663597342 -0.3762346677972876
P 8.539268231736353 1.5793270873822478 3.6533367129010714 -0.07521556610088982 0.4837093510421992 -1.948556296416786
P 1.9557641776403318 3.232486308782033 1.538124810681066 -2.1544173274520966 0.7452733320667682 0.25871828404565766
P 4.732433444280508 1.175132807245298 8.118070297101715 -0.024970811012724737 -0.19696809942105434 2.361770883872533
P 8.543177950036865 1.7340415187416254 12.410195248499063 0.13307798563531273 0.07178828558689572 1.1607798008804848
P 6.3851311017142605 7.535927722593641 1.6191238565554908 -1.9748900492153083 1.9306819872395269 -1.6555528659360135
P 1.8642749593535846 3.1169233620708376 5.947052596306207 -0.8321437087977669 -0.4225957715603303 0.872141075126311
P 7.031818419221387 3.969721616096154 5.860714793891338 -0.29828010549867984 -0.059576574012052234 0.9640019630933655
P 2.181043594159643 8.38629145295498 10.112995914691455 0.6261060429752766 0.9178845999100127 1.140059537613998
