# total energy = -340875.9291535551 ev
CRYSTAL
PRIMVEC
9.23215607905797 0.00000000000000 0.00000000000000
0.00000000000000 9.23215607905797 0.00000000000000
0.00000000000000 0.00000000000000 13.51219362233870
PRIMCOORD
 96 1
Ni 4.553493354405927 3.917683983303355 10.375513601877586 -0.09342926089543908 -0.24611319368713744 1.9922002583589817
Ni 1.0572573054537668 4.99082982972138 2.7301249472769853 -0.842443033841246 -0.4211826932628876 1.0633416759359686
Ni 6.13024409394385 5.373124189273376 12.055714345436952 0.5224049678401842 -0.9535360305650351 0.7889190937811768
Ni 8.432799264037914 8.124029797129356 2.726557642088961 -0.8119322668468985 -0.1611721727683676 -0.17571253247638768
Ni 8.807172433498492 3.0150652956016697 3.150935862844604 -0.13375367154609868 0.2535133428059505 -2.07074386039184
Ni 6.056691504831562 5.264923317628338 6.634392761068859 1.2990786685951048 -0.6745134877443867 1.0123978378982499
Ni 6.225483018166565 2.243349351846656 10.596572968012794 -0.2429725911756267 -0.4050297376521089 0.1692876027866504
Ni 4.812861553040373 7.386574385343177 8.14185339805068 0.9178216078825613 -0.7561269869518203 0.06732947848459372
Ni 6.962236786075183 2.5863331899426303 12.92069722483248 0.027029236203650223 1.2362434784364387 0.1331443200968739
Ni 7.858817643567324 4.58144832363299 4.548866197676533 -0.07559814625128916 1.389759163100813 1.120838998821489
Ni 5.073383771210282 2.452568477548009 1.2427110144496032 0.025444665325349725 -0.00396258419217382 0.15558310871636433
Ni 7.313391082482237 -0.002141860257819872 12.856434031372858 0.12196902020634479 0.3575861994581648 -1.232067235571562
Ni 3.6752752557620774 6.996275746293208 2.889487659399439 0.5861148472943196 -0.11088653713993808 -0.005241965125229682
Ni 2.0924866860146105 6.611904151577377 8.302851125050978 0.8890450499705012 1.1270662106781235 0.181589560082455
Ni 2.077521360678723 1.1145889959755835 5.492368566264985 0.22575699862828863 0.362395190811034 -1.0548670628060544
Ni 5.692159813969417 8.978392003936108 10.571575981659029 0.17280898567634753 -0.1118859249387299 -0.3444373207810326
Ni 5.728903795978568 4.725202229126582 1.040244287854153 0.4205049504695726 0.44325304279936567 -0.2365396910660894
Ni 1.0577466097368033 3.941133660263969 12.130045205323958 -1.198132273387014 -0.6106197744142193 -0.8596079756563066
Ni 8.744006020205372 5.978116622700937 6.288291223795876 -0.055399302705911035 0.5817977079762044 1.3848270159065184
Ni 0.5388643443986287 8.168390308072565 5.454156671406724 0.12770797957265104 0.2946761901975054 0.16481234062411615
Ni 1.9461108481364466 6.545007947145642 12.792709995840204 0.3985819251442361 -0.056234397012696696 -1.862457250634173
Ni 4.136015247256727 5.721453445857618 5.4446706308252155 -0.20249005768054804 0.14693006102705664 -0.6161358191364421
Ni 7.888794455020519 5.493705382494865 2.139048143015855 -0.4565926973310653 0.3101498603530723 1.1380707893187432
Ni 7.498763548502777 8.700365617452292 4.815164976033158 0.22160158169901836 -0.612772301980848 -0.17318899472358562
P 8.064186960098372 3.7244549522853814 1.0722097057708577 0.2884412650313871 -1.2444553248232697 -0.32996046732109624
P 8.881362041394356 6.4843896089868265 4.147689308877473 0.31540802342821805 0.2610492461716794 -0.47118627887452397
P 9.03504051489293 8.860183474879534 0.7833595392600239 0.27340133997912913 0.45649293852840733 -0.07549015991851515
P 5.354484465736574 3.401551054106468 5.74777616985372 0.14942480242445236 -0.1089083303676447 0.30869641573599743
P 1.939426766987043 3.0135881505962767 9.993753784174418 -0.29029914417573227 -1.0329576643274725 -0.4128865146923663
P 7.771306034154072 4.687008798580888 8.045551852639711 0.8432639870806445 -0.4222751549961179 0.11411250027640348
P 8.385761427772431 0.6450387577393936 6.468489989435027 -0.3174417660287952 0.1535048860310969 0.6198047833475971
P 6.187224962526886 1.321029242635541 2.984613951315492 -0.9046691296610032 -0.22366206377247286 0.9867464558787329
Ni 3.5984544833253573 3.6067080310429906 8.314241759473814 -1.1606934118142658 -0.2634570842822237 -0.8232618329271048
Ni 0.13014663034703672 8.11825969945204 7.956303674629493 -0.36967089853684076 1.6294330289205101 -1.2874976486257246
Ni 3.504618846857766 8.910600280344854 9.345587171886104 0.827989063199445 -0.2965446108648119 -0.6741013399076327
Ni 4.13634760488294 1.1737301891290062 6.768974519294588 0.13660193962817122 -0.22873227920652864 0.6628144541399037
Ni 0.020826821360413143 6.7206774169120065 9.71133566094644 0.4916610017891081 -0.8365577787050624 0.8979284685030601
Ni 6.034072721936481 3.1626597781092824 8.396126369632148 0.7829461640271935 0.9878895683442406 -1.4172499123219138
Ni 7.061390144562189 7.647844408172067 7.004721322861543 0.006450383611034052 0.10614979378590104 0.48518233604329986
Ni 4.192229846868214 6.8067765064138515 0.4232205083576663 0.31522804620692807 -0.128411690507895 0.6986432909130548
Ni 5.2378730997170795 8.903233019630456 3.9408853152599375 -0.6766680721935443 -0.2926828139165604 0.66645410777502
Ni 3.0846111288868294 8.123134277969838 5.3630712942960495 -0.30371207514752857 -0.9257891994690701 0.6901095424104308
Ni 1.6335377328390006 2.0551795424721533 7.706544304255129 -0.0870935484853984 0.23108535281973752 0.4955369398047466
Ni 0.7513895052651771 4.082828794906295 5.7721527553052185 0.28707498081147975 -1.0305086885663477 -0.42997278075069173
Ni 1.8535030884545882 6.075395853462351 4.78628956082461 -0.6884905187497691 0.13305098905211923 -0.1848440624640107
Ni 7.602052913004884 7.023519839486425 0.2589582908954495 -1.0666995366646082 -0.2449204589306169 -0.7475772976095963
Ni 6.179765380249651 7.379853375568639 2.0895120852600004 -1.1934608360532735 -0.41355988661030707 0.5286499203086316
Ni 9.173421305429406 1.9985125672027637 13.44507908566886 -0.9397708584601427 -0.9819492916004056 -0.4095278826327786
Ni 3.2097714716250363 4.6378291020575855 12.719960604324596 1.450154890580051 -1.162561832481572 0.946087801817106
Ni 2.1835249791282387 5.133226608241267 10.291021830784734 0.8135785442010698 1.201249478859757 0.8595850928381711
Ni 8.448392376001095 0.18660772853129962 10.146414874050528 -0.5116271604983899 0.12021938450508973 0.4924711563952293
Ni 1.4759448250761336 1.0635721003518221 11.983748763989833 0.3762706632415455 0.31863450078531574 -0.14068330878639643
Ni 9.086906768894794 1.164811926158946 4.413758206542633 -0.24524133260514533 -0.09985059104075061 1.0948091504166308
Ni 8.254073950541644 4.400285720877821 10.291832414106443 0.35298392479946306 -0.36411037372992777 0.6801033231273383
Ni 3.364114660376039 4.403156921482053 3.041662214639399 0.7201004323455663 0.5715562327538544 -0.011122592275722779
Ni 8.521381803580077 2.3756553835484517 8.835191104603911 0.09053265607393442 -0.20106463808793112 -0.07237423999735278
P 5.03618741354323 8.219628775447136 6.144886293809808 1.5742517557626758 0.36704297399569047 0.30662462080863323
P 7.237133471578822 7.903113529416547 9.21378983199554 -0.5211466699530509 -0.6226448238995534 -0.9536468451112866
P 2.422046968874076 5.239387173347606 6.710655911266042 -1.3560532862079353 1.0501236345837979 0.8187562317472674
P 1.5174802961965281 2.7206979924956927 4.074913144108645 0.543642794173038 1.0418235993585347 -0.2335847222028235
P 8.296689583947233 2.1107940519252004 11.106307089689443 1.1670892880382804 0.583880301536846 0.9165645955470084
P 4.730409165270592 1.548075662120731 8.935951781499911 -0.806514695375753 -0.20431554092506102 0.8631488989300297
P 4.9465708724972925 3.2728363311990343 12.490023596706978 0.2784612710005398 0.41384502195089373 -0.11554871850229777
P 5.395456775323662 5.544565331461803 3.1448684897349524 0.24221411574304733 -0.0725668156241331 -0.050100773311133065
Ni 3.5361466605666227 1.6503587215879136 10.8647227937043 0.3960650722596534 0.25624565413544903 -0.2298874758568944
Ni 0.46453256129599546 6.5826474483143125 1.029364191673805 -0.22688854112957055 0.6178363467673167 0.5830418647959508
Ni 4.559060344645002 9.30647514179018 1.7047250435114036 -0.7173002438926097 0.010611456967259143 -0.548215758255701
Ni 4.319984425522143 1.9812207384833818 4.365789768923752 0.4332612216939764 0.04872549023016124 -0.14488963355826015
Ni 6.3891045239826925 0.6496640680375303 7.910930396141961 0.8800862981153166 -0.4859832346780404 0.03191973152673212
Ni 7.979703497946176 3.000330774172874 6.412833012063075 -0.30512746743781644 -0.1279553196967667 0.7554690416528473
Ni 0.9099194768908406 4.411345844105701 8.454376659704193 -0.9034149455389281 -0.20836271441124116 -1.1210557428179855
Ni 1.4982497146575682 7.811410521050492 2.933308089200051 0.059634938053813424 -1.1806814249004183 1.5301632500838938
Ni 6.157534347918486 6.854137468149265 4.816759369423354 0.3667879205620909 -1.370382558346414 -0.8133551153363541
Ni 4.198775445673363 6.509214877233712 11.501971457971502 -0.982320044676263 0.08952015564902002 -1.8518468221081783
Ni 5.151700152964963 1.013155294886502 12.767306794609956 -0.21233404035416337 0.20190667437325224 0.009524137440351339
Ni 3.0107815750860296 2.17769948851322 2.5000531501776244 -0.7599777281564782 -1.1026268466888365 -0.9516195302686127
Ni 7.573673264588771 7.351649138121917 11.3167596314703 -1.4883103186038498 -0.9941790008973781 -0.46098542708212226
Ni 6.417373386523402 3.4491705162178254 3.287719490343997 -1.7532565858370899 -0.28334970944109267 -0.6266925116063659
Ni 1.4698608340851709 3.231559360454583 0.9031753867255932 1.4679590086410075 0.9473167891282007 0.7313729199355921
Ni 6.261156070046806 5.591575471258436 9.63853179970876 0.6634196918240703 0.8185528574872096 -0.7822229127079238
Ni 3.058428733666238 3.5240525358349677 5.865859141584838 1.1335585032706865 -2.211074670934824 -1.0366220005529374
Ni 3.422581906120751 8.67091503890727 12.470808709833701 0.3273780513059007 -0.14881802207838885 -1.6104107221817363
Ni 1.0290346036944766 0.7524595121784587 2.398198462762006 -0.48180159249652516 1.3391598528867066 -0.5341315122484931
Ni 2.0624083208422954 8.496261106332113 0.7591112807808691 -0.2831813021840284 0.6168223036805055 0.18637258329339515
Ni 7.4152956235417875 1.0949245030912889 1.357475949212357 0.5054832523841811 0.41971819290221907 0.8365490369543142
Ni 6.489051847910098 1.4790006688060404 5.365205768828842 -0.5571943076052275 0.5593674039971462 -0.12323066052758777
Ni 1.4372436259348365 0.3760829648043184 9.545960045436408 -0.8873956872925363 0.49999266158325506 0.12177233081450642
Ni 0.27623534816477757 8.118693610797374 12.318702472550239 0.8950382914394586 0.5478370347600435 -0.38411869853105457
P 9.192319529342154 5.862400775840961 11.826493753146949 -0.4475434426446034 -0.12327436928132963 -0.13070511452776198
P 4.160258889657739 5.599293553911615 9.207816626879982 -0.8744578961849456 1.2278760803083497 -0.5940544138563704
P 3.0814352671252343 1.3573670097682091 0.08371626996502077 -0.8053664407039227 0.02801653981758401 0.9241789175591567
P 2.27240294767148 7.6340146380590745 10.75894905594625 -0.6864598614729854 0.4097610816895072 -0.28853768139993535
P 2.363828991349024 5.601084592230654 1.1979073600047765 1.7895952723671245 -0.5390736867451168 0.31268831050420987
P 2.09784133665916 9.055231240685398 7.247859390749232 -0.256781472034261 -0.20357763431777198 1.5461282580535822
P 2.9705847666267724 0.08643144712805881 3.650643862797149 0.16471361026272277 0.5197569886943758 -2.0678138312292385
P 5.613917289465006 7.77653143461065 12.480294750415208 0.8150849535432673 0.21643649255831113 0.6976593297332307
