# total energy = -381172.3812938697 ev
CRYSTAL
PRIMVEC
9.18745568003973 0.00000000000000 0.00000000000000

0.00000000000000 9.18745568003973 0.00000000000000

0.00000000000000 0.00000000000000 13.44677006998479

PRIMCOORD
 96 1
Ni 5.449594429629191 2.6477603993858705 5.366054733107985 0.8955391423352771 0.7399154101889645 -0.5541192682243296
Ni 7.097842343945722 8.731463828904765 3.388102111194389 -0.22437143113467167 0.3520845529136452 -1.3963298743397952
Ni 6.367843869681588 7.9459088104668085 7.102529783806394 -1.0288598401090152 -0.9351163904072669 -0.6711507419197409
Ni 8.292781197647669 9.17068852004383 7.072597972120616 2.6380189492718373 -0.1175976306115265 -0.6360551837681885
Ni 8.924584146175105 6.026722829722956 4.308949763697977 -0.10085486393554888 -1.1488216000773441 -1.4155293300863816
Ni 7.043562856103993 4.429162108098169 4.024416100434467 -0.0683329800484436 0.26800639421580297 0.1298697631106602
Ni 4.429226420287555 0.3281658087796163 10.879606716335926 -0.8852529299179206 0.6340085856518048 1.4127566524372508
Ni 7.929876700398458 8.739052667252306 13.049511929909729 -0.30107000953899116 -0.6503453751386155 -0.12930566307707408
Ni 6.662632570915466 0.6711335273191872 5.350711682211627 0.41527789774267837 0.06612234555037 1.1436230865955401
Ni 6.27576718939218 6.502651406090137 12.706135369594774 -1.4084513401936776 0.1062904331288234 0.8792969694448017
Ni 1.6793658265236975 1.1616710768781644 0.9746181553036066 0.31838613221993556 -0.627142454659591 0.08129828195985998
Ni 1.864906492902123 1.1444721599452399 11.560349403494937 -0.03375369941167735 -0.6682623646283524 0.22672938984388696
Ni 2.2864545194156816 0.26668978694559997 3.208318304511567 0.5011213758710595 -0.7925255801855124 0.18919282635100965
Ni 0.22963585965811156 8.377820286927129 11.172302515178075 0.156294275850776 0.08951269944985228 -0.08190377675434282
Ni 4.030610283017896 1.7296579586234995 12.92814196610059 -0.5882318936373224 -0.8297451266586032 1.7429870855902818
Ni 4.524086899631811 6.248921444051366 8.618733748366846 1.300829075627308 1.9246735762619174 0.5963838333204955
Ni -0.06682220226311296 8.054578035617787 1.7142616204845065 0.5749562595743388 1.1994592197285536 -0.5624373011717216
Ni 7.88946108309721 1.1393731220724979 1.3087163041812941 1.511238645265249 0.9909373540316289 1.6654364435983124
Ni 9.273174587558133 3.109577043910652 3.9791274566688917 -2.567465307422991 1.3094818662062997 0.2774845089095673
Ni 5.0970533823267425 8.084510766049128 4.964170617871958 -0.33390531090145714 -0.8991397152023417 -0.2649161853262534
Ni 6.337828452149608 1.7016086565956048 13.042923605479919 1.1129122877752446 -0.5449589418813002 -0.8946652243707559
Ni 0.28302416430406513 4.322321186616876 12.726090523215667 -1.4301668774938983 1.0995942305100999 -1.2452461961556813
Ni 7.418879605904689 5.33847215382592 10.758196327722032 -0.15881909915515874 -0.8860697693922611 1.9319261440592728
Ni 8.76550335200118 5.114436048372197 8.958789043472796 2.152196408541377 -1.222619717005417 -0.4193692942032326
P 4.486151895349734 8.613441773925945 2.762423520587619 -0.4477432173602353 -1.0574412512911335 0.20503030760389848
Ni 6.989044494415971 7.766514551902553 10.945065500184059 -0.3748089910943545 0.3786458483419414 -0.9917827327510597
P 8.022927250984281 2.3674786905863345 5.867659491714719 -0.3928697052508073 -0.1672949978366538 -0.03790191725209602
Ni 5.796393317165038 4.940453201171987 1.703706152715149 1.2161598203126862 -2.3675273267403356 -0.23659085601899899
P 7.690479169137124 9.07509304424945 9.101392135980484 -0.19007522895596296 -0.9112303278182888 1.0398325370704349
P 3.947592433976279 7.628767029693504 6.8842753441784685 0.17812422724167387 1.5237784296034724 0.038802060468862205
P 2.8644649152495956 4.685960680316212 11.588762528765644 -0.8441116797929205 0.5145353352841203 0.6727905915160091
Ni 1.5560885469264842 0.19645628240834442 7.747853910779442 -0.37744000095929836 -0.10372087262943427 -1.564856173480389
Ni 8.81128444338834 1.8613141977521372 12.867563558681287 1.3669647909141167 0.4520449300593828 -0.8996601064821862
Ni 3.6762409320457614 2.678694562480506 10.890149321667408 0.2063120025297995 0.6019240464124342 -0.3779863603810716
Ni 0.1627419952411114 0.9718490561777607 3.072371523605325 -0.5657781926194966 -0.6137287523568463 0.04105177573498737
Ni 3.368589792934696 8.596325544093661 12.957737516910434 1.253109915174474 1.1919153459430245 -2.5084798300277185
Ni 2.877097666736119 1.9773976995937521 8.527215665379533 0.001656304656500373 -0.5165467092871943 1.272654412965305
Ni 7.030792292783071 1.9767362027886395 3.4854165599364997 -0.4016618496211405 0.07280387133560365 0.4678446160958007
Ni 4.682046824219296 3.7657543122153583 3.4345070308185925 -1.6100291704726015 -1.6130008515064158 0.1049866267157353
Ni 2.5621241254906835 7.8991079115051 1.3557569957348559 -0.7954008448507784 -1.1641608015375757 1.0861370765639293
Ni 6.099055667870881 3.302927047571655 11.541550950537427 -0.4089403855604247 -0.3108792823199291 -2.440632788476758
Ni 2.769080750934626 7.0293957995278324 3.455779665576335 0.25765770399162724 0.5115001480022223 0.8103016732220109
Ni 1.679310701789938 5.930704730969754 10.116408452419646 -0.14232290127234842 0.00011569964225786526 -0.22682452066085448
Ni 0.6996716019864151 1.0432263989405233 5.4599128610433825 -2.701535224657928 -0.3898118922610899 -0.6102464502352006
Ni 4.840576371055629 5.162357816920347 10.962801883271137 0.5371620715447006 0.24852231734926228 0.05662546180352828
Ni 7.239825283198616 4.276696281975368 -0.1642009631946095 -0.5843600693867419 -0.7782868108783112 1.1607816006526976
Ni 0.9138798861564033 3.332336093032281 1.6006495442064368 -0.39712436676210316 0.706681330726183 1.2202676718334726
Ni 6.930814400654819 4.297818242460834 7.034005146015678 -0.18678807356425897 -0.47479379372012426 -0.893145702402436
Ni 1.358365314387237 3.434721098534691 10.478503534828157 -0.8794589489439628 -0.1844033753821663 -0.42988459191225964
Ni 3.2749512451887735 5.191114553031487 1.7694607726344553 0.023318363010966292 -0.7707136265167437 0.054575264142718904
Ni 1.4551367845018177 6.523369118528034 12.304400091139897 0.23967000916495498 0.06300873962205276 1.143131234560786
Ni 4.981355753621443 5.945717033463556 3.7572292721394707 0.4742736595505961 0.8469928579954574 0.9749654040834048
Ni 4.324590488156637 5.5690589151413805 6.37769557834995 0.5672650615776682 -0.5888304464532698 -0.9823809798211856
Ni 1.958067292955465 3.1509022193189287 13.078005904789949 3.5717117198587007 -1.0445129732652398 -0.9197771889470353
Ni 1.7833310743938764 4.993014634811551 3.7227919322144274 0.07346284507584122 -1.213200737684362 0.22479489182533544
Ni -0.107784473174141 4.3014472874333265 6.055524584366665 1.2019678450830205 -1.2137234429570516 -0.8843522724805222
P 8.188944574156261 3.09154206851571 11.184808479776951 1.48598784111826 0.8394299580465349 0.12676309916087847
Ni 5.948895893110347 0.22349404557175465 1.321890196804222 -2.168554795294743 -1.9697324162737686 0.6126157217983256
P 8.001088668959941 3.2568887074269517 2.0480106460483847 -0.40488061366875433 0.8893548679014361 -0.33899172428542906
Ni 7.489007454702239 3.0793962521773945 9.107954735534538 1.8245663891256707 -0.25854370614100636 1.579056633350487
P 4.946994669578101 1.7611341816001018 9.371941573034801 0.49427298549065846 0.653387761509365 -1.6377207228505988
P 1.2407750698228661 8.6356662290866 13.106216906036869 -1.8029521532900044 0.10336528906222844 0.015499381187179759
P 1.3096993619333366 4.826207190455685 7.71856705847865 0.88799912520449 1.3407608788252392 0.10572041955796631
Ni 4.296173687903679 0.9747247297888748 4.155657066568785 0.5601060819353838 1.6245515324584927 0.10035118482625298
Ni 2.308008290315597 8.495318656935234 9.68474044353343 0.04001716382288592 0.7467015798728623 1.5430326498473943
Ni 8.452716425194865 6.227615734453367 -0.025468545742393368 -0.17976690505141943 1.6098322239704468 -0.07846389783485842
Ni 7.385290268133977 6.672178337311463 2.3090253416534567 0.5008133577123375 -1.1818494770665904 0.06906548733909396
Ni 4.511031525186466 0.7015669740821748 6.607514268375031 0.34357163034662763 -0.38447968141489913 1.1168794999531086
Ni 5.682459679940039 4.316027779512681 8.9647599708845 0.74817610753586 -0.05090064350460911 0.7963927764504026
Ni 4.574121782974069 3.0855242850803113 7.346427330833618 -0.41327038039434627 0.2141240423750506 0.2107561543440822
Ni 2.431469319025341 2.1092376878349213 6.145806035826642 2.073698829255106 1.5516795268891148 1.2420721693030738
Ni 1.5758599514348466 6.6337288355143 5.6784769179259245 0.9598930831313147 -0.2692675203164137 0.2831216525906866
Ni 5.735645860562209 2.5852948885808735 1.5793364846439377 -0.38619486433379296 0.13227914388310122 0.22337949953504757
Ni 3.9985736252480737 7.213990157976723 10.772974350097357 -0.2028901213324441 0.8131424851049158 0.26788606658785474
Ni 5.374725853728336 8.673904419404353 9.043786789201938 0.3202440113642807 -0.1679236325595882 -0.6003348475484436
Ni 3.7425927365807947 6.380164247676808 13.184880819857058 0.3772695368197051 -1.2986246117768214 -0.8745450565821132
Ni 3.497976730523573 4.3248661118254335 9.072858655041069 -3.375347315459916 -0.23699014833994672 -0.05449376017250615
Ni 0.11088248321141782 7.592155019021654 8.898521172053673 -0.34796204610483944 -0.18617949344598259 -0.040588462945323645
Ni 2.1288988428757647 2.541277788674013 3.8810871989322826 2.53007581103094 -0.2276102497869435 -1.322924879085083
Ni 8.66086741987026 6.335357026586063 6.78993303733155 -0.3947664080528879 0.729505270599234 2.3097862632751256
Ni 7.851507703903881 7.7143389913993055 5.263765277144092 -0.35112604565511785 1.5585374303512125 -0.9314227436057637
Ni 5.205869606767746 6.907037265493275 1.576230205896597 -1.4669040850139319 3.599501745487775 -0.7403370711074153
Ni 0.712919912999918 2.814080908593528 7.863993456100379 -0.4891328360506157 -0.22260354060097146 -0.48687129370994864
Ni 0.38667520119181575 1.2394153263901346 9.497722434290255 -0.40550744861947585 -0.7846495198715455 1.1429168045571347
Ni 6.7797358803316286 1.430358216676979 7.82725741477757 -2.418778154495512 0.5623036038073349 -0.4425483034228572
Ni 0.9194254343725962 5.914121373563808 1.5377595729514926 0.5445699339729976 -0.48054663704350137 0.4419057847428518
Ni 2.3892437729656604 6.845545624984695 8.11394278014882 -1.262159169860936 -0.6031908289399999 -1.3611121887880817
Ni 4.521863535370183 4.011353376024622 13.07437502232633 -0.4184832920538535 0.5809523292567736 1.5490968537636032
P 5.51368612008009 8.894743290300031 12.676054721127846 1.1327290653908557 -1.0468261947794488 -0.558341019615161
Ni 6.9518996113177804 6.286066327149556 8.745752159895195 -1.0991244899625328 1.67764455562873 -0.4501477130366699
P 3.517849197043827 2.8123996042138675 1.5600942775796656 -0.6864714314372113 0.5575846010651107 -0.554526016744445
Ni 2.579203605500463 8.97898307093998 5.599020126685163 0.6392266395176346 -1.725141572768429 -0.46399078956734924
P 0.5966884931227155 7.976539787525768 3.843638211052852 0.45173382657686717 0.5339412506145579 0.3791626400773599
P 3.1953327547289843 4.064658993569936 5.193545553790275 0.6154254233329789 -0.6730191625870474 -0.35530254563031066
P 6.584134950042117 5.975355765314846 5.671443920643791 -0.5225111544007452 -0.016592100030726264 -0.8300264053444479
Ni 7.430382300349145 0.9845369323980433 10.994455424141332 -0.04919445944677979 0.37968945911510743 -0.568800267275272
