# total energy = -340856.259230575 ev
CRYSTAL
PRIMVEC
9.41194464306773 0.00000000000000 0.00000000000000
0.00000000000000 9.41194464306773 0.00000000000000
0.00000000000000 0.00000000000000 13.77533235907463
PRIMCOORD
 96 1
Ni 4.911538670419773 0.6792468772864847 3.983358089510286 0.24504335766172636 0.427959864085721 -0.02271029711332218
Ni 4.941412183117918 4.89922784666137 0.0652341891968616 0.8046439607156013 0.3344712107072562 0.9479148277235159
Ni 1.8699463628991584 8.565123862682494 9.721472573470209 -1.5127190864655173 0.6229204461584432 0.49773137635290415
Ni 1.063380343938799 1.7184328760010084 2.5071660832067444 -1.5568001359451318 -0.1858110543629703 -0.03596767634386063
Ni 5.152503280406507 3.3074797472567767 4.75016146540327 -2.202630139711897 -1.400050774834808 -0.8831456537669307
Ni 7.868931720033142 9.312375805705958 12.036913576945928 -0.0058978535416737135 -0.1376846311693887 0.06380243916794173
Ni 6.973949891908835 6.562102012688483 0.894226048959322 -0.9913163346376024 0.20102632865082798 0.3901466498926894
Ni 9.398683339241554 3.402229795250545 10.290228866330544 -0.26064712563725434 0.27316325582639406 -0.011356562663399796
Ni 8.912095206607223 6.33168819278827 2.435258825168363 0.648055036442542 -0.13735090197905378 -2.495985811325766
Ni 3.0265331958895403 3.4207619145015364 13.005029980706547 -0.686562962709753 1.4573215835318192 1.2831586549307386
Ni 2.7217273645318194 7.265908418656296 12.433684461840144 -1.0925049277634862 -1.5217701409241922 1.9422300970884423
Ni 7.828582712806632 0.6046054492925862 0.6021404609574746 1.6891499851651683 0.903458911402986 -2.0719700194894575
Ni 0.7653351125089538 2.7638928770988285 4.889430012156401 1.1259873757916479 -2.7225750760473626 -0.8081653436052986
Ni 6.563805574691747 3.0115493798166213 10.780010471825141 0.13155872077730893 0.9110225826828569 0.5229377004152026
Ni 1.4157635561059463 4.778340828042918 3.644705022372771 -0.18976052592902157 0.42408264051850186 -0.24187601567733827
Ni 8.15539367103526 2.3349717300667443 12.576506958938209 -0.8643804573442855 0.6578195720284735 -0.287779205967356
Ni 9.56234764683703 9.071062953762755 6.124815529145336 -1.9868204821043072 1.12316404741024 -1.3078677276416442
Ni 6.047579227978508 5.452527843821361 4.711893439165278 0.37673963245816405 0.07103289547810993 1.2536069094155506
Ni 0.1783422354633865 7.4890844530288225 11.69467832362917 0.06329336074200713 -0.4116045626561492 0.44642809809323764
Ni 7.356291324277053 7.951898013175594 3.4550185698788005 -0.2667900053101986 -0.14139319036922746 -0.3484978640036514
Ni 7.93081525689209 3.4013168366079114 3.87075828826131 0.25928444096177283 0.9846949726663429 1.1896903132672478
Ni -0.03032622724155356 4.525150101800706 5.908198679082619 -2.031067881958457 -0.6622747795863496 0.3078376672801279
Ni 3.524773316148415 1.5739030521217694 11.42009518812054 2.4570168862617363 4.043607623205739 -1.8659171841583155
Ni 1.816524164387921 3.640926126547848 1.366981446366034 0.026196198779393595 0.9181324542547608 -0.6792985678378559
P 5.253596979174866 7.008435257543996 11.2573805457523 -3.5122043085216865 -1.7717438460080002 -1.9621471477273436
P 3.0834378139654635 5.963718800082961 4.91264175034675 0.2700717613852639 1.8705058319702625 -0.31156962351873435
P 3.4871067131811895 6.3057865207828225 0.6520350625691328 -2.2086318658212867 0.4324554379632294 -0.1577837159121089
P 3.4715770043116443 4.637142832612054 8.931939350959071 0.4935620754665629 1.0938372734216644 -0.041240237596709625
P 3.119287911592191 2.1108168534381977 5.860343645902495 0.3470601031158604 0.8251027427905854 -1.8348436026819628
P 4.997479138109362 0.595623630399127 13.120507954666014 0.7205560318257461 -1.1803435819450252 -0.8298837091189966
P 8.057603564880969 1.5115677419138895 10.441577644195231 -0.11815221756341587 -0.26621690641554796 1.3095525715432348
P 2.975162801338037 1.0142688161319569 1.9238495117881134 -0.37003625229605946 -1.0324516712253315 2.182403528252377
Ni 1.7444945510675371 1.069338104977843 7.008007955251465 -0.5034078579123912 0.7984404030080507 0.9798451007732092
Ni 4.041347904818124 4.828911207289021 3.25015159166623 -0.12230120673478292 1.8196954341866143 -0.775918824866767
Ni 4.693802740123973 4.0097990659510225 11.702090230135088 0.5218349542693271 1.1354755177877414 -1.7744303917012278
Ni 2.4540987150133144 4.4433038300858145 6.194974047845559 -0.11235515126566456 -1.0521465785510977 0.9974540721042241
Ni 4.646583013215785 6.550327669781936 6.948112221127819 -1.7386408928064445 -0.05029026361411984 -0.8243154710025997
Ni 7.295857226912596 4.3462007958996915 1.7136516080581423 -2.9186463746857605 -0.8767304942692062 1.1118110842912658
Ni 3.670714931743068 8.780130328995162 11.222157283647217 6.244479899686265 -2.278887002593107 -1.8272295377801309
Ni 5.891566831480575 7.887106185382895 12.916178398499776 0.2765658537500398 1.7980164065512838 1.7877517914004821
Ni 5.398512692789651 3.700371969711515 8.297089558344426 -0.8182127005389715 0.9273858545322287 -0.48864021268491337
Ni 2.400780047894541 0.5298953141018709 4.303868691910264 -0.4136421619114683 0.2219736203264564 -0.7019957523250555
Ni 4.50505559971799 7.7311596724983485 3.651331031490444 0.08772655408370697 -1.2117136116158744 -0.11871528915573747
Ni 5.132069948312092 1.6506104019925558 6.6228909403707465 0.28039885434288486 -0.7385051601049991 0.3277632025594613
Ni 6.672814719011189 1.9243474036664157 8.79359411598782 1.8010495369506532 -1.0035830678200974 -2.20584299022224
Ni 8.246510708348032 8.90353974881182 9.596075350918252 1.5701745003695087 0.23459902239995079 -1.383607027456488
Ni 8.72176685947998 1.9630399086135082 6.735049321410036 0.25242036685208785 0.14921294352396236 -0.34392695680351737
Ni 6.41501213983196 7.670160858447725 5.520119725182964 -0.3912985041089454 0.6925297218161492 1.1808367195313598
Ni 2.037780162027486 7.659120647233194 2.4905116469372532 1.0218957500863561 -0.9096377865201882 0.25743941733323406
Ni 4.986231864109905 1.2848810521423686 1.3847239034508707 0.09255380026902124 0.5771836062429608 1.5066119451265148
Ni 6.900856728829507 7.545405530529042 8.113670519872414 -1.2961717793609548 -0.27727830643603213 -0.6343333159810753
Ni 2.3443460270570884 8.472199731973994 6.079054653676407 2.203831616219166 -1.3497291437621206 -0.44921877346449735
Ni 8.588512545434506 6.215902448234845 8.849949076489208 -1.225562858794141 -0.05531394208095636 -0.8571646563221367
Ni 8.589237265181751 5.027399710531355 13.89627997272978 0.8836089665565945 -0.6246243162234275 -1.4607928299098711
Ni 7.380875324014782 0.12073925108557201 7.194855765202978 -0.7967923258816664 0.43259273487204203 -0.5533651636671244
Ni 2.5383167968100997 3.928658690093838 10.77586451015421 -0.22431923774049756 0.25939782661118554 0.346683436502732
P 0.3908997137470516 8.449601652582613 8.007077421775282 0.3712747526888509 -0.6133418013310727 2.2204203738157826
P 8.556963706567405 7.741908113425027 0.12951683077753465 1.024470195681752 0.6611247251423065 -0.515314636652306
P 6.906786254034243 4.219600726806201 12.680702834702569 0.2688173201528725 1.1373634788390734 -0.4315303550457988
P 4.971784528888842 8.733108252927131 6.9177106983281105 2.212525801559054 0.5808191461130191 -4.33407157509411
P 8.981677714287558 6.003296027838379 4.39335275680554 -0.43776502310160087 -1.123765942660297 2.4045473556081105
P 8.92208128000758 0.7410758248657695 4.084785912317958 0.7566792599108646 -0.1622371236977722 -0.3060389235084923
P 5.154432729084239 3.466249843572151 1.857437888300597 0.3343665668085919 -0.5372404901911199 0.021232941236847304
P 2.0372530931203983 9.65411410833889 11.634590585832226 -6.0344122867687755 -0.03211102160193179 1.3479491690435625
Ni 2.4299288408454394 7.158216946604574 8.055070810543517 -0.12604216183445388 -1.3895974407119682 -0.42690108380390346
Ni 7.109830138544976 7.413431240972211 10.679946439814557 1.5240231986244268 -2.0075500013421745 0.14938006522944597
Ni 5.528369294773361 5.9658741354351585 9.185997858509026 -0.277925710212044 -0.5387772385506205 0.9430510718733114
Ni 0.7398409777120214 4.698122822773137 12.133657074841857 1.0338922603266 0.5624177607876959 1.007369274335407
Ni 2.160869575721982 2.731760497656023 8.870267582857437 0.44636613450705054 0.4143060207477123 -1.1113164040430343
Ni 3.014834148541149 2.844346180987845 3.540894095149481 -0.029621936631490924 -1.3026417033560147 0.2923771097506836
Ni 6.384376259607493 8.879463994091639 1.513303304529371 -1.9740984065519487 -2.5892618344727927 1.19714496977308
Ni 1.0431634865740813 6.275847124471292 0.2351932054541242 1.395941637762441 0.9630596537847542 0.49990652962735194
Ni 7.155543954290057 1.500725181539516 2.6421776073406673 -0.04466983210354888 -0.04065222630372354 0.7551839063122607
Ni 2.961054296128674 1.2621512055242152 13.601570334526217 -0.49210194598126855 -0.937347850840947 0.6617057944567573
Ni 1.0620909075053884 5.812497083472662 9.841248982605869 1.769818089740197 -0.46540669607826946 0.6753079586212241
Ni 4.301738768808943 8.637435834345961 8.687661736413503 -1.6907846925551138 -0.254652084396084 3.5651790609465053
Ni 8.218472524879925 3.7320431638606193 8.147998706029925 -0.2849723326461802 0.8228208887349442 0.042160692528449964
Ni 1.0371586658111904 2.2384804722906333 12.280474942494545 2.6333089453906777 0.9149990508321016 -3.54324266588473
Ni 5.706744472043441 2.6872043511175807 13.425204607464408 -0.2790667657950226 -1.2582690907779102 0.20259984378553497
Ni 3.946917862946516 8.353195102309426 0.9158979929853924 0.2080233287939514 0.8774946261287403 0.027684867509778124
Ni 0.890710687587943 6.550280610058088 6.318855006095164 0.22673324649862886 1.0091608190181909 -0.018346363717671628
Ni 5.98327682131382 9.51481732575145 10.05869314261382 -0.5625262613411022 -0.26150253165901416 1.0810252092586607
Ni 1.530504574789966 8.785664552519583 0.44819116275299825 0.4093545902797079 0.3602076962414119 -2.1789235401235763
Ni 9.521029209299266 8.94290050183754 2.0676772045875538 -2.440802995506035 -0.13666904542068076 1.2299759002601718
Ni 0.2766575281358114 1.3191122952687553 9.154769025764084 0.9958900700512138 -0.4606606967528519 -1.671996356204017
Ni 3.2827451564027372 6.521988304081207 10.193084419587437 1.3199328863362947 -0.43724206071859534 0.351286225382066
Ni 6.877825699978732 3.587579223594766 6.076808963654424 1.4756070121045683 0.04939320572114719 1.7566203601030006
Ni 0.2876196202087568 7.912480788481257 4.253106308990865 1.063845869265897 0.753353023751109 -0.9135268371619493
P 8.554347185921506 5.473958842061335 10.983389421569667 -0.5631255854879978 0.8504049690007999 -0.23565728846113607
P 4.588671317049532 1.717792863756688 9.242628588992158 -0.5750555041563644 -0.3989585917573645 0.33774782457599895
P 0.2811752616251338 1.4881225874932602 0.08569858070901513 -0.5944755605541892 -1.7684965427152963 4.259213649442955
P 6.727460470342452 1.7149975161601694 4.822550615013846 -0.1730208445768375 0.044841324684406644 0.6708172698397221
P 6.4896112140743965 5.515785524616645 7.057419724096452 1.1037943846343765 -0.16547774212225697 0.8545009934470444
P 5.914390797546421 5.993629960560183 2.7520639449126194 0.38999855435059927 1.4929473031552287 -1.1252381563304492
P 9.216966921578331 3.585056822396561 2.1409209587831928 0.9750962732343142 0.746098913291857 -0.04636007532177822
P 0.7704862698812583 4.6642680574375275 7.946824033750398 0.16422150111765266 0.01847543309636818 0.06794114392666363
