# total energy = -340864.1641348668 ev
CRYSTAL
PRIMVEC
9.37224539335679 0.00000000000000 0.00000000000000
0.00000000000000 9.37224539335679 0.00000000000000
0.00000000000000 0.00000000000000 13.71722849426203
PRIMCOORD
 96 1
Ni 0.9807773608235227 4.0103744198976035 12.257894108570332 -2.6128982429448095 0.8832973488534465 2.2954166248170145
Ni 0.35115741492697916 7.264183704864268 4.634187322565328 0.731510731065037 0.07092156671122625 -0.1263812903414275
Ni 2.6918681973076124 6.983428722678162 9.346645077856348 -0.34038731908137504 -0.6206203372703569 -0.041960917812818056
Ni 0.8080262597869776 0.2909566712670774 4.225949184460813 -0.7144949132333307 0.47073170783560864 0.07169855408656683
Ni 5.756761132430327 8.97773006963427 8.897186867407305 3.0667519440781574 1.234754552595738 -2.6332924903304455
Ni 7.16888671398203 0.34329972441206286 0.9578069246558125 1.999850061594756 -0.40685496378630576 1.5844744619319486
Ni 5.081556459522274 7.688802653419606 4.287978453191636 -0.46026757507949123 -0.16405129408837554 -0.6220285304717932
Ni 8.292234671314267 2.793322753395361 11.324326622104795 -0.2992951770267555 0.028266708155177123 0.9311946867553575
Ni 6.901065430401106 4.590835064400017 8.789368556715992 -0.7644571040840705 -1.5303987631334675 1.5273028978169632
Ni 4.250135200852504 5.593374778963564 8.133891523078987 0.043820853839692274 0.34976901740659117 -0.36592480123084725
Ni 7.075136143585194 6.598416883039851 9.968144910367727 -0.5543653227968647 0.37750633542085954 1.638221059525785
Ni 7.80456862818135 3.0606098189904194 6.510525840445884 0.038747553081842946 0.18534028537413888 -0.07024716635202095
Ni 9.163478600544485 5.491657800005565 8.305520766345213 0.970979165742147 -1.1478471519792166 -0.025918005417342457
Ni 7.277370454094334 6.966277513658246 3.577274526510505 0.2712614108179909 0.9522296530487859 0.5887787672797279
Ni 3.552174716195623 0.8121238054610251 8.630468697105966 0.5967011074505981 -0.49090869700411577 -1.2629502983036636
Ni 1.3580477257894565 3.25835482396921 7.34556197415335 -0.5758047236175632 1.1727727115763027 0.3384433079811268
Ni 5.530168356214761 4.373380227416374 6.689275178516717 -0.4166652650085082 -0.2879879795440524 -0.7450463036576266
Ni 3.0042076463773877 1.9569529491723032 1.2314061975049213 0.49741255956090463 -0.982790042334146 0.3151390860375476
Ni 1.3330988086249682 1.8202118892812869 12.29901764678759 2.192808782746101 -1.0644305381247734 0.3422590821827912
Ni 3.8774384916252136 7.428469793886174 11.739505845127427 -1.0061459434512672 -1.9900616147494241 1.16960768358476
Ni 6.685709976379462 2.4595396069280095 3.657328497529361 0.8121248424736788 2.3521030217654655 0.9107222778336187
Ni 6.041771114012631 3.333445253842193 1.6171650050989081 0.35274918308083764 -1.2535475169325248 -1.2311084712027185
Ni 1.8885355579999645 8.661932262024413 10.773676278438256 0.06425418199337966 0.5991765655742842 1.086754141322638
Ni 4.409182204714775 2.134875655201848 11.047471431215515 1.6507083933595184 1.8570574197748402 -0.7374144981439815
P 5.214698577192718 0.5613871879579166 6.861426455849833 0.2975807654388101 0.2652409156555238 -1.0631807248780722
P 4.9611699677950565 7.2213806602774095 9.578328857754766 -0.7657948490588876 -2.264903800940138 0.8569401990161564
P 8.539258942427873 9.252149413952909 2.601979929226135 -1.8261895265513903 -0.3832110991151207 2.464053224283228
P 4.087376787825265 6.373679811406768 5.837723274025156 -1.6243013641208996 -1.695542261844757 -1.3574213702000557
P 9.338739588890066 4.978817905819374 0.9334653289910457 -1.6592146310583167 0.8172400522130571 -0.9366469681191805
P 7.9618536499148 8.015781549751189 5.4428724512015405 -1.3168717309124676 0.9946209735308033 0.9902727238644363
P 2.2632660444716928 8.538012433794187 7.839684557118955 -0.13414370789566574 -0.7469355502605395 -0.35405504637645474
P 3.0691479345189125 2.4611047719041443 4.633639046211413 -3.103514348409171 1.0526780255745354 2.3274338011535596
Ni 6.284840297581754 0.3842958000923428 3.6421164060756865 1.6017463616385188 -1.7218060806372928 0.10491026495184513
Ni 0.049577303537457075 7.22448287349358 9.780562231039367 -0.3263946043467088 1.370408012267711 0.18039039756803127
Ni 2.3896507732331975 7.566607318336737 2.0035386319889095 0.4183187414515312 0.8211656125197084 0.12829110576963068
Ni 4.41991342565893 5.001948607382844 1.4828738501465835 -0.9991661696993245 0.9144717175737218 0.5617652148053616
Ni 1.6096643971324394 6.601050483987718 6.815706768505052 1.1972781529168348 -0.6154295370980368 0.28801677589945884
Ni 0.6779722969646548 0.7949669730938904 1.5917062377865054 0.5773962364743991 0.5060005583402317 -1.0018825401892228
Ni 5.501611124584334 4.837765613059963 3.8887386078630883 0.6735380112049949 0.26223838138377414 0.351070252716518
Ni 6.118810970921758 6.827249625897909 6.137005310850916 2.2654473321484336 -0.95778477853906 -0.3221134604728517
Ni 7.808476854499003 3.88534866671418 13.448137404427458 0.2542911015122395 -0.5712986082170936 1.3004302975269928
Ni 4.520955602950571 9.160966838786377 10.615447471596442 -1.3240769904116552 1.2983461613044542 1.5979889514786156
Ni 0.693951038089274 5.630085864062474 2.885144515695859 -2.5347896715668408 0.601705502643725 0.2317399556846009
Ni 9.270500270379681 5.0991669085651266 5.561677845135502 -0.9014349389944217 -0.34798544314360713 0.6844335750715761
Ni 8.637583168563353 7.5355758139296665 1.4190057468749369 0.5274749261639238 -0.6284858560613628 0.347543213399866
Ni 4.688840634193051 4.719562854503041 10.318181404748922 0.9677938260356299 0.2891552603792762 0.21922691081925472
Ni 0.8596185960781405 0.5584733568736043 8.695968508295847 0.10943232119191475 1.191286454109774 0.9188760172890046
Ni 2.75813934429112 8.069681332851479 4.1724514706867275 -0.7900629775776329 -1.6371831051795738 1.8822506312110165
Ni 6.870080787220866 0.4653666597334176 10.794252105914934 -1.6422525492826814 0.27862325049970077 0.6880148646649312
Ni 4.58658006500382 8.910043713600484 2.198899337746571 -0.17753055952173294 0.0772649924307508 -0.921560248989387
Ni 5.585473976119963 8.560674523089352 13.41970201198679 0.02421979177931313 -0.6845248492338017 -1.6916712089251253
Ni 5.195185562340553 5.692795557806874 12.985990110977285 -0.310137261947582 0.1524335073437891 0.43607349433179093
Ni 1.7460211949634468 3.2971746642754876 2.990424822342039 0.39329393727241946 -1.1416906454595175 0.8545842971894703
Ni 7.184632086197034 5.366510207632381 1.875076076429746 -0.07274216485973278 0.5631988619280945 -1.5957114682983486
Ni 3.5969553045547236 3.1457285514051017 8.132601902116615 0.34706293132933774 0.6134981244032789 0.019767412434914342
Ni 2.4679183942852796 4.196554074094659 10.75082299533762 2.082741913293981 -0.627708611575706 -2.4096296552270244
P 7.984946862496806 4.8821431948683225 3.8565852456856993 -0.8729931387139611 -0.9981917216011971 0.11886749846288559
P 8.938254172152368 4.955106125043207 10.749739563773302 0.03081081473326952 0.7667569558618408 -0.41463923571741496
P 8.911918162673699 1.1843519024200113 13.031106225720494 -2.5477873693780895 1.3806541154757512 1.5753197920158741
P 0.35589133606138296 1.7018685470438732 6.379032300735333 -4.782253422653661 -0.9238454454791379 0.09203649431297052
P 2.6116136602379227 1.3483005906087397 10.438687861216826 -2.1020704384192634 0.3176924485870206 0.26212448151372925
P 6.368609426663721 2.7525722305436724 10.29429998633163 -0.27197540616587995 0.788843503348235 -0.23077759177133159
P 5.621866404876427 7.065445241876674 1.1671875722565836 0.05179795850789789 -1.5627219007462056 0.935086565610596
P 2.8829401635857583 5.1083142200424145 12.699643647205782 1.8184322512034747 -0.011875154171031162 0.4641504550736651
Ni 1.6476219908650382 6.299301672181607 0.4346013270947438 -0.67473177440278 -0.9757521616507583 -1.7581203416872946
Ni 6.801916446673411 4.766602153995365 11.535475812406146 0.3338158365114445 -0.41288857157489534 -0.9895330174849346
Ni 0.3015220034682524 8.644856030967427 6.895019394915451 -0.6381151516210107 -0.2390380320079109 -1.8708344189542747
Ni 7.599007170567254 7.418469608080574 7.9119736228520186 0.39278640150838157 -0.2568002410873384 -1.8310823358673174
Ni 6.495584606883289 1.6846142433249311 12.965140613935919 2.193604282064203 1.913973159125278 -3.742006423753627
Ni 7.6017251217234145 0.614955193572248 6.740481378298797 -0.19740544406878904 -0.516148445407511 0.4000829351697948
Ni 4.44282856557898 7.924861397454906 7.281461439196625 -1.960563348179991 0.9112884347497338 0.3826146031817023
Ni 3.9705892383186203 0.5853229653983325 4.476699860331971 0.6914004933077125 -0.9637222270694178 -0.08929544123272365
Ni 2.2206129558106906 1.1625333152077915 6.432625611412152 3.288305703258376 -1.042791619698759 -0.2544350832892715
Ni 0.8889049883980479 3.1203203942176754 0.9098566429139058 0.9577765510089441 -0.8858085453110744 -2.4808780091500497
Ni 8.153797235011991 2.1976134656823456 8.933400286277276 -0.26363243351782334 -0.8444520938514747 -0.5755967213718152
Ni 1.43750562200303 6.243611790216396 11.43278880605276 -0.2734928712516709 0.7241841154966366 0.7378726687273227
Ni 0.1826350709996065 8.565154456374335 13.018240007281946 0.7787210702022525 -1.4499705424833866 0.044062280426537016
Ni 9.074910881835088 0.5207631904186699 10.950243757787865 1.668690431759236 -0.890720637900711 -0.7895261312375564
Ni 2.1214920888190947 4.654838128004935 5.201367495384015 1.5023302870320256 -0.08649422433850265 -0.7625994820500415
Ni 3.8053940414962044 0.8482688069398252 12.809751597440025 -1.3536999554844105 -1.222961930836184 0.07362328191310545
Ni 8.0624928206557 6.285665055173969 13.136331236119013 0.20951354018623272 -0.9839750637811827 0.3236998311233651
Ni 5.9330999289930055 2.1411738040878494 8.096525318028988 -0.7469651179468942 0.7329415499742926 0.06476223197804976
Ni 0.8044432503835277 2.619308273683469 9.95131423213933 1.5743983086428692 0.8484061934032163 -0.1877046718412574
Ni 4.983719590145831 2.386426720827268 5.504229729939616 1.4727178634822315 0.36123228085118436 1.533190466945992
Ni 4.478864849011534 3.1990847442741592 13.33912694412558 -0.38914571943200077 0.9631406435343347 -0.37625703639479074
Ni 8.593842899439888 3.2395166107834017 2.3992395174672274 -0.9341643109066428 0.4812212945130228 0.4010499270687545
Ni 4.3406242298619455 2.844973197607794 3.169955805676402 0.8089981239192391 0.5010103042144919 -2.0183802591884596
Ni 9.350557990296684 2.720556640373164 4.5799220218957615 -0.3450973229625347 0.5293438610518626 -0.11675353744367635
P 8.062520937391799 9.036718981968336 9.080448941621901 1.2674949802515527 1.4901417153856338 0.20195244000952312
P 7.443868393022634 5.23758560037667 6.915582101248617 1.1491887536087757 0.5390757436276458 -1.022267788713794
P 2.1990849082048194 4.875376433714018 8.562184391817826 -0.2606612667046414 0.2730133605120911 0.2876141411444014
P 2.424534270485724 8.442790420874877 13.241651843420266 0.28149645828243774 -0.3973015157699158 -0.1267651560434075
P 5.222721219226078 1.2047084193551234 0.6348637171788619 -2.6996297801050986 0.5112728624827646 3.381092445473809
P 2.6248753874309174 5.199721729097732 2.8694656864229544 3.5306167495906036 0.7395593124011264 -0.04071136167643311
P 2.4774031065957463 0.30863460047656577 2.81289575061787 0.4039735284734527 0.014422346072917097 -1.2049510960810603
P 7.690527146566964 7.923483677386094 11.954290529406276 -0.8663830895966111 1.2377722563761393 -1.1140278894369264
