# total energy = -381173.78305660817 ev
CRYSTAL
PRIMVEC
9.15149915217886 0.00000000000000 0.00000000000000
0.00000000000000 9.15149915217886 0.00000000000000
0.00000000000000 0.00000000000000 13.39414405692376
PRIMCOORD
 96 1
Ni 3.6098637264686704 1.3908082262503363 0.32885454417929616 -0.8537453462279425 -0.7179293928361765 0.39017518913777965
Ni 5.847643193832529 6.831447649393694 4.318084514074438 0.15966962008091212 -2.441509020434124 -2.599941425673826
Ni 2.467317367629762 8.680691071239284 12.594272919326835 0.002412980316866812 -0.615073953530831 1.3168272508277774
Ni 5.080555388307121 7.714777796406125 9.562360221166225 0.36572065563984113 -1.5307659166648993 1.102139879750089
Ni 4.565133807855963 0.9028978823743861 4.958793777716742 1.934199513474482 -1.4087606439039801 -0.3486117638736964
Ni 9.353655708586922 5.578753847464107 3.3701008562654775 0.4540678740266825 -0.665264458342293 -0.3994077634796412
Ni 3.901952123039392 3.1588412451392394 5.147569985869802 0.9612789077352476 1.0183111180588915 -1.0572954697418888
Ni 6.935902860048148 8.844987934466849 4.378893480101743 1.620639598998596 2.1083493294494398 1.1005038868085628
Ni 0.44071697820011757 6.6706832648162635 9.483094511766932 0.7217343684045635 2.4205190484460184 0.44719274417340404
Ni 5.232424515765564 8.551416995042963 2.7935225528214582 0.2478808271105215 1.4208671973595273 -1.8208465170719224
Ni 2.210910666025022 3.369325724292249 10.662823411423174 0.13762601001731134 2.2868296544789515 0.8514316104931013
Ni 8.171803661140965 6.02729627253917 1.2437235025180322 0.35840329604282145 1.1933399942046934 -0.07440978237014281
Ni 1.4738946865212135 2.1924520923532125 8.710666806520402 0.36006679978817346 -1.0833098915277795 0.17480159062634412
Ni 1.206616003993266 4.72434243758748 8.999190694194162 0.5557989699195975 -2.128074318682193 -0.2603915579830225
Ni 5.711313311835034 2.352273872524002 8.71228753700988 1.1384276584375297 1.4953854802830762 0.8541297261505547
Ni 0.8048825816321045 1.0666987343510765 1.157487096259135 -0.17242306309183852 -0.47093199677187286 -0.1907480866532715
Ni 1.439787049399332 8.146472311649854 5.450492842217447 -1.4753532442225494 -1.05278729745889 0.6208239686407308
Ni 6.889715244122704 1.0073878687253959 10.43975745131627 0.1031482879554159 0.2962054823578382 -0.4031258357611767
Ni 6.838695636675833 3.4184509714267426 10.816883407764625 -1.8097267530096768 0.17686952889896637 -0.42545252428283503
Ni 4.870839635077974 0.1619193037630445 11.867131407345031 -0.4030319904957898 1.2241564653649175 -0.4159217019742644
Ni 4.5196600088598196 6.265198642976632 2.1680029473747267 0.9221287198983473 0.25426050538462014 1.4668338938976286
Ni 1.0146084015102534 7.462809571861786 0.8031575240529591 0.7830307533211999 -0.4942107647941553 -0.18219891153167975
Ni 3.885790575640079 6.04811593297713 5.48103139469282 0.47806243716906693 -2.2451824112518106 0.8298587694183321
Ni 8.93376662717395 2.916701730621437 10.276898288596312 1.2690121882270273 -1.2126134977223246 0.06141311300015875
P 6.8751735120629585 3.236912683906819 1.2701008683555417 0.8762224442845361 -0.3037961502209026 0.5410837751966101
Ni 6.0743532808785075 7.113066731001327 0.2987323849126818 0.1449071170597569 2.46235886729994 0.7272478420236249
P 2.2185613192672795 6.471693068524828 2.716493469800641 0.30725736929662567 0.08014797040550069 -0.41746410676071977
Ni 4.580325296351353 3.5730380941159874 1.8062542548533618 0.16690316171487385 -0.19620139645835888 -0.07238889528537211
P 1.3267477325950725 2.421193812197972 12.917754618388273 -1.141499355384318 0.32958971424523886 0.635612439803815
P 5.5667470806532915 4.732240181305265 4.270817021255947 -2.317211609204919 -0.8886233890520503 1.7822097785363307
P 4.245746489489005 2.32310804491267 10.779794212238047 0.2880064914868137 -0.920930328714872 -0.5030335052921079
Ni 8.161142164696908 6.75120730534093 5.15977259476122 0.7398866138335579 0.5768815016215098 0.10200131883516625
Ni 8.759659356918037 3.433843792902193 2.5949542406382373 -0.2682102826964929 -1.182866348366879 -1.3134801887324152
Ni 6.785562032938338 4.95749517999536 2.661363008960921 -0.2726063548816595 -0.08025621384859082 -0.9190778488871655
Ni 8.09323804142233 2.0741598150692213 12.687174362375607 0.15285619670350448 0.2328082490481152 0.5348809888200079
Ni 5.857435297862691 7.84580896042842 6.122114954648053 0.39079302522743664 0.9791012806286492 3.692933063265743
Ni 0.6022619856502335 7.917154047362197 3.093578244503076 -0.8335269622985387 0.5386098597348208 0.19274351981674548
Ni 1.5966711983610729 5.425411328651593 11.955264919366034 0.6933442472976445 0.5372564310307198 -1.115498817555498
Ni 3.151739681842599 4.611879665226118 3.570396971477572 -0.5827554439037834 0.9965238469804708 -0.6418404229913978
Ni 0.04702040234296355 0.012801116932140406 12.129736419285873 0.8131532837381932 1.0443121701083433 -0.27652265921693026
Ni 7.498948841782449 7.772404786198582 10.71022543127834 0.0874668726644171 0.4029096059853126 -0.14534343326622712
Ni 6.9229168828343175 8.511891670457665 8.508670342776714 0.7567939311118579 1.1567606524187626 -1.454708057168372
Ni 4.6043754359693585 4.398951735815115 11.311113776914622 -0.9132000499501498 -0.6963501240035039 0.45761496794799256
Ni 0.26493498361007406 3.3858258771580263 7.144664111921831 -0.8747486879524871 0.8355347367571868 -1.1606957258071107
Ni 8.006902798973222 8.67306787249431 0.5319967756095029 -0.13750002596240837 -1.3554452203102914 2.695748442772822
Ni 7.761285714799847 0.8031675907019621 2.4105442127027388 1.6630872266398453 -0.37382014481852394 0.3085678605779331
Ni 1.357881132511531 5.602282351633776 5.392482404612968 -0.41714503285840415 -0.42899756132161604 -1.2188000861490105
Ni 2.165967653976308 6.320427940006563 7.351027671032988 0.8646468236317947 0.06847490494294659 0.7394014466670233
Ni 6.271412510861192 1.2314806270306018 6.518782107110992 0.8153698317735376 -1.3966762019356203 0.24209584499762826
Ni 8.794517416965595 6.732556550188155 12.357209741356257 -0.1725469902642125 -0.1357128521549985 0.9201507702363702
Ni 4.0450358113679705 7.09755494003766 11.90462143853191 0.37771176656344624 -1.4054860869177663 0.06033067856925739
Ni 3.426522593627306 5.764950248022677 9.85427290895435 -2.0591217027718796 0.04570058736090839 0.39562078563338315
Ni 8.460743942023484 5.134329596981168 10.69589326854784 0.18800240558733428 -0.39292112731403295 -0.236878819573063
Ni 6.8429144777579864 5.4757079676700675 6.74444709296048 -0.7557449210220533 0.8226391117414413 -1.0377777114239353
Ni 8.598803457349671 1.768179442874401 5.283936473863671 -1.2656630692491364 -1.5033692698195011 0.25996912573362324
Ni 7.403068585778707 6.230267370936325 9.007119553008865 -1.3458912580732691 0.7095339696836297 -0.8940404463025635
P 2.5362556103019194 0.28436178588598743 7.686510646005785 -0.4188579017844528 0.31794158848334925 1.4931403930026412
Ni 3.5824549866833113 8.137787539010018 6.389113601303737 0.28863898286449 1.1447137485565575 0.8985208506714204
P 3.913290830416374 2.121930640337861 3.291865605664123 -0.7554464159450279 -0.4866386088738522 -1.1827254519136405
Ni 2.8169320875029102 8.92387385665376 2.017359205644918 -1.181116712665624 0.23699117678121118 0.899030186207671
P 4.421638302068172 6.572277195062685 7.796745028337853 0.43547108486110164 -0.4716295370595297 -0.0642950625336441
P 6.952741618380389 9.118169333910174 12.287988717362108 -0.7129643355214172 0.5654388070022067 -0.2792958510866932
P 6.938895400251759 3.1818023563651052 6.553191743702962 1.4507223330477468 0.44339651035576544 0.18910026663720336
Ni 3.0752880584145887 5.819502334119681 0.5963016142905659 -1.7058045630027139 -0.33188082427226073 -0.9712681577374758
Ni 6.208093288632511 2.108166785701073 3.273622092221013 -0.9131236881862598 1.3106182938035882 1.1950960576638514
Ni 3.187348164815832 3.457967144512947 13.04617760516889 0.05418779889631313 1.9860272967790509 -0.4212230595825197
Ni 3.582976622131647 7.877528056286869 4.091616026604531 -1.7906869627694062 -0.9592868170058835 -0.40983384390897154
Ni 5.041249699700069 4.080818172823982 7.132943787032646 -0.6012781852983193 0.4809035061622879 -1.029549409976872
Ni 2.109740843545173 3.0723138212091654 1.886792937776578 0.5419263257025635 -0.7507302414162813 0.8340303842975184
Ni 4.429298106809523 0.6191190469806614 8.820740122468422 -1.0877581571071202 -1.2205890597286333 1.2198532100038735
Ni 5.774019383624443 1.129661048115107 1.131042924478242 0.5756337452573377 -0.7136616186987581 -0.7266076373364647
Ni 0.4402301184483376 8.332320955242867 7.722152989525664 1.1206088850885538 -0.16355584250919575 0.2541594610303816
Ni 2.018866457545635 1.2998423252598619 11.254778063644276 0.3014261073268293 -1.1989082323210902 -0.7687914697933662
Ni 8.120848114187748 1.580775044435474 8.269544416910437 -0.3523686598129674 0.20044603066732575 -1.011081690189988
Ni 4.068399588553954 1.9749118073990306 7.018102540056854 -1.143480904590721 -1.3445152036613488 0.16391296873829836
Ni 1.085715549467596 3.162977722729551 4.541418613104784 1.2173042183297746 0.8987645912511103 -0.4175067870731971
Ni 5.390882722571406 5.043848725442655 9.195870136964462 1.5665531015668375 0.1960299038775011 -0.02552822617809152
Ni 7.745435318369716 3.9975852885676075 4.6901734854216715 -0.11246750847381276 0.6194016343719074 0.849603299035111
Ni 0.8281530135273336 4.472493182531358 0.5494422783316498 -0.317541267721137 0.1036519670647118 -0.2828527152000161
Ni 5.353398182283983 5.080152722347002 0.13082800074241693 -0.767169360808911 -0.746472751691508 0.791642920470243
Ni 3.5077512995821807 3.5200417628648974 8.78377264187979 0.22631929888966185 -0.22931463407255992 0.9498935487164416
Ni 2.4063866866645127 0.7677119377635924 4.473228963058484 -0.2808559964849615 1.104548746301898 -2.072659332246998
Ni 7.4980519948712745 3.9869237921235525 8.468126456342297 0.6394498112720342 -0.28959903278491417 0.7378906664494518
Ni 7.756993661724945 4.510682388248989 12.73509893282902 0.11964088629380039 -0.5873464057085755 1.9147668586711668
Ni 2.659901514555672 7.7729996336396665 9.132516139039225 -0.5470664751426062 1.833109136489359 0.6707941299112705
Ni 0.15787525631357865 0.3058641481563314 9.75536991279999 0.41958063888309033 -0.5023115395244189 0.7695612580798552
Ni 9.012478670878084 5.828571469721448 7.32596720591505 0.5025712209437087 0.12998032054659547 -0.6522446490438573
Ni 5.747205491280169 2.9000368507719747 12.947235257568426 -0.9184299308905215 -1.0079403163475287 -1.4827446515906142
P 7.180879339284971 7.629714612331028 2.629243992592081 1.1821230424429514 -1.163307709508661 -1.2626039707078385
Ni 2.550376373403358 3.9765002346559317 6.710426395079989 -1.043235649214713 0.5384828472386533 0.47740603453199076
P 8.171739600647308 8.871023949388167 6.370040962042745 -1.9733841540937433 0.2108566844776885 -0.9227948927274365
Ni 1.6733973667618915 1.639838819585627 6.400672859808873 -0.6253521955283875 0.45016288254532155 -0.0825331828082256
P 0.5311859527898091 0.8991988464407492 3.442013336143058 -0.05587547101138119 1.6604325626258178 0.04716045973588652
P 1.228341662841494 7.752802275140071 11.147557269963732 0.9668988250251864 -0.85298841345726 -0.8314999045661808
P 4.194324216082015 8.32786417518428 0.6219276420524901 1.3092034157339323 -0.5463869325770784 -1.2374524111428753
Ni 6.285862727930001 5.945161568174028 11.673223953650187 0.5579381277497875 0.7487936865152007 -2.1389125469482773
