# total energy = -340866.8362245979 ev
CRYSTAL
PRIMVEC
9.26194261518314 0.00000000000000 0.00000000000000
0.00000000000000 9.26194261518314 0.00000000000000
0.00000000000000 0.00000000000000 13.55578922882367
PRIMCOORD
 96 1
Ni 3.1285638085426135 4.3035708958696866 5.625706720145908 -0.677099246193692 0.6857042142538836 -0.14809682764164817
Ni 3.4589558253411643 1.7756903753252236 1.4166613581695457 0.6697327785262916 -0.7883747912419325 0.4574889838930895
Ni 6.791689896787659 8.400739400666383 6.542064798134668 2.157920712619664 0.1479649300494742 0.33035333188414073
Ni 4.743290883241519 7.560894230582222 0.14692404801745831 -1.2499196903719507 0.8577141010677034 0.4630307396469251
Ni 0.09492472361983259 7.142291472362126 1.7386111142787077 -0.22280717197134528 -0.9224385378292822 -2.0587098120454415
Ni 2.3145131486284445 1.426292852290111 9.361546467436762 0.14365858936463646 -0.7076462657426135 -0.1604563776482656
Ni 6.591613412517579 8.700270624687047 8.783419714472004 -0.5006408366902152 -1.5835938590992082 0.6050682484683708
Ni 5.3346751808588175 -0.06168361159107056 11.826530988102453 -0.8738498302873016 1.0884374425623318 -0.4211410413916747
Ni 1.3165573562419717 1.66676066828419 11.896045572170625 0.3878591394100933 0.09788112601920562 -1.0128786341894103
Ni 1.5662871148464605 2.7456287913152058 6.854417329310923 -0.8818120225571716 -0.0890910385314014 1.724528107554146
Ni 2.643793732313746 8.120695303898023 1.7871140553409035 0.14738077541123004 -0.09303125412607202 0.5187881970232032
Ni 8.325254568391541 2.372835601246197 8.157345737001675 1.623539032033578 -0.4470929853707461 -1.9010824192055387
Ni 7.740964918813816 8.80959859526033 10.993310885567517 -1.1811966739739401 -0.8686759993958459 0.14316210934419216
Ni 7.582372675495764 0.07775863918569842 4.484661323982687 0.13225986060939157 0.1094037819468245 -0.9457748985623775
Ni 7.401236863863971 6.407022896292105 10.156621259330723 0.4677129756139429 -0.3766298463531772 -1.5385265344469248
Ni 0.21207347853334432 7.387575498513617 6.888388282417385 -0.4585853022810618 0.36224966637210515 0.9425471356536992
Ni 0.10681242696029401 7.6299883224558815 3.867615888168986 0.6335267609193799 -0.29675955508909535 2.0409843697412207
Ni 6.136555648182908 1.466962042292422 7.5083892041180675 0.10016837939148555 0.5960817286990443 0.38583002479520645
Ni 2.294238756254257 6.063691945666811 10.758064026622927 2.209958297942194 0.23099819242256991 0.31754306749334993
Ni 8.382048800478575 5.127077999189084 3.6060567764624816 -0.09571342894392548 -1.0227282732899807 -1.7089299960055733
Ni 5.3405287285885965 6.745426493448661 7.316574372656474 0.6454795624058819 -1.7194519785828193 -1.1658063075607985
Ni 3.8233113856920893 4.788276138500281 12.62263570801469 1.1954786378142508 0.34224442689477186 0.0856619582451944
Ni 5.443206624367604 2.9377029571698916 10.31111601923793 -1.1060399861354435 -1.115580321525711 -0.7157843214687156
Ni 3.859710820151001 6.576127444472973 4.932626292666306 -0.022314861447116408 -0.9744051607045605 0.37048593823896836
P 5.150807096156956 0.47148752433127805 0.46423264468454384 -1.0534496136332374 1.0240660182647974 0.11956246764738118
P 2.345642537742033 5.919103759575698 7.251248965230991 -0.48029081227895354 -0.720935783762668 -0.9510911685689685
P 5.034541930568476 3.7876899544124516 8.299030304084425 -0.9462292124909769 -0.4993889665609851 0.3918410068759768
P 3.7133072933082483 4.094250992874418 2.7613009244062807 0.47425360494593805 -1.0073440775244262 0.9579773541658406
P 1.0608536446537682 3.063387518393157 9.375359728645927 -2.4595869609817576 0.6626249638369169 -0.17669417966336667
P 8.379094240785856 7.321658252955328 13.312543920150226 2.991843624805041 -2.733974061912924 -0.8156873630139565
P 8.019675295846278 1.1467303765374912 6.479125267125626 -1.0936449549052003 -0.4713690843092914 -0.49940850694501093
P 2.0012464637165417 5.349762885371176 13.227115466288847 -3.3491038083823543 -1.5637750246010682 -0.005907623733686599
Ni 6.277216770607207 7.039131955567377 12.096467526900074 3.3490927526387613 -0.8593812043574812 0.9505846612461953
Ni 1.4150118061906316 0.2556323946301033 3.4644935408279287 0.9483238902364765 -2.677793400956298 -0.9179329366494451
Ni 6.68624268016814 4.283426170692045 7.127389932896237 -0.44771879188020314 0.9519476030319928 0.3874061110330747
Ni 4.17968315151284 2.3514497757587605 6.505667216064278 -0.3968325465532972 -0.24088331274676578 0.3459144195471913
Ni 8.996282310515756 4.933744209139383 7.379337926755919 1.1093911619958636 -1.8804228339736582 0.4247274731913524
Ni 2.3678156283513547 7.398411971367796 13.103107316678065 -0.8452902734820539 -2.6014745744889 -0.9586417272227169
Ni 0.6455240569521901 8.67546714237637 11.909276257189596 0.11928221740280101 0.21963674466316366 0.7826998523443424
Ni 4.447464436265019 7.3830649324623465 9.257871986632875 0.2327789384720765 0.7562915375541426 0.2648089703244278
Ni 7.187600895612251 2.0886977258440345 11.742417730091752 0.15082296832355963 -0.7655135703730429 0.5964159721100116
Ni 7.603786286811031 3.136103029827487 5.390445968287402 -0.0005198770592120079 -0.6015211545470609 -0.19241133328830734
Ni 6.851466474395246 7.0522746521315485 1.241141988536707 0.7296004014162015 -1.0678264511801996 1.7651299402359086
Ni 2.2171701317930337 8.03008571934038 5.898015242446055 0.8620991175092766 -0.046292455308636404 -1.7401267333233514
Ni 6.488852159255079 1.8875653801163679 3.553907408594567 0.023666490379004403 -1.7105451630114927 -0.19901958263344435
Ni 2.80397902976079 3.510822703959461 10.860803051223163 -0.6417329508792561 -0.7981611812047351 0.5795392509593309
Ni 7.143458477131037 1.6667791921694108 0.7518974678327506 -0.3253581926623945 1.6543357056994605 0.7449488588478138
Ni 4.084201785142122 1.535000272708495 3.819208345115678 -0.43855332333085123 -1.2258243399856437 -0.2990030997076334
Ni 9.01398188284425 3.2173580523486156 12.78637573903561 1.2511990713050065 -0.08560282287248483 -0.5499468820141948
Ni 5.470251496790001 8.251761053777935 4.783566440682887 -0.9863155389889013 0.5615996357617747 -1.4830737527952587
Ni 7.072150780973489 3.8599886784293136 -0.03177309412501202 -0.2126626273381757 0.6540045691577575 2.6951380628823327
Ni 0.31814680247332766 6.386470645639605 11.737429247801785 -1.1031336111219259 -0.7894970777718339 0.4896604264193115
Ni 0.6640275658992674 0.30853290604372186 7.8691631712615475 -0.05304288665859252 0.5285347348870059 -0.0642544391036958
Ni 8.0833974610059 6.072518576974531 5.609656699796329 -3.836738205510573 0.9065871726193225 -0.07984046646741089
Ni 5.3933032775827145 3.332308022086416 1.6367797600542922 -0.08062336738002245 0.5156457947394797 0.44339419636292027
Ni 2.7709138946416254 8.652460476932111 10.66961247469351 0.5404685102101143 -0.6300305748406634 0.48066285090639155
P 3.509016625150431 1.510789554724883 11.478784869434776 -0.10225148717275938 -0.7975430880047619 -2.172126314696085
P 8.16127187447423 4.740734587081046 11.418447944299258 0.07280901354192622 0.5857314958129719 1.7461107188209282
P 1.702011621859411 6.08896778705062 2.60322642368015 -0.3560808185572319 0.9666088045885933 0.4536302722686317
P 8.992873915635125 0.9586481079478922 13.234232342990685 -0.39329573704463233 0.7445917326187113 0.2640296689562421
P 7.533469618512798 6.520435383556578 7.785455586337183 -0.30977679328436974 0.6057200231197569 0.912642634784783
P 0.7928195088683258 8.259040940669719 9.735049122309729 -0.25567306946143065 0.7322059573598487 0.21246285262254377
P 0.3827553355407657 3.780289662266734 5.297765413362073 0.63625830091793 -1.1747750867183122 -0.38839649997080206
P 5.6536379604761215 5.50204774577154 0.5382300089761546 -0.6284272349092855 -1.207347878448011 -0.5469752009803805
Ni 2.8213173863274776 3.893192742687634 8.540567874450007 0.9109217954389344 1.8243131354642836 -1.0434840177800933
Ni -0.15184491812636922 1.0926221078074752 10.003114748700046 0.7069857493404792 0.6924667297886977 0.3179086783628848
Ni 0.9648165617264254 5.7613265672073615 5.239732859548025 3.400506074113731 0.6848583213138205 -0.5903867351967961
Ni 2.4238318572591155 7.849588981748706 8.186368034171396 -0.05486631302057647 0.23940441420839415 1.2233028591153707
Ni 0.6335918962871986 6.221524709690811 9.1629268867393 -0.3884090983762924 -0.22501369270436086 -0.4983312147204321
Ni 5.994190328318293 4.584485615243427 11.844506566320735 0.7171380072831327 0.8089577575996068 -1.0618316670493455
Ni 5.201330993096742 3.427196624130068 4.467662880709802 -1.2434356253095036 0.8676622134193509 -0.12023943910974776
Ni 1.6053725126623914 4.109227554075451 3.2872653427834693 0.14820429975378993 -1.1943686925795238 1.4578823411312956
Ni 3.4903260249626236 5.818556110597085 1.2744127387818223 0.49751926034209804 -0.32543378309533627 0.9561480142665856
Ni 7.2214532958533 8.881313816892735 13.436674327403464 -1.4802141718592765 2.1169877218507285 -1.8226267489007966
Ni 4.492375595982898 5.098680883145567 10.250860599197384 -0.412004112087413 0.12204306797738983 -2.219754200986693
Ni 2.00187627581405 3.0232462591196394 13.591711837147644 0.512811153504162 1.2674070485234366 0.8031216105338039
Ni 0.3499699110884359 0.27827877050681715 5.519348128373524 1.10791637722255 -0.5085058412605887 0.29110518501679544
Ni 2.840461821703195 0.15500231436225803 13.048396095484112 1.5513064598204123 2.9091834295006476 0.973989927544013
Ni 9.075518229547814 2.058577888474981 3.606029916828911 -0.6617865270960215 0.6444668048706513 -0.32016584982817764
Ni 0.2333768727315487 4.40052491111546 1.3869471938868276 -0.19022126761552402 0.19277411594436478 -0.6224561049275151
Ni 4.46307080956356 8.93405131811641 7.077599581811193 -0.3954901735927899 0.459781379471692 0.17911615884129797
Ni 5.738681117524908 5.887770607724681 3.245282809319002 -0.36954928535731196 -0.4679739425848134 -1.430230640852298
Ni 7.730082136246584 3.5865298228569538 9.782589747534702 -0.4160872810178512 1.1992504461518572 0.559934589354526
Ni 6.249829206308224 9.076583352948013 2.1938828294876793 -2.8045359312918863 0.11068393421082874 1.8104420339091465
Ni 8.374092791776233 -0.05364702398801767 1.9634475497291972 3.1077147596437644 0.9859496710090504 0.5618639451667549
Ni 1.888537884090461 1.9264748010227009 4.762175984224146 1.2979263001582162 1.980931627423698 0.458405839280404
Ni 4.496941733689829 0.7186822892432977 9.433974858650169 1.1239335785864129 -0.2979556322797256 -0.025668608410697732
Ni 4.638140048785533 2.534539857281348 12.870530675788057 1.209533059024788 -0.2727266825096077 0.58388004442653
P 7.520012015899872 3.2373638483871017 2.4483111715784296 1.0860221482526198 1.8861491949344744 -1.5715958061970676
P 7.298614539740628 7.272412504095778 3.800866920164282 -0.7416429344030324 0.28291904966157727 -0.7104220287155378
P 6.864887029237731 1.2410169523114665 9.776340714855458 -0.17942880498571034 0.8752613659228475 0.0015465185515134655
P 2.595603844911782 0.7736482138590378 6.643529379431711 -0.34752290168489186 0.21430710492013416 0.27589710981778937
P 4.486133046663482 6.968333666253401 11.305744921838743 -2.9647267139835907 0.3734265089245311 -0.07888710141520608
P 5.81031298167382 5.231191496072705 5.227288513456678 -0.3081629118300306 1.0800587315803334 2.266634410478
P 1.4024989217239674 1.7032249363413747 2.0465984919026763 -0.2554804938346503 1.761738398055856 -1.3611217018697785
P 3.4321795492544687 8.500120044876084 3.858872614344759 -0.10512803738960604 0.2849085692877803 0.1789878607935498
