# total energy = -381166.98932699964 ev
CRYSTAL
PRIMVEC
9.23510806021347 0.00000000000000 0.00000000000000

0.00000000000000 9.23510806021347 0.00000000000000

0.00000000000000 0.00000000000000 13.51651414514762

PRIMCOORD
 96 1
Ni 7.89067947677548 6.1583117361848485 12.536823541314948 -0.984329361796808 -1.0542942210217197 1.3388857732897135
Ni 1.6008505670759516 3.004660869134755 9.803432888554427 0.26527331155535605 -0.8788184871464864 -0.531661967662078
Ni 9.063916836545047 4.5202067432990365 3.3183313135154933 -0.4448016182334082 0.24632299570509839 -1.1032449398888096
Ni 0.5552340887414451 7.577553903768758 0.17205837427390244 0.9484102793026957 -1.8570139681314146 -0.7988252971512952
Ni 8.80599873936662 1.2546910126309874 13.594369008697198 -1.2818170533011797 -0.6835439733777712 -2.00200618870581
Ni 2.0854259207371237 9.247021323538625 3.7520489272324666 -0.6495516755927265 -0.22815866609124577 0.8557009272924166
Ni 5.457117688474078 8.676513289619459 8.688672232857254 2.1461388894933875 0.67825495706469 -0.8707349388074036
Ni 0.14436874985503692 8.414411688501552 5.927721247190348 1.2187077835455205 0.6504559325745507 1.0994052544277453
Ni 8.960649858506907 6.872767399032693 10.783610314869577 1.2611626102756215 0.3702928483915558 -1.9549028074601043
Ni 0.9497108049104073 0.44463351141336743 1.6270367159068535 0.5661607727698958 -1.0338819759139548 0.8613133883831877
Ni 8.470570380457367 4.528296697936974 10.375506273285387 -0.6887293742334526 -0.31776495369616886 -0.7266983972780581
Ni 0.3886641391722526 2.6918123493690587 1.5903123852981549 0.5897884394911649 1.6169415813217185 1.5317899870540395
Ni 6.924308536971422 2.56671357593813 0.7467702293702252 1.3554449631999754 1.349329851441173 -0.0334888757860649
Ni 4.841505386916003 2.547504551227047 4.7032872190117265 -0.5086817047168207 0.02559301797775592 0.9884876069395558
Ni 0.26696019145468686 1.717434570899371 3.878401828334436 -1.178759525287357 -0.7484579004423368 -1.8632792323148364
Ni 3.454706153856149 7.934380007993194 8.269700316138447 -2.0560098966157754 -1.163561734500996 -0.637255888944509
Ni 5.291975486606969 2.920944614804963 11.984241775600918 0.5455248416870992 0.9160138652498612 -0.8424561464673685
Ni 1.2113691208426747 4.887791748383286 11.357602755050038 0.7190187692456134 -1.1060718678146433 -0.952158176380902
Ni 1.9231743076847112 8.120338143369333 10.835905961134698 -0.3576574190157324 0.5803571188749359 -1.207274087787282
Ni 6.14508706147991 0.3990573297539126 0.15531789394035425 -0.8136808741068889 -1.2904886129332485 1.2780385600953539
Ni 3.7827187210139606 5.716836631719169 1.1310947912772191 -0.15267416259968547 1.8228332084846477 0.018091824504704326
Ni 1.4678927167079407 6.842734827705558 4.428213061638214 0.5527920647724738 0.06002831683749017 -0.5463010577314914
Ni 4.548106004670277 3.7571097664351942 2.1430834707268858 -0.3078340677357021 0.4047266045893933 0.788403587597339
Ni 3.2394819611197114 7.955315997906667 13.228869291007065 -0.48619560779916265 -2.0448698208385556 0.4726129840187216
P 9.131961112540846 7.101594905903471 2.082421740093607 0.49869528292807014 -3.119699957030098 0.12742541533522572
Ni 8.013072363552395 3.2582199953210513 5.236229603980281 0.4438323123416033 -0.0019962044944223686 0.6784557602215865
P 0.7932569926818495 2.1323402695507303 5.7696189681776895 0.4859570094257953 1.1690618383836189 1.1359012924712502
Ni 1.3510316596434961 4.305961472014221 5.0606914409991015 -3.595895773304071 -0.4909650041633481 0.626036880300238
P 7.528164546001992 2.8541747837178812 2.9281904805685763 2.121289948770508 -2.284696667296349 -1.0565076837332708
P 4.663683381717972 7.883965553234635 1.6190354183060447 0.32730837441022986 -0.7942950133811094 0.10208642234980483
P 2.6869454474350487 8.044822664973887 5.82300897474486 1.4106298359022351 0.8318457179413737 -0.6491698667732756
Ni 2.7909142936837856 1.107797384239407 5.904297319172467 0.6782482721964707 -1.6536250527856813 -0.5690311523391554
Ni 3.984986057178451 1.040325684941728 8.177585654562376 -3.2437860235794456 0.17689806814405662 -0.07862999109907748
Ni 8.040814628087055 5.064764123642173 1.099235515580924 0.5432877248264644 -0.5117752560404799 1.211428733385604
Ni 9.138721211621862 2.111238047692642 11.244428353112836 0.1256960913489448 1.3317571326647322 0.47321513637909474
Ni 6.40029003689629 6.458129518514324 4.411181675401589 -1.0249628190474542 1.337279348034542 0.18165975119875813
Ni 7.49754092776067 7.590030534722928 8.636093068775484 0.7570548980827284 1.3309950576877272 -0.5801599152624652
Ni 3.365254897437134 3.973248234867015 12.896890244948576 -0.13322890939088022 2.4033039701193126 0.9064197938035228
Ni 2.145371006986951 7.554567719871697 1.961881415988347 0.41250444876259923 -0.7246327729982811 0.8562233754547899
Ni 6.4029682182262 4.203350186646508 3.864168679832166 -0.6354759142259507 1.7543315640688237 -0.0753106969178574
Ni 4.765010987068935 2.1157447804133187 9.884816354594788 -1.0301582472054647 0.5797297697035821 0.9163064567896154
Ni 1.0430685120278778 1.1668651352259873 7.6423723565282184 1.3367666700641818 1.4293649504178931 0.0026387231744277135
Ni 7.888693928548133 8.66454458960717 1.4281688230097422 -0.33830266863820446 0.4988932578714891 -0.467349421626937
Ni 0.7144187224157083 8.469960863327112 8.608478248731695 -0.22749455014468561 -1.5258872484163593 0.8591456913079075
Ni 1.41061657667999 0.07474619389619849 12.554935435191572 -0.15166577593982913 2.695278702225255 0.4967145050526155
Ni 2.73424767078609 3.2847247553791323 6.470220121952666 1.3408714362611744 -3.268594597982693 -0.8099689724729405
Ni 4.661208372764814 2.3192034455142183 0.5644304093218762 -0.8457209332615694 -0.7459976118273024 -0.22863149196260624
Ni 8.530709403975912 6.163215578550995 4.916915585079859 0.37524659285240536 -0.8600833726308285 1.522813751697358
Ni 0.14139227453562248 3.992115560580834 13.223475987915107 -0.14455487592666072 -1.382715111769838 -2.2503960942422663
Ni 3.797088549115136 6.8827043752774655 10.773580987544465 0.3463021419039133 -0.8216831755860753 1.2686126387957635
Ni 4.04194820353324 0.6906780301922558 12.666379177883169 -0.6126864271352609 0.865537196656548 -0.5092928559382583
Ni 5.564198766130331 7.05896564721772 13.162895526232528 0.023686544983662433 0.740534274719886 -0.17493400243915033
Ni 6.831274058635147 1.0903245598387488 9.509611461871541 -1.4279277037507343 0.14759751940772645 -0.2868479524023383
Ni 4.1653292468698115 5.172768712101844 7.901943538044762 -1.1421182199152395 3.334125846916284 2.017046113758068
Ni 5.621474906158282 4.704391737932614 0.2003999973199807 1.410041824609249 -0.5577463234539556 -0.8047632599022849
Ni 2.321946272600368 4.997754179746202 3.1545919245587757 1.399642740763112 0.4821494627542471 0.39325614205594855
P 6.909329191739991 2.6804439313789894 7.155250883582024 -0.3322832019170019 0.6489184128841018 0.21148943296568093
Ni 4.055108232481938 4.468407022335351 10.259263968459232 -0.8110737755013451 -0.5911331264445173 -0.17687904198066312
P 2.2585287857296916 0.7623378509834332 9.645411878492473 -0.052376199608871084 0.1095585623571339 0.1294409031033577
Ni 2.2346190910292134 2.3895472634105257 12.012464265753355 -0.8454301414940278 -1.6569690295572497 -0.3227575218147538
P 7.371610994606666 3.8201486138764698 12.198045608721698 -0.28508417563369615 -0.32355070714001055 -0.02826208016948681
P 4.304825553726018 4.68894140219144 3.9391448279184154 0.30017963651423785 0.7651405033043404 1.3911383028365267
P 5.355771612907047 6.692470384881504 9.38119082008072 0.4325210010938422 -1.83273118432465 -1.5473042806395545
Ni 1.652567172067329 6.536535585724466 6.879230127635009 -1.3204687042351064 0.14229719024073556 0.8813759634610175
Ni 1.8269352468605786 4.37130909646404 7.918108671147781 -1.3488379994064188 1.2593870064324375 2.0627901527624024
Ni 1.4586576086737661 5.177838786412606 1.2163496146055048 -1.5124632617009695 0.7530601751010386 -1.8124544363534851
Ni 8.750190981516104 4.205465026386334 7.246689535249993 0.36402552732560534 0.6972435823520509 0.31801306515123295
Ni 6.430147141170776 3.575455191402981 9.540645118909582 0.2593417765622695 0.011337279389690152 -0.3025548216146338
Ni 6.293569128453369 8.627530276606198 3.2987454963966165 0.1840444493808508 -1.3641617742476828 -1.2932412359777212
Ni 6.982674419747405 1.3069340187803127 11.872486809768569 -0.13760672674360172 0.759413371012576 -0.555919554657862
Ni 7.143291418677768 1.0879419019659318 4.607577329877952 -0.04591553158519189 -0.46264430284178387 0.6226651356145276
Ni 4.355988052235345 9.197835138148612 10.632535953070928 -0.694282699951514 -0.10361468606887315 -0.5408408059478685
Ni 8.432540205572638 9.263182762598431 10.587066898664668 2.2523439619972567 -0.8250374367702888 -0.4838214511400313
Ni 8.577623752789519 2.36818645852748 8.849923683709564 0.783934753192708 1.7061719736444616 1.0169929134681002
Ni 6.8417836115780375 5.439663334289488 8.031283073084984 -0.9651867274300863 -0.533115926499785 0.20758084193989412
Ni 8.749313646252858 8.18262894705984 3.732680135152392 -0.6462336669630869 1.7762908419487344 0.2572800089372343
Ni 6.480164486283865 7.919982474567916 10.799072656251196 0.024572290022725422 0.24054058469536638 1.5621089497525547
Ni 4.417872511172349 0.0231062403015047 4.314525187694311 -0.40205034330881084 1.6191288187810242 0.71718068759561
Ni 6.5866637521339655 6.54550287562565 1.7309381458669408 -1.2605126353964484 1.006985408633427 1.3253219185623497
Ni 5.959442919776933 5.549588825220267 11.207001230782737 0.42461640153478486 -0.8210720243646374 0.10417492944771735
Ni 3.379633960646344 0.44209293319316606 1.6652072644337037 1.7086769994545024 -1.2481718544429083 1.238475195980435
Ni 3.1869434315132925 5.245642949599516 5.68043645340247 1.402347541288785 2.3238129165715207 -0.4057769002307786
Ni 7.9905571701650775 0.7944630977911128 7.400548282120948 -1.082509250003355 -1.9426545862203706 -1.5195124552382668
Ni 4.0160344903893455 7.02730769687657 4.017473320221071 -0.593289767776204 -0.8596025763396679 -0.38937943270936165
Ni 5.660410121630362 1.614250708833539 2.6763647841602944 0.24534906182760324 -0.3580348569598092 -0.16071400218502646
Ni 2.4387519190166076 2.600883475664576 3.620682285978744 0.6954240126448088 -0.5642951803160668 -0.2877380683167754
Ni 4.715566218653965 3.1490240779249716 7.598159276814608 2.279689958110377 -1.68989303397878 -0.12791726736997971
Ni 5.135874455505316 7.5275088533315655 6.456406247355148 0.2663794001353412 -0.9809529891254074 -0.5811757581214895
P 2.340231786508034 6.048155367553214 12.481622530062277 1.678610004865793 1.3372783195932774 2.0651979908729468
Ni 1.9544259132723583 6.251235393224713 9.2917922037775 -0.28475481731873536 -0.5426598614344783 0.4781228580933573
P 2.4174834652139037 2.0110463606298823 0.8358197585897532 -1.3232665786952178 1.9173395044943495 -1.4377981687869108
Ni 5.421100767140797 4.941106027064576 6.069982545391986 1.6864492984045536 -0.5085564919928661 -1.2306243324774482
P 8.231824367557888 8.274361275163296 12.473809628665364 -1.3175350755280792 1.5042591286236222 -0.018968313572386687
P 9.127288147875554 6.232672826076021 8.565685528633741 0.2892910146261921 -1.139062463808051 -0.1689487313899929
P 7.312986528805726 8.150102896563476 5.994898346541737 -1.3976398514004702 0.18226190355913127 -0.37480487732929646
Ni 5.3456499345015915 0.6343604943782527 6.527516579218291 1.640220349344001 0.908975470345841 -1.2187903159569977
