# total energy = -340860.51172646 ev
CRYSTAL
PRIMVEC
9.38305203729821 0.00000000000000 0.00000000000000

0.00000000000000 9.38305203729821 0.00000000000000

0.00000000000000 0.00000000000000 13.73304511002213

PRIMCOORD
 96 1
Ni 6.072382991912534 6.500541047901286 2.864274274820821 -0.1908074791362972 -1.5806255204995037 -1.4745556880219184
Ni 7.736007534106696 8.844924794980194 7.900689483672968 -0.19687656814851254 -1.9299985880192567 -0.01863381305110339
Ni 1.4323886032099875 4.546098185106757 8.932054879617963 -2.0629266783402667 0.2791287293812096 1.0186340486159489
Ni 8.895593276984519 0.2523609427590867 1.871662761167355 -0.618523088421696 0.5032517919505011 0.194064295510698
Ni 1.8464908469686518 1.0799893108699212 5.134277628622607 0.027639358983823366 -2.0354752669975333 -0.24460241346956585
Ni 0.7240920166611121 2.935150098092646 6.1040639294383485 -0.015444616689844369 1.1214470647191332 -0.48775163943237293
Ni 7.704405414219554 3.084603353900953 0.6649966154552923 -0.8968066961937909 0.9213237074985486 -0.03129418212759127
Ni 0.9352885710125757 3.0871367780011694 3.4475576416866978 1.5943467267403382 1.3869543466621663 -0.7044637542495739
Ni 0.2716140276155071 8.754124998618005 3.974933968492137 -0.4785535178728726 -0.0976723524425092 -1.1475612453076816
Ni 0.6529581594531542 5.232505987429765 2.308414754687174 -0.5741892995013272 0.03989426509177645 2.0848144795522936
Ni 2.968459933484377 3.1206155083329143 8.315331252934456 1.727052930858529 -0.8167798247471869 0.38160030298457503
Ni 6.80214987855813 1.5475655692475923 2.217324083706069 -1.7370293253449505 2.119460094650621 -1.8358206218832513
Ni 4.419567725879295 7.37380295219357 11.611276598496328 0.9924157383493684 0.3104486225404137 -0.1287868144591266
Ni 2.6270012800363554 3.30607153552096 11.28904381905328 -0.8678936127038666 -1.9410864704023023 -0.6213394748245685
Ni 5.176479782606096 7.146226403576375 4.7925853371742315 -1.01726056530719 0.8424880281465685 0.9930346028802898
Ni 8.832004332069094 8.594350385364372 12.147372595732625 -0.7964143737169574 0.45167314854226076 -0.9329569208621029
Ni 3.2804558029521074 2.6992789313102996 4.522703420999094 -0.08386501424577168 1.6965516769458784 -0.21394740758787026
Ni 7.176993431815667 9.506157868188833 3.6643061480385235 0.7608673298502832 -1.5254097945593084 1.9331407331926644
Ni 4.684507588448566 4.693824959306029 5.141336498809987 1.7725887105067988 -0.7405905818791181 -0.6270930894788943
Ni 6.880188723897011 0.8025784335910306 13.244972957319936 -0.01594598180629512 -1.2900422694244493 1.4095435448165918
Ni 9.08597540658965 0.8506750209810232 6.229268563386697 -0.8511421042771405 -1.6155984370302625 -1.529686053337159
Ni 6.042704397731113 4.842433740414262 9.36731027630821 -2.133712490804577 2.2078559068872106 0.20628037796091572
Ni 1.4408708824196004 9.219055236268783 13.339044623992296 -0.6089436722633771 -0.8952434654717292 -0.8575824605858456
Ni 5.5051868680830305 3.8137791082564987 1.4387559424485308 -0.0385547203447465 0.6986150087782808 0.8183929348705775
P 6.184763808387678 1.4874389706024622 10.236323534553907 0.30438004774883065 0.41839098945036335 -0.5939137745134481
P 3.7583628018273263 5.425871927641818 1.63674585079609 0.9979104429153524 -0.6287496512457107 1.2618966602281687
P 9.25558345857301 1.5267727255213739 3.9440890609193944 -1.9753644177485656 -3.1742723929593395 0.8772891949861537
P 1.168837432369724 8.529804369122198 7.899741795398442 -1.717175266733501 -0.8514071850130691 1.486670983228214
P 8.997755949588791 3.568740699452259 7.872784286361698 1.6003417679815084 2.8513888870896826 0.5858423103592233
P 8.038648500508073 7.064415571243839 2.9091393390252045 1.5714402544558097 1.0073733881004652 0.15533165482719058
P 7.742988524960624 6.767901737944097 6.952353778544279 0.3424107772693071 -1.3479771940680203 1.4914113261266766
P 6.792100629627273 0.7357908061727769 6.4668361860109655 -0.48838027415530727 0.28706109685440884 -0.9126719453608217
Ni 0.8187266664668529 3.811292599417398 0.709601769113098 -1.0718756815489088 -1.6250266723226983 -0.8370378036652746
Ni 6.75903475359334 4.736986999531933 7.285696091819386 1.658980917780956 -0.4567158531724908 -0.6439106752568653
Ni 7.267596184081175 3.8893595939129475 3.2223353008722597 0.773847544160035 -0.426588180549175 -0.7687235926699083
Ni 3.3845420012620986 6.176722532632548 13.518164276014133 -1.073556154575125 3.5885257060922453 -1.268691314552499
Ni 3.779521584590243 4.07769621813346 13.494845514629477 0.5465897926165038 -2.2145454030922442 0.773315840026281
Ni 6.281390480180367 8.946017799631043 11.178136141777152 0.3228688505816375 -0.4957464847123913 0.6436718197731818
Ni 7.503758225482436 7.793000193309335 5.229736110413529 0.4184622090079309 0.9722734590735386 -0.7357273402495459
Ni 7.829443968143556 2.39268769992303 11.94935641483884 0.008259154684998679 0.5966915943689014 -0.6109442476331737
Ni 3.7335727778541 8.773651130294114 13.368405132703357 1.357975700041629 0.33874515549226175 -0.19608621103673327
Ni 0.6850097275417777 7.779732557465981 5.960732176900342 0.17500882154114378 -0.6407019385115805 0.8342185890489245
Ni 5.1072140910957415 8.609316353660093 7.3474544032460996 2.756329032569356 -0.32148791107371083 0.13415604919083993
Ni 6.724580185830401 6.098186385525847 11.316880520083322 -0.6971191409590446 0.437437207448537 0.08251569930672886
Ni 7.9072107049679685 1.9411095455856135 7.939870294840644 -1.780447030208953 -0.5966777104118305 -0.1649969458310965
Ni 7.998001118277937 5.335935372084146 1.2165802786909086 -0.33524408431753877 0.7381873717542642 1.3008069641401212
Ni 0.12385722764912292 5.3370988705598 6.551994891376675 -0.3233031099055787 0.4928866466660931 1.684366447733596
Ni 8.06354173805575 7.814872088041201 0.5816882479879624 -1.7166003680666373 -0.5465005753368072 -0.17423003439359025
Ni 2.580902344464645 4.474383516966195 6.10295203774992 -0.5675993049886354 -1.3787815810433868 -0.028147151858177333
Ni 9.078759839430147 6.0697182050811955 11.283756469125606 2.058132856496049 2.110412896846688 -2.4612062417527354
Ni 2.22984482859247 8.693472949048385 11.10537807822939 0.2631130706792436 -0.26013779010100363 -0.3102313643232851
Ni 0.6634531033646051 7.345728859942286 1.7298557546155897 0.042268164640591716 1.4442066434164158 -0.052698873055612466
Ni 1.3506059200341214 1.3281335099599818 7.915548485173347 0.3669128761757294 -0.19819014475361352 0.5392158687499359
Ni 5.42472719527061 2.5727015568217224 7.859655519691245 0.13463144616536168 -0.38094827122287295 -0.405107899188212
Ni 4.240173150427323 0.568013387678129 9.122985917778141 0.096144345833757 0.24717171685863887 0.8024829485085405
Ni 8.520721574570313 5.758191488224616 8.841306690042998 -0.24881182356522313 0.5040071820592869 -0.01578888740314055
P 2.4329785261686903 6.409009373465699 11.16635290479548 0.14194006401163298 0.4201383111587732 -0.17758763801191352
P 3.731442824999474 8.977723133092637 4.640615546759711 -0.1934955674914216 -0.3661844826501371 -0.9934459793860956
P 2.7474515214232986 2.230201384576945 13.305123951900846 0.010764694715671784 -0.42786884703381145 -0.1818340719930933
P 2.888863501476475 9.168152177958884 1.5196575570206556 0.20669946777620532 -1.023855187805572 1.258654242031471
P 0.6420381632760002 7.184162083714057 13.25969496625786 -0.28255035346824886 -1.3439670444673628 -0.04394632367396303
P 8.920317619592183 1.5619028730443711 0.06560160961726373 0.7638438959801038 -1.4368977684598288 -0.5754254859012735
P 0.271728500852628 4.759487558762741 4.635740112824628 0.0003537837949929391 -0.40803484302701987 -2.1813933418203075
P 3.957780810723229 5.1653420996173685 8.650157026766022 -0.9676644995466175 -2.1445905711696613 0.47807040758886693
Ni 1.4767329080159932 1.3714362959692319 1.154638997745846 -0.15742607546237403 2.256798141113868 1.5955934546632458
Ni 0.5486045441548064 1.1588444817522048 11.128875117606281 1.0362982986649314 0.8860018922688032 0.4287124259810294
Ni 4.694012620350488 1.511525265658962 11.927300612283403 -0.8540561926001419 -1.5885067230197931 -2.413436430567624
Ni 7.447150271420939 5.299069359899889 5.024839337324603 0.1469593716030953 1.387257736835198 -0.053215150570398675
Ni 2.9842328442712787 8.63736229675471 6.899056165307065 -0.5117197202121961 0.44752390226057764 -1.2645736928396996
Ni 8.084259517364186 0.7542970000722448 9.818523429914151 0.29514438808317556 -0.6280896490642086 1.3970451552392649
Ni 2.6193259433179223 4.954664428053838 3.3920625176188515 0.6949938670859256 0.8993806275685542 2.1377036142418406
Ni 4.840848004588572 1.8444078093751406 0.2185219032219774 -0.266648851746644 0.1389043625091027 3.616881888637435
Ni 7.780999269516089 3.665104645782703 9.874279402833798 1.3557871770307424 -1.349392072137676 0.01871094614594197
Ni 2.573564797626241 7.579620202705574 3.0911846267301812 0.8657076607961413 0.10448243338580715 0.8140099753115335
Ni 2.7819060891862386 3.2879716277827487 1.8203834424633132 1.2214164407259351 -0.23662145214661828 -0.17326484226684352
Ni 4.968973582693947 8.603395647707366 2.7234553036681404 0.029350942358291384 -0.07426605770342694 0.13360968976906668
Ni 6.889815735477832 3.074619786335657 5.67356011039384 -0.4784987533755372 -1.4524051200668082 -0.6919139426090213
Ni 8.379694299658281 4.8150633770797056 12.753481175436225 -1.3802890188268488 -2.176141606503065 1.4572768463368129
Ni 9.420302940348176 8.000881715310404 9.834192188821378 0.5240414750023427 0.6228111742740886 -1.0411214310851875
Ni 5.036043639984115 1.2851966629874296 5.171946830077154 1.3114829557967285 -0.49063667428965174 0.3260169092923159
Ni 1.4762825215092883 4.873463494115799 12.53402659682328 -0.0313484324042944 1.6390337852350674 -0.11727084339972707
Ni 4.880866722319763 3.0731466471366424 10.284787937591043 -0.8679869437486213 0.6385812926241518 -1.4399139295783332
Ni 2.2162957011824256 6.218805521852804 7.570134875213321 0.09482382725012056 2.0426959531156883 -0.30855474795181054
Ni 3.990987432540507 1.3170990405457068 2.711823133827259 0.2169409429985554 0.6364891859818136 -0.17637921952610916
Ni 3.6778186815448985 7.1621306770943995 9.333073395356843 -0.2613348957328983 0.8466385599798322 -0.2102121089151541
Ni 4.3230255015566135 4.947054772700966 11.536732940110523 1.0061572563051768 1.1634645468014995 -1.3573912882930685
Ni 5.979181134181249 6.100119294283789 0.1607269930542686 -0.6462465224788935 0.20681156787403734 0.004531826432082517
Ni 4.95249694299032 6.069286584678937 7.0715025905878885 -0.5716364511724864 1.5029003006028827 -0.5530116369824476
P 5.38443636902495 3.0467615042855023 3.709900275400636 -0.1959795102555399 -0.35093912645529235 -0.12511656469639099
P 0.17433429538809625 3.5942063031855427 11.13826849118675 1.1280123766414767 0.4422405423744513 0.22895005164428955
P 6.19104107032488 4.219624266058903 12.721702654167293 0.12519549756344245 -0.09514572936591356 0.04873963129754832
P 5.824670413224733 7.616542513203169 9.552459477688561 -0.051183207742034435 -0.18031017914939915 -0.32582793320996145
P 2.444632277029685 1.4598152648578833 9.998687415648412 -0.16011622070002748 -0.13940161386049538 0.11480644101963455
P 5.9202837153773356 8.228852352120965 13.4043450376332 -0.07198986007474054 -0.02929540653000761 -0.6012018235344292
P 3.4124002833122535 1.7731529107935058 6.640174939558199 -0.39477437847268787 0.4672563476924985 0.5418702756536474
P 3.1655603284811935 6.364674451711917 5.371172486402485 -0.3215218496354398 0.5922646689457993 -0.25165340677907627
