# total energy = -381163.07161004917 ev
CRYSTAL
PRIMVEC
9.26857066570526 0.00000000000000 0.00000000000000

0.00000000000000 9.26857066570526 0.00000000000000

0.00000000000000 0.00000000000000 13.56549005074520

PRIMCOORD
 96 1
Ni 0.4469740344410454 3.305051768476093 2.2028454072237817 1.0504828176954297 -1.7800744773608828 2.2663065948249352
Ni 5.909742540108894 0.46842614099046503 2.5871018052906822 0.4413028610515303 -0.4010833514098512 0.19168011154923761
Ni 2.8473604859023647 8.654981915636878 11.986765168450487 -0.7572572439015216 1.5687645073958594 -1.3408089584543554
Ni 0.783378656446877 5.953721907392107 12.338708548991683 0.48786836751589524 -0.0703590093395369 1.4249904754992813
Ni 2.294666355140453 9.063531237128288 9.287259700611768 -1.1004689198055693 0.1351981173021091 0.2513255911260123
Ni 6.686161426926064 3.1272157052383673 0.3869072092456148 1.8569774584665246 1.180737217839018 0.25471661908543225
Ni 4.119351303151321 7.656200752636028 10.06081830655568 -0.2222721254034817 -0.11046307644927428 -2.7020412177600686
Ni 7.538897723692647 3.9628422207605243 2.71806299980383 -1.7807663612215847 -0.958813991134523 -0.8707272254979197
Ni 2.959482383905532 4.552768199441649 12.026484700706648 -0.7542364547973269 -0.7043917633610579 1.1731678901321925
Ni 8.43369479363757 6.518446642734338 0.39628051464783043 0.5066705878240629 1.498915604923522 -0.031229647438242986
Ni 0.48267471450458166 2.0183702668975494 0.5062002002871425 0.031849026189796764 -1.7506957670884495 0.07609179805825604
Ni 6.652321875829959 7.865522150048902 4.551520649844954 0.4791870376918134 0.11345326942584977 -0.40811171901154236
Ni 3.993039223628534 6.728500257221051 12.041230996459564 1.7008310210475224 -2.7444309955801893 0.7819933131956209
Ni 5.602053803396393 5.2478275739275135 4.108322631047993 0.5810906546068508 0.7618703171935007 0.13941806892072764
Ni 6.62386736422628 7.964241695029618 0.6500595375845514 -1.3085339004707335 0.8993310052775415 -0.17123418499005993
Ni 8.13361555335068 0.9811338046642344 3.6624515565029854 0.9333677831472763 0.8136021983501536 -1.7077652862735102
Ni 4.461120573794355 3.9173891507590746 0.6991820346687032 -0.9916212674725309 1.4381277842121878 -0.05841957758947359
Ni 4.706144504984875 6.485107594448201 1.0998929260417971 0.2854366738771084 -1.7650327525364118 -0.3610584742774814
Ni 9.022332441011558 4.25301335912418 4.365632052509092 -1.5902949252684675 1.0273729711508435 1.3444229010578588
Ni 2.4797226348404804 6.474476544021679 7.733469117924381 -0.1671330183374928 2.006873544100441 1.1102326840605523
Ni 8.771552727506418 2.4441498610506027 6.8491751921323205 -0.29268255680624433 -1.687919712302493 0.15701649872878118
Ni 5.182261705821833 2.8156341688927893 2.595309124517086 -1.113167084098528 0.4875492936135797 0.5211600396894897
Ni 6.224855401835907 8.876667586170047 9.774803195228861 -0.44431233730181546 1.2175237905397482 0.9228622556302624
Ni 8.804280050135928 4.411441035619851 0.475741823729483 0.47874403661712395 -1.7128041342489988 -0.3062314991352726
P 6.658374252402338 2.372707719213088 3.9818780109662697 -0.7705642454230729 0.5862390315770096 1.4970574686688602
Ni 7.492944150881231 1.142304978044169 8.408337838313352 -0.709882354161984 -0.6990528676466478 -0.5718241417032603
P 5.666905991569341 5.03766273659414 6.467130274999831 -0.14533083486073678 -0.04139501800701904 0.06631492117715031
Ni 7.083931400862073 6.833791218725223 9.615938042202997 1.8233132334448596 0.4834409278721609 -0.39745629618022515
P 3.7071223591495976 4.551934028091704 3.1248781717444105 0.8043392849909888 -0.22009157281239516 -1.7601150035198205
P 7.631731726370974 1.0732355902687205 1.1876384834854594 0.17925037042631708 -0.13893675840893494 0.09602067577169915
P 3.8013003045583913 9.617995664866195 2.0253411588119232 -0.11917911616603344 0.43722123478298897 2.3345943234577406
Ni 0.26020492290246416 -0.3238290254768826 12.83317010467099 -0.6244723640265956 0.8855848593360425 1.2748539917197852
Ni 2.010408564790852 4.6801276274371455 0.8192823182055666 -0.09594688511097024 -0.7564640585762649 -0.29332584681719803
Ni 5.290880084155232 4.052348806609626 12.072716330634712 0.7229492146482711 0.7922265608878549 -0.8985067096040333
Ni 8.37429252495093 2.8315112302534096 9.938552884937181 0.012652398656687885 1.5822576567862878 -0.8739161647488627
Ni 5.265706646528002 6.113187663789931 8.43682571677103 0.45519735964543534 0.8168875539696449 -0.6598646274829604
Ni 6.115894086391976 8.151939517337805 7.441648174001945 0.1338572870034985 0.2838019664871629 -0.3380668984783145
Ni 0.2023291877862225 5.430168162454941 2.5739432156738276 1.3028479058295497 3.0923948414572417 -2.4732654869101145
Ni 0.6954848018743357 0.9904116437897339 7.950353668910089 0.30249877156571775 1.601275078429055 1.5889232417319215
Ni 8.203111295371654 0.7702080176883005 10.778555092618328 -1.3976696761971412 -2.206974532723522 0.2585120815721225
Ni 0.05484305883066374 5.462394982274485 10.3130958210625 -1.4602858083664658 -0.041150763206696875 -0.1105792903121644
Ni 6.079459335540488 2.1026586475242173 10.72111868774639 0.651937916436716 0.5160008640860533 0.15058051329545033
Ni 4.733588742398067 7.405810319094195 3.203165152936752 -0.1715314045155046 1.216441356108847 0.7334645123572981
Ni 2.9112023998848247 2.115273172049497 1.2260641232921496 -0.24940806238832527 2.262673883168355 -0.22582281886921754
Ni -0.05077879064232046 8.739520547668528 4.828582322015695 0.250039268214421 -2.257137783841474 0.709129020935727
Ni 1.0379594107366008 6.358359892109331 5.7854917906775265 -1.791028662379541 0.9386503717024545 -0.3417541175219146
Ni 1.4647029362273682 8.528679104684645 6.961266503852657 0.3491131289901471 -1.6363063590015754 -0.8753474978787505
Ni 6.827460785036196 3.0604912658133205 6.128263920654605 -2.804591724230486 1.3210821694493893 -1.7228365787843363
Ni 1.876765045959103 0.8804057604442609 5.267398160654278 -0.680926333249266 1.354980621969047 0.8451077251576027
Ni 0.15980405922308036 6.350713321401502 8.14873537249696 -0.2640168134404356 0.10285672485692608 -0.7504371356558946
Ni 7.122664757211187 0.8284285436291862 5.811686624779911 -0.45834387569421714 -1.0095158883647646 -0.01187721105356019
Ni 4.143329095176964 8.302516714573438 5.549437982070081 2.610699435521278 0.48052812510074017 2.2156352937223134
Ni 2.0624793941685313 4.845024766180168 4.376783069743746 -1.0567110579933285 -0.2589023750320057 -0.4756222031586906
Ni 6.870819158092228 0.6894250104455127 12.76614350984585 -0.45208709615122783 -1.4096774992912948 -0.8996747617702054
Ni 1.6449395592388243 0.5033223091298321 2.706613534597307 0.47442226931331843 1.1235607686280262 1.8837920075562073
Ni 1.0873145489416816 1.3342292685254105 10.529112833844266 0.7055281909583462 0.289068871313057 1.2402901377019866
P 0.39230337102270363 4.145794534944579 8.792988150628839 1.0436843067163575 -0.5536014480476467 -1.704694617767987
Ni 3.7740692442679635 2.0837693007332394 12.305160957868061 -0.9605237747367781 0.1525882877540985 -0.6761227412130355
P 4.305473468465167 3.494853556300252 9.812665305945812 1.7714743943966977 -0.27455422263664975 0.6695494588708921
Ni 7.656311975482688 6.4449190725219605 6.220251702841265 0.15150482488193262 -0.2689839276377239 0.162186730075811
P 6.393376551665913 5.769370039054255 0.006380483970023985 0.15935697393649975 -1.7575883804432249 -0.31667274907325466
P 9.089344206123808 7.868645658325918 11.226162170428276 -1.2141047375558702 -1.415404374472743 -1.188956520425017
P 1.754540406051046 2.7751675898499 12.524894667442359 -0.2713560274143262 0.07298487699815817 -0.2695415999134067
Ni 6.571166272050863 4.755944534576593 9.866330329458942 -0.5652197490128653 -1.4997044193734044 1.2341575424416875
Ni 7.779667380998448 4.3985947968306975 7.751497414510805 0.3216344639539041 1.632364343634692 0.2297823177375978
Ni 0.7809020943945958 4.097097465248899 6.463019663958712 2.307884418266722 2.282277516331895 1.6980056357835853
Ni 6.987677295648972 7.213506017220201 12.01118321757749 0.38998261351099933 0.07142370315862538 -0.9278609943964344
Ni 4.098256036568267 0.9723935426309214 10.248592131142418 -0.31247593738308765 0.17951519405192956 -0.6069389831285225
Ni 2.573335197445423 6.895797955737804 13.70128017941706 -1.7102538570233188 0.20811614561807384 0.8227368136615701
Ni 8.820277602913762 8.570971592126858 9.188014627680586 0.814522653281894 -1.1897643610382929 -1.043277815306558
Ni 4.386758832232033 8.601956423492037 0.3410064672863617 0.0433516275127576 -0.44992094173784447 -1.104677301459962
Ni 5.152314954358807 1.569975360590431 0.36757760535327744 -0.8149219456028417 -0.538158116909383 1.602896673192878
Ni 6.098951139417537 3.0000231115128604 8.383160693257901 -2.073611154637306 -0.3132531818687444 0.3580934781118865
Ni 2.805744604110663 5.205025315104778 9.867645539620689 0.5292489873452111 2.6180738736084783 0.6899848439071086
Ni 2.7062835734855506 6.385683638105308 2.457958177463359 -0.8564766291161765 -0.22735776745650518 0.5313948300436203
Ni 3.348614050084334 6.177465200588474 5.616343158620951 1.9181843689931481 -0.6006014709462689 0.23973300119240648
Ni 8.18021792610094 8.310228165275152 2.153711787854964 -1.3804520267672744 1.046652388205746 2.2132932758526978
Ni 3.688418383769719 4.708267007641958 7.896295658005429 0.8669091373034102 -3.3429555293927713 -2.0286243055139708
Ni 4.969334834463087 1.1583859479569982 7.016505330646017 -0.46506191114434103 -0.38567704415710996 0.20749625264588784
Ni 4.020724443876154 1.079862618215506 4.560039393042003 1.2028286504214187 0.711540201480381 -1.0184227039360911
Ni 8.414277138324962 2.297919623405239 12.3109538144649 0.5281488123024969 1.8714337431011705 0.1390411451972831
Ni 2.317318741576738 8.10149068780724 4.528160144618271 -1.3681647247594888 -1.440396011421074 -2.0594024672370916
Ni 2.201405998216599 3.1492749031591365 9.543227033056512 -0.7053266164705013 -2.434360325204485 -0.894837231172246
Ni 7.889991176313956 4.583771567947939 11.937129192557592 -1.2524576263024558 0.38637638421697973 0.10054376045303329
Ni 2.311303439286579 2.6479379218421735 3.532046476223135 0.7389018813227856 0.049161806436631456 0.3752602196991602
Ni 3.007271133686827 2.6324964832976354 6.863581331345872 -0.5757707850558342 -0.7619266243527331 -0.219641372648854
Ni 0.8809739238192791 8.082527192451824 1.616680614473853 1.4182896664403382 -3.4063987854490816 -0.8306475838682145
Ni 2.146684357660205 9.415292026829553 0.47499663065686537 0.6682194272055589 0.1516601195128743 -0.9771266734007817
P 0.5642844782408704 2.549959862505852 4.959176481134867 1.3397092976322733 -2.778541049890021 -0.24662844276065912
Ni 1.6361807600644014 7.123471122849467 10.453213436426877 0.8331520954576233 0.7042603799895162 -0.5335720402005972
P 5.149599263186208 8.52623220205814 11.766150017816415 0.7824828512375298 1.5806052087845293 -0.16628121186015882
Ni 6.986731901452367 6.199264878533704 2.4109535487510123 -0.20946803166027794 0.5771864344564382 -0.13454968508483278
P 3.6891969436963348 8.605265303180154 7.869516903958083 1.8545140845276964 -0.4437970882282937 -1.5230582636079961
P 8.609843977034297 6.440553575790581 4.12291877595792 -1.2560610273829982 2.3322551338016027 1.4948095531749481
P 8.329284346336118 8.672851719666811 6.9228631086152985 0.14367093065981063 -0.42414383277374046 0.3566402906051277
Ni 4.198940518506632 3.6605941349637745 5.023897982462992 0.3263179854725025 -1.0762054192725143 1.4741908484833322
