# total energy = -340864.002124818 ev
CRYSTAL
PRIMVEC
9.34088366275376 0.00000000000000 0.00000000000000

0.00000000000000 9.34088366275376 0.00000000000000

0.00000000000000 0.00000000000000 13.67132743142522

PRIMCOORD
 96 1
Ni 8.896108161569979 8.22007104619901 9.354318671815953 0.8619335384656898 -0.7891679765671893 0.04857739468807118
Ni 6.100204199709045 3.687052287471467 7.0087153599017675 0.6800256758118676 -0.40633405828582925 -0.33564003420437677
Ni 7.92049956573555 0.8383116170812825 10.578900115314037 1.4891762661485708 -0.9684072912499129 0.7502972676439207
Ni 0.6371351371137852 3.927000907413013 9.360361289467782 -0.2418078814435642 0.44149363690609766 0.8494189509384468
Ni 0.567798691654267 5.924436791524675 0.784993853042574 -0.9026973506466132 -0.41745947877502937 0.00721451547056822
Ni 1.4308645845727923 6.381411502859942 10.477787851755908 0.5624121043607411 -0.657766607303351 0.10779992779481436
Ni 3.7218751018261105 1.1296304268145032 2.621763735613416 1.8426057631258848 -0.08631450422752876 0.2122707912163957
Ni 7.551142343307623 9.428781394238408 13.311347717991271 -0.6470512777683759 -0.3151390860375476 0.43879089326295406
Ni 3.94754151062274 4.468818865203008 10.725101758478203 -0.03895478399664258 1.9719188824021265 2.3460655573221336
Ni 5.818483147955813 5.939083297133067 5.850029180315925 -0.6580936516254666 0.5455564662559831 0.41790942182825447
Ni 8.692327443232827 2.0463354101702884 1.1091682870276787 0.18001887316122547 -0.03039481024177346 0.5024583495149282
Ni 2.307534540481152 8.58109620038543 12.057646069624465 0.8622739525242439 0.4598947651211047 -0.820309178056684
Ni 0.4214373193791932 0.7878951315132156 12.643899545162977 -0.11089296489784127 0.6864017545415404 -0.27544562410266754
Ni 0.4620318657589801 4.746682131996888 3.9501933874991573 1.6548828364521821 0.36555199127246074 0.546130336481582
Ni 2.7658076346477745 7.260024362573496 0.3535963493966542 -0.13294943047724847 -0.06525691222628116 2.2288052554453683
Ni 6.466161340477883 2.0692672796017932 3.3803723945284254 0.6533232268200166 -0.7581370754033137 -1.014513341579356
Ni 8.083273804722682 7.366389005024228 7.197830890863171 -0.8972967484563321 0.12722795461243894 1.7734721415530168
Ni 5.461932277051546 6.351203085042635 10.677252147745078 -0.4197634443178577 0.09649658696685316 0.5707553341191138
Ni 4.349526439740789 2.8782064879550244 12.516360053500728 -1.393098254776375 0.33713873023709034 1.313026131914132
Ni 8.690758174774786 9.310983510164801 2.3546677054361136 -2.078731249472691 -0.8351724683217616 -2.5583826283954325
Ni 2.9779951482958658 6.837508171129399 6.5238207472505065 1.9905555236667074 0.9234384398487065 0.5136927847781669
Ni 8.456675629783538 5.553519641522384 5.772280335015261 -0.19206706257501113 -2.445021147352441 0.6851799663192975
Ni 6.914318257620342 4.248504782754343 4.421006618004596 0.7720968800175154 -0.6121133282406103 -0.01700656186032555
Ni 2.5961865279240697 8.291575510760383 9.275858985267332 -2.2102334059804516 0.6582507460286212 0.14505084172647278
P 9.57767508007881 4.234764342862798 7.263426312409323 -0.9920840660415624 -0.25668068479033856 -0.30888950558340994
P 1.133292053216601 8.13673168201657 7.12196890406563 0.6219804508426772 1.2065644633147672 0.27950488177370575
P 8.72461887811051 3.2436498801215263 3.115736753112124 -1.8023777688437732 -1.9224346596290698 -0.4063646544134486
P 2.0155011531465012 0.3557550276148297 4.262624462523248 0.7271162015417671 -0.6578609667893702 1.7787727278303236
P 3.4347643601901985 6.6131214633967685 12.195425972063807 0.9640716399890364 -0.829372573810533 -1.8553304097814047
P 4.112034472206773 3.301554018046536 0.9610919285091734 -1.32131125474106 -0.3131572797208284 -0.620032583087687
P 0.5391277832904947 5.594301939664115 12.292847652480434 -0.4553937919269576 -0.0067134074644335994 -0.35151016846741395
P 6.888911054013949 1.852913731832948 5.962093629987473 -0.06859574679152702 1.7990173370119726 -0.44466354999364704
Ni 5.124810444199229 3.917790796105696 2.6246762231444727 0.7148317277474592 0.5066194228711534 0.10200594682085659
Ni 0.918679646165488 3.8609608598037504 1.7060040496859277 0.8786768193622996 -0.7747147772563368 0.5336185771678164
Ni 7.633556960005857 3.5536738094215856 10.495259040588774 -0.41276644417473424 -1.3760605825677976 0.7236652668786892
Ni 9.474178088917478 7.798423556937043 11.924514190903704 -2.3768735438419255 -0.8518825819875909 -3.244839147434309
Ni 1.340173944935122 2.402820894888802 7.570101534910525 1.7235827129217416 0.47787603218987373 -0.19384420908009198
Ni 5.5559949756972715 7.954257519350809 13.107644528988654 -0.6082469033066686 -1.071432166253587 -0.7880870847981847
Ni 5.963696525626759 1.5179870066451528 11.611208809167275 0.040311555134853155 -0.08400771047122306 -0.21535174413456462
Ni 2.642414561250553 4.629967790430023 13.103393492826422 -0.4412930908595174 0.5748127920179391 0.10508201464301903
Ni 0.8724067765973459 6.275233678082787 8.03663477251433 0.09748311924983856 -0.8524813919138544 0.41134436701622706
Ni 4.5117869301255835 0.7464711146627494 5.164289689067765 -0.2685969766119503 -1.5990919547348073 0.07271388272495864
Ni 4.87284010696304 2.860402763663192 4.814836021582668 -0.21926599158730625 1.9380641386362107 0.5426377499472912
Ni 4.597106561647932 8.439749948557514 1.5190210424683985 -0.5424204917301625 -0.7258195942175306 1.895410308521426
Ni 4.264234830869477 5.2548729085431285 8.183903144594616 0.08524878196717577 -0.45049172663965 -0.025889466172252188
Ni 3.8587190477208337 2.862308303933671 7.040569641423282 -0.7654364372782043 -1.707740860793478 2.5529542582910096
Ni 4.938543882759865 8.73514605401654 10.479428110929907 0.09184469001713859 -0.39966153136166005 2.7457417439718133
Ni 2.8790471674861178 0.535298955070546 6.834775028564976 -0.20156214654963997 -1.8793733096632212 1.8875339910971427
Ni 2.9319072282245644 3.2576331829887213 3.271712696957808 -1.1881844181456829 -0.3211351557199824 -0.7321614772751585
Ni 3.76908392793887 5.25905762443124 4.040465555548017 -0.50252596952807 -0.019096097399502594 -0.549221573812396
Ni 0.8120385135578636 7.7979378309857434 2.9935692036535637 1.9164445034839057 0.07095910481738102 0.20564094460470392
Ni 0.18468047939069993 3.584209158167651 13.076624388379658 -0.13270157613250047 0.5862498302102872 -0.7282521149184231
Ni 2.8173973352059014 1.6313573118549998 9.422483770462147 -1.2128526103163242 -1.3126674630231328 0.07342453563873808
Ni 7.293959792978652 7.21770081862476 1.070258836063551 0.16867773711679337 0.508492214413834 0.6443397923744838
Ni 2.1102644180681374 2.228716163999263 0.2152494553180086 0.9348065724763319 0.11401659812848751 1.4894986824849963
Ni 3.8948495857905123 7.3755430710294725 3.515828285108476 -0.8779818501778041 1.4430151942114762 -0.3550955718258272
P 6.641676544802923 1.7506497373172192 9.172831840555043 1.1966500324145326 0.16580118689994672 -0.5620374946301417
P 1.8257504420949375 5.900645560794718 2.562211865807463 0.9961214693357295 -0.5289813355061213 0.6085672627605648
P 6.252012241257239 5.950283016663972 3.328353013321073 -1.2184185344398757 0.09656369275936273 -0.6313652344916868
P 1.9392141561415728 0.10764621169146558 0.7021794465228852 1.586708750579106 -1.1894504293422998 -2.0915353432158943
P 6.4613788080343255 0.33981013917508274 1.712442720805739 1.0561325597820392 0.7496688900313024 -1.6840360609773706
P 6.226539651465095 6.531715662135846 8.616381388482175 1.295252352870479 -0.42802259900285644 -0.498548987158193
P 3.6474095771385517 1.001959228692382 11.705622725039325 0.5534628655872532 -0.26918190258114283 -0.3184714928448902
P 3.9538185844549076 4.525985073317391 5.944840083744323 3.7296705278960927 1.1656060186245343 0.9089757274561572
Ni 1.174289191682945 6.763154737045986 5.202609730271758 0.20844010461639584 0.7141506425200346 -0.8997449528865086
Ni 6.685597379860738 8.967351081388344 8.535420213284365 -0.057986603817113035 -0.0029074034547820894 0.06507822055657178
Ni 7.792258573709021 5.869633826981034 10.588306385178608 1.6620130197390601 0.5637961291924612 -3.1778652525169204
Ni 7.279612195647983 4.553811565796598 1.762753654388235 0.904258524486146 0.2598639676143267 -0.0394386656115966
Ni 0.32637421209146705 0.7141469866921905 6.101936933631466 1.0873305826513984 -2.4031278495527646 0.7824946783120718
Ni 5.220582524558177 5.413499795176861 13.157463198001276 -0.9240336502305442 -0.19284970637730658 -0.4066891276324028
Ni 4.5171392564735475 7.716513347957464 8.231615444337665 0.5479190529508885 -1.145250080676002 -1.733137960710344
Ni 5.028692751144163 6.254889233430315 1.4872489607232577 0.0362317286385247 -0.5914249466533233 2.0269844559177024
Ni 8.516270467654413 2.075581716968676 8.037195225535058 -2.080089306162482 0.19071183409869738 -0.015130427883535231
Ni 1.5057317672585402 1.0106369096300063 2.4076716157832134 -2.4628309218403523 2.432778325429346 0.5167565113051551
Ni 4.708702098958803 0.692019367345432 0.1819734913005777 -0.6022528905067627 2.6939499561115023 -2.026645584521045
Ni 7.063230625228102 9.1795105723854 5.58079969230638 -0.5353759261785555 -2.1247979619237665 1.145282219465518
Ni 2.322694794691878 2.2243633122049324 5.387788078762539 -0.48998695652079477 0.26278576924681196 -1.693767686442838
Ni 4.8881124517779115 2.770113782023711 9.365297012403673 0.12152807601418425 0.4103130975382353 0.04857739468807118
Ni 7.489352397772223 6.147870729122066 12.616939886689165 0.29971915193805154 -0.05738368012579149 3.462953027695042
Ni 1.8000816937455382 2.3768532382616803 11.62799717940322 0.8998706798310954 0.5663770025457601 -1.870636701121172
Ni 5.831849952500204 8.99131044802452 3.5132987738082515 0.02836415296498986 -0.9480048163341608 0.9446598111213278
Ni 9.065280905877101 2.7486204086787445 5.4516330187072795 -0.315191793652354 2.7627747881947 0.49672787478905417
Ni 8.391635056727909 1.0011278900449667 4.170835334964949 0.41792356289564153 0.9979279264168492 -0.11939791704505887
Ni 0.4330704559127965 8.070261953758083 0.2959995265446778 -1.0416891306631995 0.9048989862836222 2.816896252629452
Ni 6.32748658138211 2.511446031189808 0.9010842235796934 -0.7199960455572181 -0.5593424642964818 -0.9277095564202346
Ni 7.755203288155139 4.9010308939057206 8.420758063861737 0.42028614959054716 0.31252478834315206 -1.1700771670220107
Ni 8.326482393068135 6.394993147728947 3.1274530235104683 -0.2042839163561772 0.5216377506568565 0.5223100941335328
Ni 2.0147538824521956 4.7515393915098745 5.994986617774072 -3.1625453343303986 -0.9817729139235414 -0.034436584411314884
P 2.79641771046327 3.790652028353267 9.256240327276704 -1.1778691522626037 -0.43824993315781946 -2.0493705369223862
P 8.585542461016548 7.509846296563556 5.189498865940166 -1.3610093446616303 2.3925644722146213 -2.4263991613758793
P 4.73533295832712 7.911214727358803 5.413490454293182 0.23123961900941464 0.47279244701937934 0.7899920151303814
P 0.8216194579472299 0.3599574911819311 10.244280705199275 1.0007144880230507 0.4322353515326234 0.969231329813105
P 4.488658902136823 0.3640796231493946 8.778537260969767 -0.7920722946981779 2.3693952331870096 -2.2412475949737787
P 7.886778975655008 2.2076898348382374 12.640304239035 0.20456648059360255 -0.20564197304596843 -0.22941824952995973
P 7.007073232551032 7.9691095244001335 11.517464634655 0.600179810027818 0.8320786598877864 -0.6906990963653137
P 5.894219032823691 4.096164310836456 11.7595289647498 1.860777291828589 -0.24530381041196467 -2.2276546867806926
