# total energy = -340858.84360726736 ev
CRYSTAL
PRIMVEC
9.31032769678436 0.00000000000000 0.00000000000000

0.00000000000000 9.31032769678436 0.00000000000000

0.00000000000000 0.00000000000000 13.62660568658599

PRIMCOORD
 96 1
Ni 3.2678690551824445 8.775300124951794 8.146162199207453 1.76881973038267 -0.35847811514481487 -1.1415052689215888
Ni 2.0424903145263724 8.745963283316668 4.181364862421038 -0.17249788219383197 0.2235453356889505 1.309436871900977
Ni 6.400822156021942 8.252171449041121 6.109637942478538 0.43807226992937454 0.14675394046050852 2.2412727917847595
Ni 0.26503429697704833 0.10956579490019215 11.914027490844324 -1.1799000666497033 -0.4684688799433609 0.022327974073238964
Ni 8.656584140283591 0.0283704296510822 5.110549502360156 0.9507409843184013 -0.7191144142832131 0.38153911072933644
Ni 7.745382397716181 2.1529666594462142 4.545712421766193 -1.2131452018560784 0.3083927684526495 -0.5890227649697339
Ni 4.275898202702355 0.3987129088086325 10.279133999530975 -1.1965836979529716 -0.6688395772880611 0.44249148204299277
Ni 5.908752732315261 -0.08175398489306669 4.127185274186416 2.57268541817135 2.3265837944484384 -2.9363237373608655
Ni 7.443550893758964 4.817424085554004 4.486382360414289 0.4821540907399374 -0.5233619324368147 -0.23931673959059432
Ni 9.432292688209298 2.806439918946791 11.894554941088733 -0.3425437033027456 0.06449072348421796 -0.008613195590307748
Ni 2.222105150713258 6.349466390087519 3.045206058199514 -1.0563570170880192 0.3325104874364596 -1.0112125593408974
Ni 4.302004360729932 8.475339996801832 5.126001852744739 -4.071350854757279 -1.0951608773290946 2.032506928397829
Ni 4.560775600465486 6.359167751237568 6.957812492683793 -0.3613472091624938 1.9280581764634341 0.5095013724046386
Ni 8.182027442414956 1.7861304495872319 9.561734170041474 0.10176709133717313 -0.8841105887833614 -0.13313043613980297
Ni 7.506898361383655 4.2371579303939555 13.1791212950875 -1.2655355425323365 -0.9115362890944817 0.0208102518771319
Ni 3.512339632032706 3.6204604641205305 1.9449255316438505 1.059171346608363 -0.10161333936812822 -0.7360898657952871
Ni 3.215163291775128 4.297432989976887 6.415664679961871 -0.4859760355891888 0.18508086106516514 -0.1350525928631803
Ni 4.5629262860947195 7.41094612720669 10.018906624590176 2.6214049948642404 0.046731342618267904 -1.3232249268240048
Ni 5.6196484459128575 2.856129136276741 0.3712269602604818 0.6429886776632282 -0.6166816643375831 0.9899742187874112
Ni 1.1175372183902266 0.25257056168763387 9.65816961021046 -0.5851314003351278 1.194083557238937 0.8230234916640536
Ni 7.680889759821377 7.297741856358859 4.643946617188723 0.038409710126449975 -0.3509756361201826 -1.7505944656238948
Ni 4.78958620663016 4.7422711227870264 12.86479626279319 -1.3813357149238081 -1.0358049039682806 -1.032880531232634
Ni 5.906667218977822 9.040402387318858 8.60187665648543 -0.48358542386982517 1.8006463879749632 0.6657750794301243
Ni 7.756917893363887 4.264642016876627 1.7943375031896962 -2.0401883562024863 1.8265376539194285 2.43365404316608
P 2.6170864803002596 0.560334606263672 6.133389518706839 0.1935745003584731 0.12127353680121694 -0.2848430061571675
P 5.16007206482966 3.5383619971136904 6.34274898886894 -0.9625629166539937 -2.1369047724896295 -0.9248245215629556
P 2.9789882166376236 6.059561415528778 8.272153273705452 -1.5160360666538921 0.9924995563124263 -0.1363862240729393
P 7.249793670252573 1.6381707265578942 12.918594127604443 0.8280417708142512 1.095405646350049 1.1048379954075425
P 7.9887078042963315 8.651658977089374 10.231413916445973 -0.6853146921249488 4.03232279432054 2.0566948384979415
P 4.161427727328222 6.246633823962486 3.6076029019821263 0.2560448509785526 0.4495663866119032 -0.7618209520128041
P 0.518459546719936 7.499059065713463 6.304839197764556 -0.5963501518690826 0.5100947830142635 -0.9215412228259935
P 0.1085789001958686 0.8321356491945162 3.0225307558185706 0.6045517138432686 0.05344372164143699 0.4022313489713654
Ni 1.1058248265219341 6.772965252498512 11.005895363220455 0.29021841153646794 0.9432349057493434 1.8442055035128369
Ni 2.6519071047735623 6.55032739339956 5.543044003104331 -0.8700880492520242 0.1907383164612586 -0.31256078378741003
Ni 6.625554838785732 5.674262826437026 9.470572099311433 -0.19557147618384385 0.08607796273669047 0.33557601373566076
Ni 8.754947749256973 7.010583428382905 9.579803653457992 -0.5585567351703928 -2.652672437518954 -1.340578073390472
Ni 3.3661209402270336 5.730478583273871 10.683095139894583 -1.4257651488817769 -1.4737018246620555 0.6842314863630989
Ni 6.767267332130153 7.384244108225558 11.59279326458701 -0.6298567682669604 1.0243238999118747 -0.6643913117087202
Ni 3.4497183699451575 5.652039074934947 0.799594192868557 -1.053929124372817 -0.2178696254604119 0.8490492263038538
Ni 6.278223764828239 7.034622693727842 2.630207524704063 -0.8044447002206015 -1.000147302665671 0.12077628544982423
Ni 8.286042420119697 5.911853071339221 7.46179261823237 1.4496170157987098 2.379003445700735 -0.20008967576917153
Ni 0.9136708413936998 2.7522910547925856 9.561693204600916 1.0298219469119683 0.5049178667990143 0.055056831764827764
Ni 4.873900531558029 4.2056517824747965 4.225010746236117 -0.30231236658652455 0.4701375258950355 0.08923784852191083
Ni 6.262889655601627 4.877978454958913 7.313072241454511 -0.46536838664116625 3.7928582162981708 -0.8520569027819261
Ni 1.207763601216637 5.212256449902617 9.255544501828652 -0.057614050969042714 -0.6090863684888285 -0.7850251580434092
Ni 2.8633073987015853 1.7061454269000285 8.045719594125814 -0.9721991541921773 0.9094331267085498 -0.5537192045724334
Ni 7.9962026178527505 3.8167873379891213 6.697381221572948 3.2962581253362324 -2.5618333059481944 -1.6147096066674063
Ni 4.03547761827078 7.764785120016278 1.4226859919998074 0.5006835170026925 -0.4857798604179827 2.030609711375116
Ni 2.7914409815065526 7.160600733767483 12.721458186284854 2.31304282253921 -1.4365730381305581 -1.282345929221456
Ni 7.673255291353968 8.957223922333702 2.5267409252831383 -0.01944756720165038 -2.0488907690724907 2.3040017953828644
Ni 2.0571633905076356 3.7287116407919445 13.387103767827249 1.8213106011925342 1.9455918144718234 -0.5664245679542439
Ni 6.409797311634846 2.88739321568352 8.122615450181938 -0.6489495232323533 -3.0978985448842904 1.7702142967373513
Ni 1.277330367544048 3.4135384376715603 7.297360132935489 -1.0317811275208684 0.315597770841521 0.22254749055205544
Ni 1.2981203286266372 7.737701377611777 8.281133084482057 -0.8823673808400095 -1.979829909719087 -0.8963942912467209
Ni 4.7070594645629535 2.0221565594863478 11.897743728222986 -0.34013689363346583 0.5762667508556463 1.7549931089122226
Ni 3.3916312373010573 9.292302605433743 -0.04374271122003134 1.2338112148458622 0.2513343328767607 1.829865689851397
P 1.2365976851722031 8.029449796995575 13.501799553124444 -2.4544804929931274 0.7387537857806954 0.6407561887882837
P 5.59405435589224 5.136507626182085 1.0665817965339741 1.226264512846856 0.35532028624212353 2.0768440597523066
P 2.638341957752813 8.180481928066675 10.227448648006622 -0.5145163091207269 0.08738254048072693 0.9560338572862245
P 4.398785214045435 2.200021054122169 9.310582502249488 1.9755626498023011 1.9527117133460563 0.4984798244831544
P 7.643117761562503 6.4513399924904276 13.429591446913856 2.3536490260963467 -1.678077786511407 -0.7174156864245514
P 5.321056935890589 4.884970510835771 10.942246240988027 0.40656494334971277 0.29424810152115133 -1.8840491178723362
P 7.609190928519531 1.4489476324949528 6.467731754909598 0.21326477969854885 -0.4235985017932318 2.675537772152902
P 0.8103857933570611 4.889867743047792 2.10848563926342 -0.2525975158599005 0.09925846598270648 -0.05665862903430887
Ni 2.468270207150188 3.8623893215907885 3.9665271956172012 -1.7594855974659374 1.4721144255702774 0.14200922668667157
Ni 0.5746036140358066 1.0940938139988428 7.409970404895245 1.2557131571252762 0.8447259163381516 -1.3985826749297139
Ni 6.562412198363822 3.0026923101961875 10.706165200157255 0.24605688652790528 3.4380313247526986 0.03019452130550929
Ni 5.722434460400894 0.4479878165693153 1.6516539426975299 -1.3438392606402467 0.3210310260419504 -0.98063802898815
Ni 9.05509408395492 6.962700414568414 2.1919480692342543 -0.04261269246420404 -0.6260492215954121 -0.6144417192634708
Ni 0.4554500439798372 5.570266469387082 13.63750688529633 -0.375365892039089 1.166978730602345 -0.9423884985886478
Ni 1.0630252514674496 1.9126857299256281 4.90020872369017 1.2182233877099342 -1.1181671084162808 1.316918524990003
Ni 6.442821042920087 0.8771045305330325 11.011196663641606 1.8330098919073334 -3.4902139202935243 -0.4620578342106946
Ni 2.2975467336296136 1.5885187505375407 2.293398982773235 -0.5216639759091015 1.4980943945738072 1.3326264226435631
Ni 5.474863544526673 1.0052453596275257 6.437930327937247 -0.8470849034886315 1.5465933706154589 0.15561576172651265
Ni 7.620335390416469 1.8107283345761265 2.0398620091015562 -0.2813252228118961 1.7989407181377663 -0.5972569799540682
Ni 0.3074437693135029 6.324784712152032 4.512682173251772 1.2931095954958634 -1.4914146685607863 0.6048183372410939
Ni 3.030260189625452 3.317036894178036 11.055374167151184 0.6166484971068025 -1.1550462408308173 -1.3044293913840566
Ni 2.4147358246043353 0.98027506154266 11.998961883576984 -0.9064966697880453 1.3817229230598977 -3.233453531305186
Ni 1.6909137312748084 8.738552262706841 1.937689545189131 -0.17483964295313115 -1.3752139182967864 -0.9349253574423835
Ni 4.343537731258115 4.562265252849371 8.692575072910984 0.47907982268998783 -1.8602494443495767 0.9548994865714652
Ni 6.174255338760493 7.689073537605343 0.3218170527525095 -1.0365906330943695 1.0449544316780326 0.9260103143409406
Ni 8.333571641493016 9.101645720951314 8.19396421317357 -1.2109731339054242 -1.4134117695227466 -1.1741973598379714
Ni 5.623987058480921 6.312569562604178 4.993210515114306 1.0593340974384724 0.09827707590604365 0.1243640028010826
Ni 8.941861882124893 9.169499387037257 0.7725178987259746 0.026015450227155196 0.9027017215219871 -1.8110213034513842
Ni 0.002806132678142615 3.1710975121943417 3.3750104408278645 1.204577000571093 1.9198851537343387 -1.8144907500572236
Ni 9.322617031445796 3.265504232023028 0.686024957186675 1.4130726410157728 -2.1100336591303983 0.3610872706328878
Ni 3.744464714751524 2.0720506040190823 4.453093284798168 0.9455553263524038 -2.037360656945704 0.3425352186623133
Ni 7.981808851693466 5.364629268119213 11.386677512490817 1.7420584031284256 0.1412432950549245 -1.151494518923817
P 5.840554584115544 2.507243237643569 3.515814246218117 0.7579884656405914 -1.4592900201120995 -1.2948000958244088
P 1.5325264415582782 4.662295410427222 11.436360212591588 -2.0367937286986404 0.321340329752253 0.7139948336684606
P 0.7972982661318949 4.239708960101358 5.399460133952656 -0.5850565812331344 0.11449045244111249 -0.6402630512019489
P 1.9462587705274272 1.773235646139231 0.23563507614834583 -0.8343587141712145 -0.5485302041723263 0.11151440053192407
P 8.433964901839438 4.4115310522550475 9.075169011893244 0.16164705552225708 -1.6065756647063623 -0.036840565867117196
P 3.875367917985383 9.560495896497367 2.8084165014536575 0.009608469624041516 -0.7570474418835607 0.7446058736860982
P 5.301440076060309 -0.17509094810357606 12.547187478025155 -0.289760755173759 -0.34652531365831285 0.09476314921551422
P 6.442727939646095 7.216742007985133 7.9388603114005925 0.3917767292969446 -1.6341977972990047 0.054031475824106945
