# total energy = -381173.5929167913 ev
CRYSTAL
PRIMVEC
9.19805413845853 0.00000000000000 0.00000000000000

0.00000000000000 9.19805413845853 0.00000000000000

0.00000000000000 0.00000000000000 13.46228198519520

PRIMCOORD
 96 1
Ni 2.667325279782599 2.7993633447759056 10.791283871504358 1.1451649771613635 -0.5357826746986708 -0.222820541707784
Ni 1.2500523291431862 5.44901916284815 0.7326553536977642 0.8645799749496014 -1.7412083964233043 0.5365866586572049
Ni 1.661812413956171 3.0139355482007666 3.4652720999065902 -0.7682561661151865 -0.23983121733316756 0.3524990147432445
Ni 7.141902603174742 2.051515565306672 6.117826224790355 0.07097093189192294 -0.6301113074799277 -0.04943691447488905
Ni 2.183746789433721 4.880699001110672 4.93097832362359 -1.3513175712951633 1.042200523081979 -1.3270625554025404
Ni 0.939526026518731 4.603009751222276 8.13347949740442 0.03817908217288263 1.1330692223390937 -1.1138376278029913
Ni 9.116568427414254 5.678069103249636 5.831672005817086 1.4357873090044693 -0.5701421260151471 0.4174414810529004
Ni 1.2456648573910574 7.198709784602723 3.944650758804688 0.5807664384982126 -0.8654078701675355 -0.16279582441471963
Ni 7.721517975209104 6.478207819638895 4.229956917200293 -0.20503776380306624 0.9210681398443169 0.7210692240167389
Ni 3.7798942959717645 6.629451421358501 1.161865066730798 0.5312886434830593 0.20707741994091433 0.16857694987287097
Ni 6.217525771573738 7.48468648113403 2.912591389364385 -0.2709919592066881 0.41158527938243955 -1.3369379055347232
Ni 1.1322896439387757 1.3980950080750763 11.924148393817365 0.01649465522091353 -1.3980975077631794 -0.2882157792841423
Ni 3.9559726434581375 1.317501659034926 8.974226702343936 -1.1828817749858467 0.7164759482191014 -1.2062150503951483
Ni 5.650428951016625 5.286259597535953 4.225163811267307 0.0635684687802647 0.8459520754357689 0.08757485899719111
Ni 3.817937447264855 3.930999926881556 3.52278293246463 0.33115783006330707 0.41579623213999356 -1.406904821642164
Ni 4.035131096076207 1.1413037368467132 12.152643691563393 -0.851512857352998 -0.4908061099879806 -0.5688293207409946
Ni 6.948495121975559 0.6217203839684169 1.7533137352203245 -0.74757241251359 -0.7537618291537534 0.7438386565027706
Ni 4.312820345964606 6.721266396263635 9.749411098264586 -0.5911454677396916 1.6826543501384958 -0.31964494432770113
Ni 0.365461680065941 3.168444459086004 6.002979322700043 -0.4226505360576656 -0.5298254286739713 -0.1156973282650201
Ni 8.814338769486696 1.7287006625546615 2.663417946448628 -0.45023204522036014 0.7982997636651284 -0.1553599369619647
Ni 6.929234396925334 4.305747042448071 6.316233768137248 -0.3240466729398226 1.5641678891641126 0.7578462836357722
Ni 6.332777388039509 1.1652922616466117 11.8277987782963 0.5806245136037097 -0.7484969812103883 0.20272788472296702
Ni 1.9601604931009229 0.43534389523742495 3.55995226862889 -1.671623803355947 -1.0882101570428742 -0.6036376866694314
Ni 7.284003339230583 3.9960669607904835 10.534855003603111 0.6353075069688865 0.49580613430573317 -1.4518104239056029
P 6.265410840633659 7.012780321295533 10.872596508366346 -0.1380607835618848 1.070979909207517 0.16932694066501805
Ni 0.09378427826389835 0.7740640729449514 7.56634128560436 -0.7613702376286308 0.8911039893820588 -0.09139911783928775
P 2.156750500979847 5.517158346788966 2.667483486311187 0.5163060540312979 0.19354930354749247 0.3422277147242235
Ni 9.128553491760215 5.01441111192974 3.3348896846310674 1.0501454889606687 -1.958347571475595 -0.4722923674545092
P 9.136519006513556 9.01742260348093 1.2196279259681 -0.1522689567414668 0.05294981272415397 -0.1495824110482392
P 3.718543275873864 6.490864341925958 4.825110561836061 0.9060359281015427 -0.08711720263448221 -0.3255489685169619
P 7.046344020296618 9.056413154334752 4.880683364418894 -0.6370995658723028 -0.6851781665470845 0.46470349936365773
Ni 8.593235947730575 9.036021068644043 12.3184588504103 -0.4568397803448649 0.9937596539717725 -0.47885407983242695
Ni 7.207641095024771 7.953410114292787 0.28091224800568465 -1.585346580124257 -0.5957418288611224 0.6927287252008327
Ni 0.10119147114018608 7.075630624193426 13.223918964180218 0.6330678190050903 0.4166454675141663 0.10794930888848504
Ni 2.7873966765379197 8.509827994170191 5.469213490378126 0.9126002115826218 -0.40782144146463317 1.312889863446584
Ni 4.03484595640259 4.2771410945463515 1.1228699168499812 -0.02819831681108692 -1.6809610215964728 -0.13866936368016117
Ni 8.857689197930684 0.9091954434943192 4.8068018353735615 1.020365943705391 0.3168900072903833 0.7317364739225978
Ni 8.30350644517229 1.725104223445474 0.18693573041344352 0.09441656450937289 -0.10384094314706632 0.32649179204620543
Ni 5.774271549906898 5.8374897749643 13.20853153966421 -0.47183265420927123 0.08320758316743089 1.4475956144933069
Ni 2.810538980370951 8.78906251712852 10.610054613784879 -0.3336607989908189 1.6355134307866348 -1.3966497195730592
Ni 7.98905257349509 4.917675178141192 0.8621795905362356 -0.1503077192500379 1.0303814189598641 0.60521840089299
Ni 5.003447031576412 6.012317187108347 6.780844031552708 0.4305677340222133 -0.615761723626475 -0.45768438773334724
Ni 4.563632882100969 9.001417989542349 1.1278203095061565 0.46048226219345856 0.6706712311801611 0.5030844131347013
Ni 1.9629291073512183 6.988221517148397 8.926072130302176 0.029262239299227024 -0.5331262109124302 0.07587968204744996
Ni 7.637935258622953 8.881374186948989 10.107265987682707 0.09185934530515794 -0.4126785124466183 -0.31082220382974857
Ni 5.195907113214862 7.994231077890159 5.6277989787907075 0.4426673454992247 1.0784816169012006 -2.1457887052428206
Ni 5.133939823499787 9.10725999677871 10.081970419411157 1.0907534922900182 -2.0843588800721133 0.6946200286862747
Ni 2.8227907882825556 3.111342939930416 6.096326693399527 0.2337814115946619 -0.7753624381426647 1.731938026864972
Ni 0.6621495104659149 7.68117531041909 10.879865730432819 0.15543321340206134 0.8308756407186205 -0.04321330216268042
Ni 5.5141137909190405 2.056905624943459 0.48371186213169926 -0.6493467586707721 -0.1839513754464122 0.4915941531069147
Ni 1.05048215177225 5.326777025351734 11.70286896942468 0.36890985200110016 1.929787243339399 0.11205458930611024
Ni 0.4537409230182062 8.09004720627994 5.91282275692889 -0.5048438190279693 0.32207000882942594 0.9202369021922733
Ni 3.2072786430220357 5.172911978245636 12.566205675152567 0.8760743487424459 -0.012886626154681032 -0.7606094482032062
Ni 5.064190980111125 3.0612779320754133 10.171467484711393 -0.7826576862524972 -0.5808201745542836 0.44686030053464976
Ni 1.6849087275192638 1.4496501006760856 1.567413705685895 0.976095661033106 -1.3685552753296881 -1.7383292751032964
Ni 3.7176878568530087 1.6685361914211734 4.294683623111676 -0.5908230514032664 -0.37932641934873385 0.32282951270326987
P 5.616708885097748 5.429086979856823 2.0433992024679335 0.5379393160303574 1.010246338772886 -0.6631872640982901
Ni 2.951305998598577 4.875796438335233 9.691214090879065 -0.4827739837121233 -0.7530414060479611 0.5050415368610721
P 0.6394689489430659 0.6539016154551521 9.920449831971103 0.06587551964688654 -0.3860655378447803 -1.1486130836109638
Ni 8.882192813753894 5.993783108323149 9.768864062643155 -1.004470355521057 -2.136937682610094 -0.42540778708782867
P 4.3750727753533 3.1339241624701986 12.277304917258572 0.47875457814008515 2.5169536718266845 0.7425374211928438
P 7.81850225645532 3.586698370014298 4.567173213080832 0.3175029582840338 -0.6197029676624102 -1.5611609840169889
P 2.639804702251426 7.09314371898599 11.758764623702481 -0.2943959399529253 -1.1509473881710952 0.4961943708830873
Ni 5.177869729345001 2.9914830984168126 7.67126624685815 -0.3773160737869244 0.1034889591242863 0.09176807114293228
Ni 2.2088666748741055 2.9200510111484026 13.099419624235223 0.8053433007754711 1.5319205990946325 1.6050481723182422
Ni 6.012473554026139 1.620136031337942 3.898421339462552 1.1407539925778614 -0.3162922258053843 -0.3245644931165056
Ni 8.82496252184248 7.672722298804402 8.295229116388766 0.4999700358754357 1.009312514104707 -0.852076700276268
Ni 6.374370988171849 1.5757922130632829 9.249260474046086 1.5956662168827098 -0.07962552224312737 -1.0536519594520306
Ni 2.4766404225637726 6.351283872662743 6.601243749194449 -1.113496956634121 1.5107172255441401 1.052237081382375
Ni 2.706012294854828 8.799364337594735 13.199632422431117 -1.886540516835622 -0.2928684475648053 -0.0630647896709688
Ni 2.221366830243378 9.121654951269447 7.993405092642066 -0.06522194522328767 0.2521516865717335 -0.14429185207326117
Ni 4.051301274986569 8.1843824479777 3.4263394967928895 -0.8871917988118462 -0.12730071683190333 -0.5097294292550447
Ni 5.873895672647582 4.922596137024607 8.758950847789016 0.5982555964219116 -0.7378343592902197 -0.27635836572492406
Ni 8.173648318974065 2.930702357666149 8.309162328569322 0.11846743481098951 0.5431661116469355 -0.010806089476568486
Ni 4.997725841996068 3.344302053276672 5.384522408286459 0.9731772018347304 -0.09203238054791246 0.4673378516627113
Ni 4.436892896204572 8.221009098956687 7.708017991371369 -0.6629273255686842 0.318308999125097 1.3365455551923109
Ni 1.8340551729296766 2.470937629091404 8.583550396881536 -0.32138146740283363 -0.7838442503614307 -0.49035205316969743
Ni 4.693684167432936 1.0699176398482417 6.345123016101788 0.10163390819341853 -0.16642390808561017 0.43365820002207894
Ni 5.197056869963324 5.082605484194483 11.024734160933557 -0.06900429508385536 0.1257274588075125 1.7004990916294005
Ni 6.829444709212872 0.05255492106947127 7.330468228754804 -0.3678788396334245 0.8372969708639322 0.9669430479995605
Ni 0.6442822905948247 3.7105317708505847 10.281265574967863 -1.0999896661763056 -0.6175738371345493 -0.5215469907152631
Ni 6.6344459646738185 3.5143372792931316 2.224884166088271 -0.07967668719603697 -0.6979305811167464 0.9635193670299922
Ni 9.103700349885473 3.645152003106076 12.707748089331355 0.88637135979308 0.12957254358521555 -0.4321379067228106
Ni 1.8540241481369542 7.81722372695103 1.671018746192451 -0.6266971395920562 0.5143090782059272 0.6603209982940885
Ni 7.225310556735125 7.276709282418344 6.39498750637986 1.173107212097586 -1.2802381388498338 -0.5670017806139526
Ni 4.679270816834223 8.080012129379368 12.214718598510126 1.466154608442417 -1.5955967970973552 0.19674107101191277
Ni 8.287621405935546 2.004449123051656 10.881145179742505 0.41516142676947204 -0.7780831795079375 -0.1733903121011143
Ni 7.693675465788362 5.872451578171515 11.967726014194849 0.8599684443195188 -0.02943553165229769 -0.23702048735724987
P 4.393450487220707 1.928675554301056 2.321624698903814 0.24297439094783962 -0.11057491943679022 -0.7219667961303438
Ni 8.714254744046627 7.042315272650009 2.23708078567595 -0.43321237073391206 0.878203479270307 -1.3191016486842508
P 1.8765685784607855 1.1935762776587622 5.5762383673573055 -1.504786718992318 0.9444448668970444 1.186389531028789
Ni 6.838670357362526 3.405137982351261 12.681860166382998 -1.1622656413973917 0.8366408253371719 0.23132497963436935
P 3.478244115445431 4.836732303049509 7.6640365764238245 -0.2362604692627738 -1.8920462771451996 0.3266504291112568
P 0.7507828784967062 3.346527982341693 1.4613307094350547 -1.1984359206703619 0.6385758933075131 -0.8575235823234522
P 7.984573121203084 5.565411338008395 7.64229513621312 0.5047507450935307 0.4039627298401753 2.361966030602474
Ni 6.43309136482927 7.147550208323184 8.657997606247111 0.5893063576484238 0.8458949969455882 0.37875563444692834
