# total energy = -340860.04320711124 ev
CRYSTAL
PRIMVEC
9.37617363629389 0.00000000000000 0.00000000000000

0.00000000000000 9.37617363629389 0.00000000000000

0.00000000000000 0.00000000000000 13.72297787486827

PRIMCOORD
 96 1
Ni 8.56688778963175 3.4222001707914225 12.518402017728201 0.42553171426020264 -1.0250636062913765 0.3903785633978374
Ni 2.2688745795862912 0.8743572402095121 2.8118103416772886 -1.148929329299802 1.374727208468355 1.0337279668345938
Ni 2.14464028139378 4.362949157572357 7.064396312056832 -1.0672530951752328 0.06471080991482404 -1.476795633096031
Ni 4.017240266353031 5.520962835501734 7.647060796283777 2.0439953886534026 0.3366265664873622 -0.18619080629989226
Ni 6.301473018047951 9.270082045921706 10.376931820577354 2.6244013584884027 -0.7685207326304829 -0.6736879065192978
Ni 0.7392212651484403 1.5198402113066596 -0.1388283121650877 -0.03835674540132749 0.44878399991992385 -0.618387077064464
Ni 0.20829919409699493 4.563177341564891 10.809424698001227 0.9535846244147835 -2.5372337622319594 -1.7284541820814296
Ni 1.282060452652918 3.0290197134023846 9.221401890994484 -1.0694480459440228 0.8924229653037985 -1.122818491145363
Ni 4.852038493166013 7.721203825445069 4.134678714030076 -0.5864012681864867 -0.4121231541637806 -0.9788837653012045
Ni 5.353054321386151 7.187343261634865 11.59565528396837 1.7594120639155248 1.4906790759463424 -2.405756288314547
Ni 8.60162651225841 8.890825206103678 6.525481990757894 -0.44950982234235487 0.7074261793120075 0.05206869567078129
Ni 2.0652522208054034 2.7761349393231236 5.037183226931958 1.2111042601666497 -1.8836184580928206 -0.08087559260014458
Ni 4.84366557027651 5.847309928549926 13.055080121659675 -2.2230683529615907 -1.9125102014265063 2.118692620356977
Ni 6.023600741728461 7.060314863754704 8.423479216737073 0.08884909772392441 0.40946257661248187 -0.7076074420848781
Ni 6.7324675829547544 2.4357048337552984 7.331459735624903 1.196806612597055 -0.94309632328895 0.16324653879889303
Ni 6.590877987709086 0.11047570127419461 8.157953485614556 2.263614649815069 0.02805793457848071 -1.474940582165163
Ni 7.244903590435154 4.939386925012159 10.884462214109503 -0.8452180254832218 0.6770563087708985 -0.6203357161504026
Ni 2.30915462072101 9.032921114715565 7.388382484630694 -0.14139293325891134 -1.1253242882863521 -0.07892463952136085
Ni 9.182817999636596 8.355736363571724 8.970230143804262 -0.7482131314213823 0.18263214241435644 0.48086236851170744
Ni 6.853307706358912 2.275250377531265 10.320489131652126 -0.47446494962579583 -0.11961491815187142 -0.16337715083948637
Ni 2.722315703728783 2.0694714988572245 7.136950079818604 0.6722930830543002 -0.34823175482645835 0.9455962068926682
Ni 6.438224507794198 2.8971250815024563 0.45498913037883787 1.8254588190329528 1.9180635271445674 0.6778996306078002
Ni 2.637480086366833 0.016054821795851798 13.45406255517864 0.26073300048284126 1.279562710049364 0.2774497990168899
Ni 5.9922843224105 4.495659516562304 8.614818788300438 1.3309922294742496 0.20396612800544228 1.2755281349686742
P 1.3551664770308054 7.623485345764891 2.7058558312399565 0.648798856587102 -0.8074860581500867 4.370875374186021e-05
P 0.3195278020991034 1.8910147896120881 3.2763884846418985 -0.5351347567020267 1.6823851556375091 -0.7548573762107775
P 7.60714267544417 7.228907838532028 10.436118915470956 -1.562113577738245 0.42049003807123714 -0.8762368424622393
P 4.656263991561513 9.211312190746561 11.414814213815282 -3.2663369122967683 0.46674649793561557 1.967901019491985
P 4.810033236116771 5.662364907278432 10.043449459534862 -0.6997316388812271 -0.6105665525787807 0.2109664705826754
P 4.73546452868092 4.7161402352035795 4.134952498294772 -1.6992071122908545 0.9687435915434089 -0.01996898692275916
P 5.908564469688919 1.431638547676701 1.8486222965994241 -1.4230094405135105 -0.7175028468217192 0.679840556384255
P 3.3827639852670677 7.60465798948032 0.4890893355936562 0.6385468398417906 -2.2930604658800124 0.1957008026728565
Ni 6.409505288521468 8.614715650392505 0.8892709816966825 0.02740358882393345 0.5465514831794006 -0.537386528850681
Ni 1.1578824115010982 7.207473906028777 13.355407395770957 -3.171278600438338 0.6112733488378183 2.079982862491605
Ni 3.8592611199194 2.8825732603103975 2.6828279492504614 -0.5134282182628706 -0.3710281838956836 0.6613790072449577
Ni 9.230008280602854 2.2440370961212373 5.735051816703173 -2.0756487538926254 0.5647034714980791 -1.1352952834561352
Ni 0.38294917692204394 5.329229464653534 2.1258813711753834 -0.2092813695707686 2.2810654983016647 -1.7322663567386682
Ni 3.9420058506023365 7.577213929796587 9.43184354072446 -0.015121429022470732 0.9086857070195641 0.6845510744860469
Ni 6.0365023563935845 3.7071045771972813 2.8147197682983554 -0.4215323632928224 0.974799825039818 -2.230334547605701
Ni 7.594944273787684 8.133661695444204 12.446548650123033 -0.08350146025876588 -0.43493449563134123 -0.26293797855396006
Ni 0.3564089803587443 1.4632925092388083 7.871280732896311 -1.287642401733705 -1.1498117319047552 -0.22835869791719385
Ni 7.934830561295496 0.803940302376652 2.2179760220211557 1.1280213755025412 -1.250092468504389 -1.1645276979586912
Ni 2.627447580776947 7.620653741383447 11.899948679448364 3.171143617522371 -0.3107635826776713 -2.6155552209516824
Ni 5.702363663209698 0.48275385519451053 3.9203525156403907 0.3200511786271843 0.7747942243440205 -0.8283317912508443
Ni 2.563924005663418 5.778638834213175 3.9558957139489315 1.4538608786767284 0.5563980369561773 -0.5072269745481652
Ni 8.644081825633178 7.623822888009037 2.0715520717454448 -0.3804013975804674 0.4247716961657265 -0.6515874750758327
Ni 7.941168854546676 5.791540448878298 8.70212408974872 1.0397016679195257 1.1737862404424817 0.061142632947591466
Ni 4.852404163930505 1.3604171341619606 13.463338403571232 -0.4770249970434881 -2.228487467094633 -0.6090339179843383
Ni 2.9365425146799145 4.435530116237129 9.304027544274625 -0.21082068903343046 2.535243728385124 2.098933949672811
Ni 6.726251179958405 5.871181666149784 3.8258013073511137 -0.7097879946759648 -0.2557823413457853 0.6703796680816713
Ni 6.350247872327003 3.784064208862499 5.30430103230603 -1.4181983922781125 0.03518888919630714 0.5937330259612098
Ni 2.7038915229024973 8.279011136242717 4.391448974386392 -1.6294008901309938 2.167555921716583 -1.0132247046749194
Ni 8.777954830130739 3.0851829923588476 1.1821010675185515 0.20117982350955677 0.5185022903516683 1.2885739124090387
Ni 7.439927998163776 2.4155741893613873 3.7693726826860576 0.39330422168506457 -4.746728233163857 1.5558837947784494
Ni 7.418578451221561 1.1511690713119784 12.852790117125817 0.2831833590665575 -0.06769097558907052 -0.16202192236317256
Ni 4.1448499869869995 3.718618518192029 11.68801059243601 1.4070652584794283 1.5913969000833945 -0.7455011318068581
P 0.38790073412019227 4.948041133105117 13.400830268042174 0.3197796701333525 0.6887170329382785 0.040734244494568556
P 7.58632757038852 6.81882214041536 6.575735467589772 -1.1047356655017233 0.030954025179353143 0.014582525799865208
P 8.435227562068032 0.9545882187909079 9.571626347346603 -0.8012789008981104 0.33953448416277654 -0.44147923872839456
P 6.4929063513458 7.652129555650032 2.7626004329502263 -0.4461792153072251 0.977419264940536 -1.2931489333742308
P 0.7181651924351632 4.321675242052098 5.177803325843054 0.4508822772098493 2.1995535576691023 1.1031287260259195
P 7.65972425614331 5.050128909612291 2.1005075705890763 -0.48480618365080375 -0.09803693487077954 -2.7433336487509523
P 0.5810349052815972 4.978466815945471 8.4304916568592 -0.8794939159469564 -0.9265870127800171 0.9779980202621413
P 2.788483359754787 1.89181176435521 0.9698395025222242 0.03500017022426876 0.05799508845754528 -1.038177003744883
Ni 4.602182223110614 5.678426292395699 1.716154780501793 -0.2883605323921227 0.16422355800018168 0.739086743640082
Ni 2.0258254114544973 6.558764593648003 8.488828332821024 1.2224590230578365 -1.3896774020202842 -0.9342923518440749
Ni 0.36381240691367306 6.821222440818174 4.517549131095152 -0.491284849396612 -0.8263139894898672 0.5385977755499627
Ni 4.478810532875365 0.5778929495590078 8.432824448813184 -1.273185859988743 0.03446898031114709 -0.023851866916933116
Ni 4.2640211515173245 3.4839797776435324 0.2030419736444258 -1.6823946687192057 1.577655382127586 1.4356718664725274
Ni 4.371781512960836 2.8778382927189097 9.373053995585073 1.3100691061683374 -2.2546978069414134 -0.5813068843827149
Ni 2.2520724767665943 5.09668161078405 11.735767194278555 0.12417914048378616 0.29118386077353076 0.5073017936501586
Ni 3.414108533105374 1.6861078950687574 11.307363266095571 0.46124870804583784 -1.8947659900692078 0.340049219015666
Ni 1.6319792457506166 3.94894421895422 3.1929255390728075 -0.052907132411676626 -2.7138168702387584 -1.2737995823133417
Ni 0.2922515759200971 6.740803001150464 7.15074149334399 -0.31948090794601114 -0.1454776448512462 -1.8661928064172053
Ni 8.426470216067143 4.237486580658094 3.907247438011434 1.483885707173593 1.8390422141443423 0.8264227471535897
Ni 0.807265093481487 9.069816357235378 11.774260136753993 -1.1258359378154483 0.9131967075160401 -0.894783495116175
Ni 3.9708750886502417 9.153179915365916 2.0084541749064773 1.9052540340847248 -0.7982712244200381 -0.694380658981959
Ni 7.306439416777603 8.078736071382941 4.662299434410307 0.7498334406336247 0.4938950333259495 0.8538533325607165
Ni 7.196006845901271 5.569456404577331 13.160074511935882 0.6960125381584271 -0.2924107912020964 1.0866338136946898
Ni 8.290890748001956 3.465564972990695 8.920278579757424 0.4981005867668647 -0.6429241429738799 -0.4986361475553606
Ni 2.11990593583666 1.0182149318123705 9.287395150194346 1.2751008176232685 -1.9651910767599896 1.683573262408339
Ni 5.348544381957426 6.311805561188188 5.7761250821116334 0.8309586873507302 -0.8245358145435219 1.6747039849431675
Ni 4.257120287859235 1.9456872569902415 5.2036984416730965 0.872059314045782 0.32302645920542433 0.5640660950243963
Ni 0.3086223747611631 9.22325743571994 3.8041329705116502 -0.5509958921039995 -0.723423068960896 1.2025111191809998
Ni 2.9022163436849873 6.772991404599134 6.023659811621187 -0.7660589013535517 -0.328848208093524 1.4948162380431673
Ni 2.3414274097307173 5.517709303315107 0.4577232225564179 1.8408149897740491 -1.2326943276326 1.009220725721849
Ni 8.153961110960187 4.531739031992099 6.571426178272847 1.0244254584867454 0.6402026302776587 -0.06685433862038809
Ni 0.0006807101923604746 6.5987914780996135 11.273480588104757 1.0936984338509552 2.363071090741195 0.9173238423105362
P 6.456676817140829 3.3587234765451357 12.105025282731111 -1.6584625833836406 -0.08820632193360294 0.37578061097900445
P 1.4689275894813514 2.4051010036194227 11.166537828985954 -1.0145488228029818 0.1035331820986604 1.878107298466604
P 4.92812614070052 3.445753118494033 7.208693746194426 -2.836734884621934 -0.7664607647776606 -1.887530134442401
P 8.88235852147969 9.072151024424052 0.20967842921126803 -0.008404422013611332 -0.2447692780647333 0.04360513828446039
P 1.7916929842722191 8.083433534280637 9.716321331238412 0.2099495992823868 2.6193403990257274 2.892304137246806
P 4.108479810180301 8.595231961966538 6.183998940911803 0.733654259770601 0.18877425075635232 0.3572794668510234
P 6.9047828985911295 0.9752158003775891 5.668454731933228 0.6796423243305199 -0.15821231880909528 0.09510459171533298
P 1.0648145138513727 0.514193102384647 5.838687599446693 1.1799638300081032 -0.42845325878237184 -0.1874637594750449
