# total energy = -340860.45925760566 ev
CRYSTAL
PRIMVEC
9.32683957930952 0.00000000000000 0.00000000000000

0.00000000000000 9.32683957930952 0.00000000000000

0.00000000000000 0.00000000000000 13.65077249571246

PRIMCOORD
 96 1
Ni 1.3696556803514763 6.2572552479994075 12.556649156027197 0.8000087759364352 -0.503557753226694 0.8533810209099882
Ni 3.76115987613225 6.544978914049776 0.6564154895682878 -1.6275962328220872 -0.33066752069044986 -0.33646432987788505
Ni 0.4573443638976837 7.6831610962639365 4.201557372993287 -0.4852029048685901 -0.2370531403673982 -1.0810046404333704
Ni 8.181923155510898 4.876855048756232 4.041420205362186 -0.9108325781592377 0.5951486753618137 -0.9249978139160262
Ni 0.12539096044435027 8.52741726428278 8.994903633252369 0.15554325661736437 -0.2575664298294016 0.9684754254836868
Ni 0.6674789863645841 5.813708077501454 2.3787702620630333 0.24501250442379094 0.11151800007634988 0.31637604376844225
Ni 3.8225957667048385 7.066153368172391 7.065353125359103 -1.0675217754555872 -0.42373708425362505 1.3040830637882315
Ni 7.123886503536641 8.888589789944373 5.020999485012682 -0.09250469219864069 -0.615957641687365 0.3848164959290276
Ni 3.8173354293307775 8.7022581940951 1.0380399084813716 -0.12514536105179738 2.7839899888197346 -0.8035173033103258
Ni 8.434969632985453 5.429675468677054 10.245832379850569 -1.7407455978542732 -1.050571263644178 -1.272454895359989
Ni 3.7642750404636978 0.32504408088825465 3.4363088608178303 0.10471408978063902 1.4021554798826368 -0.052051212169284544
Ni 2.4701760854087964 8.79132950956014 10.593558401270702 0.3965790357815944 -0.6533522802857393 0.5343384860529765
Ni 6.974461210859636 4.296679009122428 13.633190257203823 -2.1383862421311624 -3.118036453284746 -0.9987131413223057
Ni 3.467383091365985 7.417299541569594 2.7422763629214173 -1.608138638318108 -2.0934994089208008 0.9998349136315748
Ni 3.7609267051493576 5.098367482504368 12.367312452550399 2.8656999043957168 0.21431378978835344 0.508384485191376
Ni 6.127127185866607 2.7004277675957535 8.718024283274376 -0.5644792713024148 -0.5485384317024424 1.6477253994717946
Ni 8.679743203986973 0.5663713847626191 2.880026318143016 -0.5502315031341491 0.24395989478956048 0.5556647583345785
Ni 2.446299376760576 7.3185842742521094 5.106849310178076 0.47541394380262636 -0.24128157662644895 -0.26769246251980994
Ni 1.027183467517884 1.3699727928882104 12.433027497001035 -0.48962211698220837 2.7625562444259906 -2.044760034733569
Ni 3.745397517688698 2.152419996761838 0.4234385049332795 -0.013844104971943898 0.627148625307178 3.2116909428171136
Ni 8.044109777781953 3.7139660691947523 8.246717640921075 1.1754170911776853 2.3095648912929385 -3.5327957595197934
Ni 0.9824239656417869 6.446384895643395 10.157744113249406 2.381418225789815 0.9620908621135819 -0.206177019613832
Ni 4.052399760604642 5.473875360194208 5.617074054944046 0.6407181364614964 -1.310042623805776 -1.374827224381329
Ni 3.4819889217343882 4.701361240191813 1.9521289205087389 0.30131529278057784 -1.4846788924988494 0.8455592108727245
P 5.744922637548085 6.067845795175948 11.571254592063356 -0.6834385581481585 -0.8354339495132644 0.2117182611470354
P 7.891214900879502 2.825631258569858 3.5070883790168983 0.7652808855369465 -0.19701592193985423 -1.2709050343743662
P 8.002763899095406 2.9786846917406757 10.04148039775941 -0.24794896134429556 -0.7305684217564257 3.3151775879485554
P 0.6327430387010816 3.192950171340504 7.387797816130068 0.27009207310023803 -1.101039961817691 -0.36718567022114185
P 6.776312509597356 0.4167866031333144 7.251467405852321 -1.736077245844326 0.02527111586196293 -1.0331127018480981
P 5.973495488658215 6.1122228966401 4.040191860624308 -0.12296737956387209 -0.16604698436216564 0.7636533772358526
P 6.4436148243666285 8.73232792404895 2.267884402122477 0.5633739540533782 -0.1076942554548855 0.5981789775477053
P 8.309691527296822 0.3464864844750743 12.608726496030402 -0.17226108359267753 -0.23563286298110386 -0.06187771134140311
Ni 4.862267872066459 2.160123966036615 5.194555176367295 -1.9097758332144785 -2.21984341826639 -1.479313257311562
Ni 0.7704053216331129 5.506668527228249 5.628554461457755 -0.5679114369124154 0.8655827051825027 -0.29583704327482596
Ni 9.300304457857804 7.818708052039164 11.745083559809919 -1.6547712505749825 1.6935632837415155 -0.2863280753431262
Ni 7.259340190918713 5.509214754361437 6.0488619464327495 -3.340530979111679 -2.2290762497185677 -3.8101617405736254
Ni 2.4406379852959392 2.612568941241756 8.608422729107595 -0.0836752668324688 0.8283988970433539 -0.1824789046659438
Ni 8.455824445695383 2.6476658375867763 12.590461746598443 -1.2758605786074284 -0.07321293384856424 -0.9416567626289459
Ni 7.8007259058384735 7.05650008948063 3.1122123868040523 -1.1102668797325976 1.1291650021886812 -0.41973079130770946
Ni 5.976228252577719 3.3070827040468598 2.178171400112516 0.9233335388397259 0.6256920953663095 -2.2142019037098963
Ni 6.325350501843413 1.179733251365653 3.3697338817822855 -0.7011398320826634 0.2940059036033582 -0.40958393268169463
Ni 5.368873803177934 0.5125984253718188 13.359301091910448 -0.9299093922850307 -0.6035014182018832 -2.1992810207340057
Ni 4.490173617566169 2.069467087887904 7.298972729222964 -1.4020310384896306 -1.0668270633814079 1.4213341096936167
Ni 6.636139441521535 1.725614502835587 11.105489957631447 -0.19841511628022604 -1.8016504037594456 0.8453692063491054
Ni 0.8206993699591528 3.333123239416325 10.562872167238082 -0.5826122334576999 -0.6848004714926915 0.15051957815052786
Ni 3.743886569719553 7.549992484514214 12.418243524001703 0.9204929840671372 1.6072120127387803 -2.2199048676319446
Ni 6.461205243316059 -0.07237347503812266 9.394420660708713 0.011966428333256812 0.16527539630346377 0.006065232357473425
Ni 2.4703159879985317 2.2085862231210496 4.386730575399549 0.6638560080305407 -1.3352409774482745 -0.010819202102691043
Ni 2.2443826324147484 3.892519081054724 6.027388764276188 0.8697622904814892 -1.0259825185612201 0.9393918778541692
Ni 6.116046900759542 4.036609421643143 11.00024310474117 0.7253827637904281 0.3152807538217344 0.6435391508500594
Ni 7.846921740969191 5.961799632156314 12.397016570403077 0.46288444387704797 0.9373825607336244 0.08339861613231443
Ni 4.578890513137212 7.81143311737291 4.630628356189324 2.927049511147791 -0.3844442001912734 1.535650241340394
Ni 4.343024073682197 1.7087235968348342 10.085968488611421 0.1818379286478352 0.8577120441851743 -3.081369951101648
Ni 1.1178776530238579 7.568375684805481 6.9896322476905715 0.19652741233920992 -0.8649355585168071 0.6065731151486714
Ni 8.470430276063787 2.7378563737697017 1.4411393749188801 0.4099369451457392 1.3930352627489233 0.45946359112095714
Ni 8.416017495495929 6.0261361697560885 7.6042168629278954 2.000377394853136 2.2320497305245945 4.697253009251865
P 5.401881487516236 5.498367640237265 0.8415719036637825 2.526904098171177 -1.5399514398189094 0.7835891969278311
P 4.833028230811705 -0.0707907104062465 10.927456450721362 -0.7245157878044426 -0.8524531097790804 1.6738701761879624
P 8.579703525486657 7.072971287712175 5.763983899057605 -0.9251104282344906 2.240779397088109 0.003084295352278559
P 3.840316761404689 4.1862958658209894 7.58910551786858 0.6771002746349565 0.7251655055732994 0.009223832591113148
P 1.0635021798132627 0.34857289842999883 4.338624603576975 0.6931398445963224 1.0721204505698634 -0.07406088367115632
P 9.309286204118834 4.3776359743828 13.511930153892402 -0.31844526759264513 1.0854318229667885 1.104203447147337
P 2.5750190861567037 8.324185435593439 8.455684543105647 -0.8739035663433724 -0.4215189935563837 0.09989172869133119
P 1.7043213286778185 1.1214498324817752 0.8586745289170019 0.7876145160371404 2.746787668737824 0.20987760839387082
Ni 7.147334177576339 2.359224004909098 5.321166087394141 0.893217693290952 -1.2600812042859846 2.644260302195859
Ni 6.2131392980360935 5.423659657318421 8.673700344794323 -0.1279980000092441 0.049563155640108186 0.4238916075536183
Ni 6.234777565248543 7.69278639443775 0.473011588580215 -0.875056449000893 -1.3220188223310458 0.08662175105530244
Ni 2.0196337854240602 3.8302997359796156 13.179506677737555 -0.15778885811843146 -0.6973847359156055 -0.8984015514847368
Ni 8.540763971343562 8.299273447781173 0.7210756684923174 0.9326710141905681 -0.7543778654711976 0.08319704164446963
Ni 8.794360732337745 9.349690072034495 6.683445170530821 -0.8042827207214408 -2.615908233415727 -1.842730461629207
Ni 3.3573450411192267 1.9025726251725716 11.982797646133378 -1.1216082728873458 -0.27472314411434623 -0.3527841500838311
Ni 6.483757540781449 8.051636537109731 11.735937661176933 1.209491664263891 1.2387377056132023 -0.3184380685037935
Ni 1.5181482890969111 0.6576718148241141 7.126125877656344 2.87469722279832 0.40329167191507964 1.0609927160878179
Ni 1.3146926162639914 3.45734741226228 1.722549703436444 0.8308393881640465 -0.5784894695385779 -0.048601305947471134
Ni 0.2527825279219206 1.945317529756475 5.6397615915795125 -0.12577039623030598 0.9916755177492341 -0.9413456591464305
Ni 8.315735319173404 1.267358906736758 8.423318545312267 0.4826557129667042 1.8222670515685326 1.600842361767011
Ni 7.242272074970962 1.007009514078001 0.8899474211425809 -0.3376352102575347 -0.49335844409618895 -0.3910552777498878
Ni 1.3473179001903486 8.865580477352514 2.1872361552434554 0.5818478444878495 -0.10283281359752612 0.6258494468797802
Ni 5.7010118780497185 3.945225050027807 4.381351787166179 0.8362561883042438 2.7082553169905808 -1.1138111454404303
Ni 4.5661127432746875 8.991903189044503 7.828840730271753 0.8401174710318629 1.5677967441659515 0.1873981963444321
Ni 4.143121926628563 4.409011461840852 9.809403453118367 -0.8683967775925303 0.17785143319626145 -0.6027581122779554
Ni 5.904281014096324 3.867896225261247 6.728766148133724 -1.0639433140757095 0.12925938322017091 0.47429448548620257
Ni 1.7416007054227154 8.878339593536406 13.11338218504096 1.2245233617860332 -4.355977888248898 0.9608641887953324
Ni 6.197815301040381 7.284541310749764 6.986246605018969 0.1941360292888979 1.396535562592698 0.5051487518628978
Ni 0.7549125088457854 3.6495828973983993 4.03956416433836 -0.5612373673263495 0.08334847962066935 -0.6218945759970903
Ni 1.0686972293121138 5.085710961552948 8.251427694775508 1.0332746813472593 -0.6404255449217422 -0.1605183412344526
Ni 4.783754538706804 7.244846282622097 9.99438545531866 -0.22302725840195142 -0.1284199180380111 -1.0867253449672318
Ni 7.952109834771778 5.743775436312253 1.189678460127996 0.6878302594579508 1.2952227851841243 0.9957836263803366
P 7.358643049113088 7.344121160298525 9.32471932513454 0.8825375878692866 -1.3189669228785994 -0.32198593375605195
P 2.2882654113951686 4.77732834641828 11.031721187431694 -0.8063879399899015 0.41664289641100505 -1.3676183653377154
P 3.7893455845443285 0.16915528856546103 5.78971571604572 -0.3726760039117517 0.4987045388994508 -0.2032135661101339
P 2.266524548950246 5.176703605917025 3.7377728265481047 0.6295888593175544 0.6186161623561346 1.304907873682372
P 1.5438064240544322 1.2340714172189853 9.989020657344263 -0.43232251192979093 0.5849894754406247 0.1197604425908002
P 5.7621026755676255 2.580251443012817 13.008749038177656 -0.08999349574101274 0.45839092688206856 -0.0572785220064949
P 4.154211538574943 2.698571726571927 2.9762093485862855 -1.0040168129234062 -0.9750530787012045 0.4305852175237101
P 1.6609421990204465 7.145356887641408 0.9417803979557131 -0.3044785209999079 -0.4300769104287238 -0.21332725750536807
