# total energy = -340894.4432237529 ev
CRYSTAL
PRIMVEC
9.04478219027158 0.00000000000000 0.00000000000000
0.00000000000000 9.04478219027158 0.00000000000000
0.00000000000000 0.00000000000000 13.23795299606161
PRIMCOORD
 96 1
Ni 6.655883254370943 1.9944558434557793 11.523280250919091 -1.3906587920969469 0.0668831349757945 0.05864506333671835
Ni 4.617551173225981 0.3303362431984409 6.129066306380524 -0.31417003725605896 -0.4434962691584233 -0.3175551516782079
Ni 2.7117522833528387 1.4559114310687837 4.782567794725987 0.8429166310435547 0.3928486222048847 -0.12277403260614338
Ni 3.1520070492817123 4.074240160702478 4.36002542547135 0.29106636135906 1.2741587654249733 1.0518362463995306
Ni 4.878456956029973 4.5294640409120355 2.537569679730751 -0.1239757662237284 1.0386500867265596 0.347281475098047
Ni 7.121074484391567 5.913650350382135 2.6890254595141228 -0.16163882799214097 1.0094613809777453 -1.1926781922509782
Ni 4.850273415184891 4.6067969273772 11.29577323028601 0.7697690032152873 -0.16538235419497324 0.8545056214327348
Ni 5.7253470330349705 7.9901514117473305 12.317107305114126 0.8633160206355132 -0.2406066620466114 0.44516337244820103
Ni 2.013250900540529 6.561455729845059 0.32831744784650824 0.6009832797657199 0.3765069476220677 0.13322710961866732
Ni 2.8088751529274503 1.5900365039801196 0.39114159943696253 -0.2487259487196361 0.11688774902869548 0.07033689785234983
Ni 0.6534547503267998 0.049514754814607646 4.715279138719251 -0.43806609928178747 0.10836839870377465 -0.3624640963757564
Ni 8.544560371837237 2.3528101079879207 1.6633489848272995 0.1825902334328275 0.9414665009950108 -0.4188877265811238
Ni 6.711174006998025 0.7189489215762619 4.94965748027018 -0.3040550603092441 -0.42722170036811585 -0.4869096031470517
Ni 0.6126962490077391 7.402086817676501 2.491581485434596 1.060309059757232 -0.11105854394142807 -0.21266674110323375
Ni 7.586473744399172 3.8675759358086137 3.7918530205470518 0.436025671812991 -0.9651185931963119 0.753584937256257
Ni 7.688209452815566 4.040883004528966 12.900503887172713 0.46948060903732697 -1.3303615378687863 -0.9056759736589629
Ni 8.056377305864046 8.695553963258227 6.8163937654572715 -0.011591304382025198 0.4008282979762516 0.32259194277116704
Ni 7.0466901968723255 0.732780202275973 0.46547523617676445 -0.3892958718566199 -0.4385258125270254 -0.0996652145028219
Ni 1.9548396981087126 6.565118866572355 9.252667313178902 0.8252528952152045 0.0354457424021196 0.3498613200100813
Ni 0.1707365416638144 5.020261048895569 1.2992974120864555 -0.19810247013581367 -0.5147343386688038 0.46258542457939045
Ni 6.057760862668622 2.217255959513837 6.913930886049439 0.8305128580625631 -0.7165651654987982 0.7069458972414793
Ni 3.5429948874239483 4.1103017067067595 0.3611726186166496 -2.2038979506807266 2.3670257045135688 0.10404740273091757
Ni 5.952714764024596 5.629110552100544 4.808130157735092 -0.345887680074314 0.24313225668194255 0.3753633209359278
Ni 5.174094701877968 2.946428198232973 9.342566115336004 1.2881211411423366 -0.4098315299161265 0.5663453779768763
P 0.401068247728836 5.5618625976130005 12.334568256847577 -1.0458808001470439 -0.1256726943101771 0.6087541819603903
P 4.1601836796723015 6.356428610500925 12.655733995532914 -0.9028788705297999 -1.4397946303916496 -0.04621352244158493
P 2.407802382807593 8.496152698344657 1.423278761936893 -0.19981919571660425 0.41774667099814505 0.16885077235954793
P 6.380008357286267 7.62249006649324 5.903994141073338 -0.5723604738227046 0.21840981423459804 -0.21168946479162898
P 4.8803744498230275 1.0250361041181992 12.507495444722135 0.2708343505829013 0.708466961871696 0.4550901446436098
P 3.92975881235224 6.100850204320088 8.2069611686585 -0.033606889421167935 0.9263669263494111 1.5214893764589796
P 4.7826365350695115 0.9264660694167536 3.8211219352372585 -0.7845759863211327 0.33374564539514134 0.40659502525669977
P -0.0010880872797379257 5.572291231308244 3.643363024795485 1.7972268207704534 -0.9579308171986212 -0.041975058880205134
Ni 1.6216480172193886 1.1548106368669921 2.5525026148832644 -0.7122917349344249 -0.27091842565627533 0.061915249447557885
Ni 1.7152615113614296 6.379872685555627 4.990747925090209 0.3976375589530958 0.1694315845636824 -1.0369801552233044
Ni 5.910448497539015 5.504373962949541 9.318817231126461 -0.4546260605229977 0.3977512017128247 -1.1322217867371338
Ni 8.556969812799835 2.1466433461064054 10.218679883120997 1.4878583186680956 0.7583533051791778 -1.1411771961582087
Ni 2.363718115131428 5.05265041339051 6.9827815759149505 -0.11779252023115198 0.5587760502700506 -0.705169779177663
Ni 0.7379194474326404 8.91420252435868 9.015972602946837 -0.3646952996991203 0.5525889476227323 0.527685242402517
Ni 1.547345132738532 1.065059264657188 11.47632516942257 -0.21775572559036693 0.3744433802248196 -0.5161170779489433
Ni 4.152794092743408 7.165565767259654 1.651302239624615 0.20268340463827675 -1.007613014915097 -0.5798418698014143
Ni 5.791401076292876 7.803358573001298 8.110867595280348 -1.107364875594454 -0.2619049093037554 -0.48084128546578475
Ni 5.244960569182595 3.0644716486723715 4.896692141106279 0.27125961104577795 -0.2532945419269251 -0.9699324696451876
Ni 0.8860123772525321 7.2724027327481355 7.199275669932831 -0.12644453947919515 0.5222558438568297 -1.0404048646341373
Ni 4.939219801792894 4.604381970571796 7.117438482010398 1.7406101007176735 0.16497303457169651 -0.5228222578832609
Ni 8.336439937034497 7.049539303215779 9.321623826994314 -1.0811766472348605 1.0104625685487503 0.7398292782330613
Ni 4.65250021103901 0.23298996750737383 10.380540780166298 -0.05836558442308658 0.7839470944878821 -0.7342409855120066
Ni 8.217917113146834 7.2512108084220674 4.5887779125917145 -0.9193413869611974 0.24179168349364807 1.3738283508031695
Ni 7.259785261798555 5.965793518858353 7.2814167625319 0.0798648919474431 0.44665872604680495 -0.5815791642074952
Ni 2.3179153388671487 5.362045272725467 2.3546615748720634 0.19296026381324188 -0.28352377312511173 1.1631912385354548
Ni 2.456291459338557 5.182316408754791 11.453543172413395 0.3583829843278473 0.32545100948651695 -0.5234478072824017
Ni 1.0543140635904493 3.2859512265521937 3.636505271050703 -1.00867873717545 0.4054182313397792 0.1634717674358217
Ni 3.6834693973292665 2.52997929864051 2.584153925163521 -0.6275309483472612 -0.2563505551444295 -0.1338338899647308
Ni 1.0128346931425845 3.4489834228720286 8.043882843950248 -0.5165215124762137 -0.8756904830404661 0.4878796803698049
Ni 3.670517269444107 2.8243145958743554 6.786370515944701 -0.8240614460102647 -1.6429009814999578 0.5008197854702406
Ni 4.086658646447117 6.781470053033962 6.180601665503473 0.17539191591217534 0.954239741500279 -1.124206115521509
Ni 0.944998827822265 7.484258662534514 11.571599285547652 0.45201304838018286 0.3889508298123753 -0.949352845721623
P 0.2749975532265328 5.5555041158369765 8.230141136077556 -0.2111431053698557 -1.4112970371725886 -2.660320440982515
P 8.574697585603545 1.5026277303193771 7.953864650670185 -0.4386710798556381 0.10312540513728047 0.6177779827255553
P 1.8092548863492641 3.1756953334515674 10.256699624437525 -0.6791332459045851 0.12796457566814737 0.9747247488275085
P 3.951620050549468 6.228671064147656 3.7293698572396075 -0.5810281768000316 -0.7775972410104544 0.6750289939282245
P 6.954713808280015 3.8315053450222893 10.339714442981919 0.05805525227151937 0.5444241524237526 0.6430578403382667
P 6.465870473217707 7.889790510201428 10.18847121557655 0.21952541589627997 -0.9395379165137303 0.7819349491538597
P 2.362442800863406 8.383762236681951 5.9821121146198095 0.635586471661886 -0.23698757723678537 -0.8997230985096376
P 6.726450643868161 4.04096440756735 1.6073129421598986 1.0765381200215847 -0.24464200845824963 -0.15536996426429373
Ni 5.278073516240954 2.9148619089039176 0.30703959809103465 2.033027833898305 -1.4224692517393245 -0.011316967674715994
Ni 1.389667447387981 1.0721051498684584 6.8917576028717376 0.17805017947062884 0.28819521045885205 0.20006165074471352
Ni 6.801142453976854 0.7467173069255837 9.070711623869313 0.0368783610835881 0.5745690514382492 0.11462774934992516
Ni 2.538463304196571 1.624741332677995 8.99753210131816 0.6327353753663362 -0.2937022563200103 0.7869133762050577
Ni 6.161296482711514 2.1961725725722814 2.6241201035756405 0.8319290216837995 -0.6457744679384814 0.10449708867382648
Ni 4.062192511021589 6.837638149519186 10.505347918617234 0.6234552356159908 0.5861670406884937 -0.7490672518915615
Ni 8.408481626004676 7.194418621975895 0.20688763101031912 -0.9652497194575376 0.04066353915763319 0.33744212041012206
Ni 7.598810827105428 3.5807658972343024 8.221999927760914 0.2000919897620167 0.14712160821257242 0.19404886889173031
Ni 3.356699511690266 8.509837453575276 12.436302156307562 -1.006415137952254 -0.548461812828236 0.44170523869627154
Ni 0.27599338372943505 4.9363073819751415 10.187796474836164 -0.35286616827467615 -1.856864329927428 1.6179520248641037
Ni 8.477113432144755 2.225776144198069 5.831145657544949 0.22743258655849863 0.8920426991462443 -0.06970003559929931
Ni 3.5889242906368266 2.6605316826449754 11.556256621768606 0.042064276159901756 -0.5075249654045582 -0.7869066913368383
Ni 1.1994466362477623 3.4604069825919703 12.451804008250562 -0.8360733828694762 -0.5873255797729692 0.25958680269354006
Ni 3.2534714142368246 8.585858846644248 8.03053907700264 -0.2326843218757412 -1.3918034472243515 0.6170639873776663
Ni 5.639891932295453 7.791392326358793 3.5838709709095644 -0.7021890992827843 0.4131770493495916 0.6073778704381539
Ni 2.9637670454088467 8.347537884600902 3.7731610739775885 0.8249711023087276 -0.7933236506067757 -0.5848282672724121
Ni 3.3114032432203775 4.094726592029215 9.054428302757824 -0.5798452122355239 1.320969812241241 0.29431392176208027
Ni 7.073833587782496 5.815722495205722 11.351464666757582 1.3959838038542862 1.025514063565234 -0.24027704662133456
Ni 0.5645047458059798 9.402050933396291 0.48396367515026645 -0.18082002890628213 -1.1472593977965468 0.033731073703858035
Ni 4.700048630237533 0.4867304739771312 1.5278183527865266 0.27491649107207494 -0.5174098286184379 -0.11108734029683448
Ni 6.1010220551789 5.742595432390417 0.23142612469218937 -0.7986558614529665 0.4802735858877728 1.2896902854016692
Ni 8.061288622513239 8.801766838785761 11.496684973800708 -0.3012391881270038 0.44750539031781644 -0.5622498677512638
Ni -0.04221652018434553 4.807211207879552 5.961963958141471 0.8737788678400501 -0.3647158685244106 -0.4368373690810089
Ni 7.7380823809990655 8.73846240926884 2.7038254363706082 0.7694522433058167 1.0922552736465254 0.21214866381623462
P 8.285092709378038 1.5605776488670153 3.6668206670232517 0.7378173900093552 0.7464634957201273 0.21326555102949724
P 1.7195939619598872 3.321750473877237 1.418645120096413 0.5465730804459554 -0.4751848585109559 0.9433470058471753
P 4.597091876245373 1.2318179111786187 8.258272217186791 0.6693905646955246 -0.6159751251888618 -0.8308411879362595
P 8.674289680675816 1.7993327604484122 12.411216453312107 -0.7294078257894213 -0.16623596044452013 0.8672186981240291
P 6.429401912021502 7.697317548332574 1.4564658762080018 -0.4926961279218417 -0.02664922715641217 -1.5360035109147547
P 1.7683453371700901 3.0742581028425833 5.88679820145374 -1.1915265951450382 0.9830823767635842 -0.4635714426417436
P 6.932147077083456 4.119635921774836 6.095177317022901 -0.577274109074238 -0.8345281498695433 -0.4985261043400576
P 2.4883099877697488 8.50337043441474 10.298809416193764 -0.11256829571773515 0.09836089386910156 -0.42128810849250026
