# total energy = -340892.326208837 ev
CRYSTAL
PRIMVEC
9.09376943430002 0.00000000000000 0.00000000000000
0.00000000000000 9.09376943430002 0.00000000000000
0.00000000000000 0.00000000000000 13.30965077940347
PRIMCOORD
 96 1
Ni 6.557971921380174 1.7185223847446198 11.308038796967061 -1.1866985776287755 0.62146623021042 0.7172490789397001
Ni 4.676134529028168 0.5047642297043344 6.005208047783972 -0.21594386919260875 -1.4523614113130665 -0.19433503267358143
Ni 2.6732408762346274 1.6129437201017247 4.760196425504693 0.006830906878904365 -0.011573306659896195 0.707569132647775
Ni 3.486160218906662 4.253938089460925 5.094348806903153 -0.6437252987189365 1.269035328155479 -1.0839459824498816
Ni 5.1241572741583585 4.772119266780602 2.7971298458954785 0.34433601931647795 -0.2232231764628414 -0.5982918489764858
Ni 7.294994663267575 6.22386682758345 2.8423695307245462 -1.023416814716573 -0.26178869544086525 -1.155889562667719
Ni 5.141662780569864 4.6309839631408325 11.548131591629874 0.0030814671388011447 0.3116940649117406 0.3423182175555008
Ni 5.766495687341037 8.021686882929796 12.302150588833172 -0.5148307550373521 -0.024745068155163835 0.09174364566290007
Ni 1.7570890614673174 6.45447572996753 0.48960309708653643 0.7605960784667675 0.5696489884288125 -0.15249624226092448
Ni 2.801490308401617 1.6572394716500058 0.2327777664251945 0.29932757292658774 -0.3570313553959593 0.40056630256411657
Ni 0.5534459063135343 9.187253515540405 4.6116342402616635 0.5953841884113875 -0.22013013935981443 0.7724491211506116
Ni 8.732901506793379 2.296722441189457 1.4361644772772608 -0.40073599537276144 1.6388993165397323 -0.4264431703308785
Ni 6.9559698401365 0.9880744382522935 4.83777901116657 -0.9024042448862266 -1.621926693241136 0.793826044164491
Ni 0.8631842445624 7.410012660718336 2.616251131751375 -0.09041644221104428 1.082954822181206 -0.12495381386628157
Ni 8.011883799339353 3.978824278828582 3.6783879574671596 -1.5034641435261527 -0.8699170708917985 0.7051630943094436
Ni 7.869411711573614 3.759391619239171 12.46291752220861 -1.0569296017620378 0.28936094863217904 1.146270037300084
Ni 7.9910135981890145 8.866416231538166 6.866422581858719 0.3045281432909207 0.1471159517856176 0.1705379302539837
Ni 6.760644763662363 0.8459779231695642 0.4916055451446213 0.14831537141035747 -1.5826564348866032 0.06878986508020411
Ni 1.9505862902590074 6.345505089277108 9.252296702349904 -0.7734053144162938 0.6470402220247825 0.7888537877608801
Ni -0.017789232021914854 4.906988963190488 1.5235819747230566 0.11491622712462145 -1.2971451990178178 -0.37962261043291395
Ni 6.285213397065015 2.07511637067415 7.123750797976972 1.5453492137957128 0.13093651381227772 -0.9664748501138904
Ni 3.747615187653249 4.308818988782189 0.7341563857206961 0.0683923725314693 0.39447767316787546 -1.0024836641083317
Ni 5.97059625144484 5.329076277522959 4.931718560143967 -0.9440854266750968 2.7790334161454076 -1.2043952235775903
Ni 5.233418915474843 3.039892571302404 9.11629937851403 0.6036263738155218 -0.7087261290703536 0.8021507619801024
P -0.04563435442816333 5.741451445960629 12.869021627154657 -0.14960555097669073 -0.588536826472251 -2.4157403961104524
P 3.7823442936197624 6.193448168390471 12.725397358785107 1.0385009627432051 -0.5910824757122402 -0.11349337863516584
P 2.3242947505087725 8.510340590473808 1.2883698061854671 1.0356570655365067 0.17068859689923507 0.4893984310071765
P 6.291742723612267 7.7929240157672925 5.787767833106124 0.6502350748129962 0.6035659528912315 -0.7255547705919182
P 4.719057121372222 1.0285053377356967 12.599846957424836 0.7198674903991538 0.02405832650078437 0.5214035231588633
P 3.99065527303189 6.034971046191355 8.246500325970473 0.012109381669024307 0.832007954550851 -0.3939760509411086
P 4.729505862601739 1.2397626984866956 3.928037394565219 0.22606527389732678 -1.2502058541538015 -1.1098107660317853
P 0.14085066865240395 5.6768947758228245 3.549910271684103 1.8588505071195214 0.43507333520205077 2.0057402018269457
Ni 1.4519476237332651 1.0945442923125015 2.462951092565283 1.5248498082907804 0.20796984984819666 0.950616285815079
Ni 1.9026166558067015 6.6056141801281605 4.984983496613634 0.48248036373110453 0.36488119045768125 -1.5261315032166813
Ni 5.916188228140926 5.5895491191565885 9.292891289685468 0.5218660646175787 -0.30197580918271216 0.3453472341898117
Ni 8.634570576493324 2.1600248970971228 10.309455598606126 1.0582112966879387 0.5185691390338618 -0.664912474319513
Ni 2.2698048832787787 5.218268695380523 7.137326886559692 1.6805617292755253 0.4929234134412994 -0.8031812601271459
Ni 0.6503454772841487 0.10041795041508782 9.285398023564388 -0.5545769245870384 -0.4926776159790805 -0.35869588758257576
Ni 1.6258750604223273 0.9726059362232182 11.400621555525447 -0.49135632606449575 0.8328793014122108 0.3239867662361646
Ni 4.090459394001379 6.804558576888938 1.644260843727668 -0.05671493619354104 0.8237724540149362 0.07962089425743707
Ni 5.882177529970001 7.6086933381617445 7.90160729333948 -1.909958124428614 0.5746150741848363 -0.13087455022609074
Ni 5.45308801307293 3.022987253682151 4.766558426691961 0.15757339967351572 0.04283380733607462 0.5533574503576405
Ni 1.1246810446489834 7.448379274510616 7.0609692316581425 -1.1630225741680744 1.0119748914282185 0.6395734813340921
Ni 5.253770771760012 4.523777513745906 7.187717282470047 -0.8973121750752998 0.15974855294796358 -0.6234259250399521
Ni 8.14549855554935 7.1561782708667305 9.098517421507767 0.631375518904332 0.2066732425239602 0.0351364386918169
Ni 4.602238557547706 0.40773279907503596 10.45741941381182 -0.559954643959184 -1.0090024390634558 -0.6498733205982034
Ni 8.21348357681294 7.309835695196705 4.789823926745568 -0.11705744183734033 0.010260501385743621 0.41991745339721875
Ni 7.2721965829695785 6.110567552580363 6.8443947438428285 0.617987013412568 -0.26554687693171686 0.26636757306079933
Ni 2.2525903774933353 5.15266624174281 2.6910519333034966 -0.22753954445000812 0.43431408843852304 0.08467002664557031
Ni 2.119457591070253 5.112871906128916 11.701925422503315 0.8958520455900055 0.9909540662021774 0.029854107246955038
Ni 1.1411498613301447 3.1270563525773527 3.708081843225854 0.43803473182321984 0.8667744114977588 0.504351452772583
Ni 3.7354386302064935 2.8379836056636276 2.7798134898909135 -0.511349738467287 -0.2382682437214219 -0.22697004509978333
Ni 1.1338839394481746 3.46697236512574 8.000338349500367 -1.6297757569719094 -0.9225220986820242 2.25987626581856
Ni 3.720952255290375 2.6420219653199797 6.780202733864556 0.07275887703028115 -0.11717005615580466 1.1360565871021917
Ni 4.173567354050597 6.94606672508085 5.992231238615546 0.1553869335451582 0.08764145056906843 0.2566647439507386
Ni 0.5719389960997352 7.306489187996999 11.311060656593318 0.4291466853049705 -0.8775841005187531 0.35987370994076084
P 0.18213547309790606 5.623359754397096 8.069814748972522 -0.001704127175300291 -0.5720771382543308 0.49546263492338544
P 8.569304592329495 1.7517055498851817 8.056664248805419 -1.372809679730668 -0.5945897175345501 0.5813881312426116
P 1.8271110871133371 3.1832012858680705 10.645138461422277 -0.04227279262628204 -0.5984576851303888 -1.8432359405107162
P 3.7595553070913303 6.190538162129858 3.8778334209309357 0.9032383107517478 0.44199628757412907 0.1838081650003286
P 6.9228958002307115 3.796476011522868 10.46733526014486 -0.07469491771072942 0.4259708586801503 -0.6520258481648319
P 6.263233756027816 7.718937106591186 10.01351614629431 -0.09765281205848343 -0.07037392173787235 2.483925537727122
P 2.5326784800774154 8.70754807724778 5.923978860526762 -0.4139298683552161 -0.3678186758194504 0.07459618734933605
P 6.961344257949072 4.013617041182045 1.6732626936225103 -0.45293864551824575 0.23018803781644873 -0.6045666262416041
Ni 5.758365857350448 2.929739740568607 0.13239982859619012 -0.9579835248134275 0.8061907363774309 0.22154938830484427
Ni 1.2762014331313192 1.0893608436607831 7.08020164490993 1.3688077576601265 -0.4761240824957736 -0.378466899561916
Ni 6.759207948071184 0.5257599248746632 9.025047947819877 0.5483152599480428 0.7838100546893856 0.34801115417522
Ni 2.8481322524975177 1.7151122211579628 8.997137350272764 -0.5997465791451413 0.3772330271548148 1.0121574397526696
Ni 6.558781266871407 2.054109762980344 2.748629135300611 -0.9146984888725472 0.3674726053339413 -1.319829527989211
Ni 4.144039884274932 6.791263485785758 10.452175036904018 -0.3021740412364473 0.7524395107979042 0.4040635170840977
Ni 7.908223920074551 7.458364233492347 13.55947335634876 0.4784696999098147 0.2943630298324608 -0.368127722419437
Ni 7.456590948427286 4.074663516267985 8.115014421215507 1.6488014061447926 -0.9089261051651442 1.0475299057146927
Ni 3.1360864657548193 8.314960951382282 12.446533277584397 0.23054362138365453 0.11456527154310592 0.6896626846809994
Ni 9.154606882804144 4.627983019184573 10.542588022044335 -0.20526119266778198 0.4753676639457232 -1.2158525734849126
Ni 8.749734074257116 2.2489437758980038 5.8249549849859 -0.30822590385748205 1.5841451036169878 -0.23405549119165495
Ni 3.8670436633427534 2.70094959209741 11.282444382528007 -0.30755253193954124 -0.9979994030847329 0.8784058250891001
Ni 1.0207119772189903 3.188630266298028 12.599794213561362 0.1833361104599165 -0.5973665089487389 1.7067360736780477
Ni 3.2809229336073082 8.376616709029038 8.188456613594706 -0.09225246697851855 -0.2313614892992596 0.02810318599411934
Ni 5.550573222803492 7.926556959516417 3.689528734560528 -0.44807051879266696 0.11302518074949568 0.48439737824815926
Ni 2.9884036480286684 8.58065361674589 3.7706642559912233 0.6266061225401467 -1.0226462550991355 -0.6913398152731062
Ni 3.3966138700058366 4.3818965210018535 9.599186726777244 -0.3655555908168866 0.038966096850552245 -0.4632253721562345
Ni 7.1944175718851096 6.029942191622233 11.453447262925152 0.6005762741352882 0.650692216955073 -0.14851128947124745
Ni 0.36979541120619613 9.274917454141395 0.7147375501928375 -0.39437945702711436 -1.263499228828598 -1.4307978262096779
Ni 4.413706526938188 0.460021064693484 1.8775396768558619 0.20031876106084212 -0.5155568345700992 -0.822016647666094
Ni 6.021748705244692 5.724318784101265 0.3730973589350364 -0.2869821639873574 -0.14382056886379746 0.4456796499629873
Ni 7.951583013357697 8.822456949463769 11.20490271882917 -0.22920381952630847 0.2388269444383693 0.039000549632913474
Ni 0.23384901247988296 5.3382064221656345 5.874546947928498 -1.0817829133602919 -2.005029034692534 -0.7023521072232097
Ni 7.884380056276647 8.854457924560956 2.788864518738379 -0.1159076445036133 -0.1965225272432035 -0.711220099136801
P 8.581553899932766 1.6951150218858073 3.5874302555299358 0.14235066918649034 -0.18641629204713703 -0.07489546375730972
P 1.942447366498853 3.3484714539318063 1.486794039327159 -0.8050561085523554 -0.9408347809482828 -0.1380607835618848
P 4.704216089443092 1.0187659105322049 8.167400899545251 0.3939238575469345 0.2698107944143934 0.6082625870359524
P 8.597031495731406 1.4633966796148676 12.522797266659433 -0.5838250228188784 0.006055719275776667 -0.28356439655506005
P 6.284031207021641 7.73419645192028 1.5867236543166376 -0.9881129972089562 0.8075688476718802 -0.40989503616421014
P 1.7283618434133203 3.233444362711481 6.009267506517528 0.39156255640360954 0.27983603986087935 -1.1747015531678995
P 7.09384957427221 3.9694031335598448 5.894724203838028 1.2927905215935478 -1.1805443851019217 1.0114804682903031
P 2.305015959032206 8.31306035354332 10.378785588388295 0.955358685596071 -0.47660539300756627 -0.8148062459605837
