# total energy = -340858.67000829836 ev
CRYSTAL
PRIMVEC
9.41393128604947 0.00000000000000 0.00000000000000

0.00000000000000 9.41393128604947 0.00000000000000

0.00000000000000 0.00000000000000 13.77824001189098

PRIMCOORD
 96 1
Ni 6.970931402758378 4.685087673988176 7.880918716612423 0.2102337061817089 -0.643050641249415 -0.0024214649572990555
Ni 6.701495275002135 5.15454160008958 5.523476391941907 -1.5224841362720811 -0.43687799251095727 0.11743102312667517
Ni 7.3747419859002665 9.443208627006886 12.748839998749533 -0.5703249314499146 0.013396475911564025 0.11122515142627941
Ni 4.077860863301586 9.324310674679527 2.395884113136768 -0.15673779114609782 -0.4351209006105345 0.5865334228889769
Ni 0.8531996560690626 1.101477031833937 9.931547840690547 -0.05326580130267601 0.6617145362075054 -0.4760055546400383
Ni 8.596867961283486 4.1807645463491205 9.817395451131851 -0.48025918771006965 -0.28355231237020195 -0.427203959756303
Ni 4.8544631259496835 0.7101916842875785 9.127822159178983 0.824176117211258 -0.9535704833473966 -0.9382081419587133
Ni 1.1673651370072693 4.170211529361079 2.100120985105095 0.9199152571867963 -0.3176184008159756 0.5865545059348994
Ni 3.6123043047586556 4.133628992326707 12.040486855244971 -0.15501232381455884 0.9818202222217092 -0.8798003914437815
Ni 3.7291500200624705 5.133529705426502 9.789081169958852 0.41371852367535844 -0.3334599958339225 -0.37705999191206024
Ni 3.2954596189722807 8.1959474550509 5.169402432040805 -2.475145220431331 -0.346397529831197 -0.4756204033864777
Ni 8.004750510334459 7.496096974297099 0.9654824388714462 -0.6305342539499593 0.7256241903772729 -0.3439930341547624
Ni 5.917587801664724 6.086266622709983 9.542188583488304 -0.4050690755304766 0.011402328299670684 -0.211163674195146
Ni 3.5454748064552577 1.4090489952891605 11.94559631052056 0.14664338302457325 -0.08779365987621655 -3.5141390636505543
Ni 2.6853615592389892 7.292115910874358 0.17805038965506748 -0.07757918123705994 -1.0843403896748227 1.5534721000131633
Ni 2.27372799918625 3.1784067971798513 4.064208780129366 -1.35590621910711 -2.0700812871071768 0.3024548057016598
Ni 5.390266439858152 8.923183061958326 4.984650264692796 -0.47434976420417013 3.5626958895133356 0.614563846663632
Ni 7.7959024444292755 8.978395769036709 6.759949198627335 1.0260144002404201 0.0544132846435579 -1.2865059741364167
Ni 2.422326904767197 0.3542622385271157 0.353626798164321 -0.5723571313885949 0.3913609819157647 1.8693038412423613
Ni 9.21326394105692 2.0893938103879908 6.24681933825651 -0.36430680601145 -0.016903717733874113 0.09983824974557645
Ni 7.419354606334102 2.829582986765128 13.564071387096766 1.3501016966101909 0.29920750240895566 1.1879463339929477
Ni 0.7317382902485334 7.950667475012156 2.019752370805085 0.6562830807792891 -0.4546844245647589 -0.28318104507371233
Ni 2.8293852942078144 1.5364947972375202 8.278186617500351 -0.1515027679994036 0.5788779632262482 -1.1724076149274
Ni 1.9579565015681504 3.2591218441517262 10.183965463441455 1.6234588136149462 -0.6394554676989891 1.8921378084177414
P 7.9511946551649935 2.642462274301873 7.822995738712581 0.13213901876081113 1.1404732281126486 0.1700612477278813
P 2.754393917466742 1.773198685861361 2.0084264700572585 -0.8189210394599057 -0.4458269741741289 0.5268329217045508
P 7.140184473612976 3.0424790431295956 11.110317955468568 0.9537754002693509 0.3450566995325864 0.7524505665414977
P 7.669878146107316 6.888728954640999 10.64734175549515 -0.7692378133021655 -1.1083912599764394 0.12715956326834874
P 1.0897378595020117 -0.1531241823571751 5.5491726588201935 -0.6044822940579138 0.44146509766100744 -0.20019406255751976
P 6.91406184377108 0.7303412628435151 4.166016681573503 0.6426834877179836 0.652295813996767 -0.19343206124333784
P 4.96366472903736 3.7553395769409117 8.094771228397036 -0.20403889022490665 0.43981444943146186 1.6635826782190253
P 5.224873080836825 3.5753546244035586 4.018988961126637 0.43866593764931544 0.5345187203845827 -0.8051818354969423
Ni 2.0431337519765385 2.1591133856006923 6.191761961044589 0.4761497935273864 -1.1470007448185213 -0.7338936294749167
Ni 1.3530549319128238 5.241206251643472 9.033510571229563 0.5007531938983634 1.1226873648841376 0.7721963817098572
Ni 6.412148682544993 2.5684405324847694 2.3648557955697864 -0.37340979675398267 0.147646627478107 0.7566687183879034
Ni 0.7993425550979762 8.078160346617018 9.722876756693816 0.18679681531500733 1.664182259476237 0.19927232207419873
Ni 0.11846773566691864 5.058848988418353 7.1052456089837 -0.5830449501197443 0.0945075815612824 -1.436679224691119
Ni 7.054282350494438 2.6714101130514085 5.271361897778882 -0.2891151511699601 -0.0724608861738881 -0.37874612136523156
Ni 7.656538605454278 0.8160475761910007 8.878229657211406 0.9796669233241322 0.651921975597116 -0.3687825823946165
Ni 0.9879920900044589 6.974979393217662 5.445242857260887 -1.015687050172483 0.09728154476199376 0.15499278343053305
Ni 5.918359744031379 7.914536806680215 7.160358528390295 -2.270631704562851 -1.1329740915221262 -0.8227249865870283
Ni 0.37949533998540963 4.284534311076316 4.6416131978485895 -0.35208172470016785 0.5851596824699019 0.5119866007203376
Ni 6.00329223222595 4.982106620455357 11.693633380651477 -0.3261446931194319 -0.1054388837618055 0.43777479329361385
Ni 2.409128573083669 6.692655593510814 11.219372701227956 -0.8529994692008536 -1.511840540515306 0.4329079521196157
Ni 8.371376064838733 4.8846630175622066 12.244694794412059 -1.5928071501673602 0.2784155053642689 -0.5024611777284056
Ni 4.512492657521841 5.661161726965997 7.168377315072199 -0.7855159816368987 -0.6825844376779793 1.7398395411002359
Ni 5.547290813953191 2.300058765034201 12.457940107627781 -0.5997455507038767 -0.5243052701866906 0.8297520686371387
Ni 0.6923014492438009 2.6709017607611725 0.3613509287965141 -0.63790997758874 -0.6613648661775706 -0.02575782569039435
Ni 8.789392270313321 5.296183610439338 1.3601577430791731 -2.1621314082669025 -0.1662668136824556 2.2001837350539333
Ni 3.7640568773253245 5.80884748121078 1.9221336687897417 0.21393660895459285 1.307297199850155 -0.31673908353481584
Ni 1.205322108011538 0.6674609087207446 12.171338617537913 -0.5214796278124374 0.14575455266171672 0.45940214175540234
Ni 5.307819229526956 7.551921586910023 0.8781108010768738 0.4068878739067702 -0.3697871123997309 0.06896444298485542
Ni 3.916298974319628 1.5105500025728962 4.531071050943698 -0.07844615722304554 -1.3894254339104781 -0.8907995707677626
Ni 8.352246956435788 6.883824296433354 8.283671173876117 1.5402656286252183 -0.9904539866373071 -0.6890718451745358
Ni 3.0668046416105055 2.615293668568163 13.566110444616488 -1.4917823363128502 1.8587666891564631 2.7615154618663023
Ni 0.8242998283691608 2.9162382243877207 8.333851193281165 -1.1282178077840634 0.10122304590824503 -1.6975446369867668
P 8.704064397004123 6.511606866736485 3.4533227743462094 0.3157759482905981 -0.5569240846629764 -0.9151456037122949
P 1.4231228225836499 7.241676066965412 8.052499852677675 -1.3017284475131259 -2.4287612338501527 -2.7067946732846546
P 2.21270689649536 4.161381261801058 6.776607150063856 -0.5331994873525269 0.8393546247239093 -0.07324712952060933
P 0.886944834209415 8.228331378725176 13.257257245111244 -0.40498808578089607 0.4899149656322789 1.917664491933936
P 8.618463519687204 9.47069730640482 10.872409083638242 -0.5882468060356578 0.16530033600412822 0.1894828467876027
P 2.913687049005241 7.5864801287147525 2.8599353840647224 -1.0727706825593524 -0.2686085465761761 0.10785314963025296
P 4.831577858957775 6.653597192544368 5.448288264036651 -0.12525900381152621 0.10261581249071358 -1.6551317192381947
P 4.243357775567221 0.3283936967060271 6.59090417565448 0.01610179065786904 1.6596725445313416 0.8674282430316738
Ni 6.4036290747178946 7.3481570439071975 4.201605107462526 3.6047712214168306 -3.22486347564333 -2.0366389482883314
Ni 3.184403471418373 8.216196821278624 7.73820445948752 1.325018271279002 0.5918365802694453 0.4025810190013002
Ni 4.7965862763132145 1.6676402741870402 1.0043713890744803 0.08788544825907445 1.1349936930553164 0.4982941908349096
Ni 8.599466206322468 8.78041137985249 3.8751026695548014 0.5444251808650171 -0.5383437505576276 0.24363156491586427
Ni 5.922464218078467 7.470971191655631 12.131299284929936 0.18347289314809695 0.13343022676840893 -0.23012504578899723
Ni 1.5806837907628268 0.39896523270143847 3.3815387239992725 0.8086728793693363 -0.09724863464152929 0.12241459238419562
Ni 5.16706212871946 4.040346347068449 0.16115426575663963 -0.7337866715834073 0.553994312610691 -0.10513780758161893
Ni 6.0931293786281655 4.971817193543734 1.9406235712573716 -0.022379139026148555 1.24286406907675 0.8099206357335084
Ni 3.6299930816725996 3.635735579766003 2.3777660609555142 1.9965299960825873 -0.6272373283662424 -0.9753796088026879
Ni 7.615192619181771 4.420254958637957 3.5155733364649655 1.3246128083104671 -0.010842599141458747 0.09214859441080259
Ni 0.14073639015863418 7.193796812370246 11.592900550161875 -1.3408233566320586 -1.1011248082220133 1.6448354795185092
Ni 9.260945503094772 2.6429423847982068 11.88695599105561 -0.013802453100731067 -0.06868804939501719 -0.8692305863477353
Ni 5.1542309403566575 3.073187287032354 10.290389015402305 -1.0312010866476822 0.21130431353806833 -1.7492376944856842
Ni 8.609153141630848 0.5022172312070974 0.8188463379666874 1.472469237806535 0.11306014775248914 0.6216415794460197
Ni 6.837884311686123 8.171781893402102 9.127987844369875 -1.3599780751836383 1.9159716776125457 2.1620447620903667
Ni 0.7550340046451511 5.311829564261037 13.529831977563129 3.088270534876223 0.455958406181176 -1.1716301133314273
Ni 9.09960954846403 1.80660872804741 4.021551433226677 0.007141753251103829 0.21335888207425188 -1.0046081666505022
Ni 3.1960955740937953 5.1721927212783205 4.148834374163536 0.8975980817468348 1.9652985488721315 1.5288496734787929
Ni 5.817131740755362 1.9709100710378609 7.247381850726742 1.2409385699192628 -1.6124665762695003 1.1216455538831844
Ni 4.458588486894252 3.1478021065213997 5.950918766827848 -1.3252715249403886 2.29634273617571 0.5417070106029057
Ni 6.366246353522967 0.9496962174733665 10.77776612530704 0.6744705503215932 -0.30748696880892856 0.5123910352476079
Ni 6.615348389669779 9.490372422823201 2.1127554223037133 -0.32103565402764067 -0.5113469102538097 -0.048389704157297306
Ni 3.3382176949398863 8.67303607943714 12.353542433682831 1.686528231271605 -1.0490216597688709 -1.9108554394319026
Ni 0.3764602885340763 0.3063942806495104 7.765388127511311 1.2713164108801718 -0.5901339957560418 -0.8632566281524876
P 2.899773258542863 5.147236389400266 13.888328602389281 0.4015911442842051 -1.4249508805105975 -0.32202218631062607
P 8.472952383572874 2.3792016854788653 2.0066491198276935 1.3450049988135737 0.7716775330919097 -1.2706800628477535
P 0.9068101120400716 4.743519945571383 11.281361556056552 0.5680091388325443 0.5350334552374721 -0.2610047660869892
P 2.9448754034043336 0.408574032380024 9.971216264405276 -0.8019198769162189 -0.8937432267771188 2.2271224684263062
P 5.132287066494815 9.446880060214145 13.632397700476968 0.5583104234875417 -1.4291759743355388 -1.5048638520871567
P 4.282783319854392 7.360931748682196 10.619536768005515 0.9304968893573846 -0.5323744203480703 -0.5273566554185046
P 7.057784332938283 5.681034535941694 0.12874492446785116 -1.3830580969315536 0.18234469308092466 -0.8539404929578841
P 8.01344898285627 6.718073208022601 5.892994847534875 1.2704350367164832 1.2210626569309422 1.40573291282125
