# total energy = -340898.16471519653 ev
CRYSTAL
PRIMVEC
8.99507163148050 0.00000000000000 0.00000000000000
0.00000000000000 8.99507163148050 0.00000000000000
0.00000000000000 0.00000000000000 13.16519656845082
PRIMCOORD
 96 1
Ni 6.538643524243651 1.7661643312664115 11.38832921633535 -0.191204971685032 0.9106484871728897 0.44299721803481773
Ni 4.568488957759872 0.4408295726479066 5.973325757781727 -0.2219615361415984 -0.8263911225847058 -0.3367846893317813
Ni 2.551928816556699 1.4796712987382719 4.681860142503197 0.35386941272820993 0.72376682545356 -0.026904023479695602
Ni 3.388011732740626 4.224355506002836 4.77408211474793 0.09017938649957372 -1.0684167764660308 0.6903723091535143
Ni 4.9072613468046065 4.446227943690092 2.596136895268349 1.0244110603090422 0.14487446404960858 0.10763794829565335
Ni 7.324668866612221 6.068138310665961 2.7041973897006977 -0.3555835672058392 -0.27191215702811233 -0.7797757367190119
Ni 5.122738288538095 4.649138770307668 11.611492446806523 0.19556170599183093 -0.26398493176123566 -0.691855321456944
Ni 5.742867524190292 8.097030695121758 12.471627285115316 -1.2436587970639033 -0.4305047419947618 -0.1173109526090431
Ni 1.9058577942228327 6.372639476667298 0.5069433493851697 0.6374232677603087 0.060947229107333745 -1.0707929900076913
Ni 2.8108159741451573 1.4160761420671903 0.25002791150566495 -0.9453545231955073 0.6696337910545822 1.1642420483974723
Ni 0.3790990943329658 -0.03304789329696659 4.722895659438624 0.9220626425471022 0.19049123344745902 -0.15861392512288813
Ni 8.527867642657089 2.4434032769192733 1.3553836950223828 1.0481747383875433 0.5541323808504521 0.544854555092952
Ni 6.803188581909352 0.608257540068818 4.598984949225496 -0.663724881769315 -0.1243686307867729 0.7550869757230801
Ni 0.8117242621152864 7.298897986292186 2.4599173289889253 0.11115676008218922 0.18504229451774584 0.6275088368600742
Ni 7.483494846999957 3.812983893550421 3.7677215924396408 0.8761710222213104 -0.469830536177578 0.44872563587816267
Ni 7.600799576582357 3.937538650894759 12.518298214448825 0.3873657447134426 -0.6220149036250384 0.34717271743432465
Ni 8.008609140655459 8.82779931225264 6.726243839380342 -1.1214102979439269 0.0004972513513926921 0.4708191253430924
Ni 7.065961610457062 0.7335876725906729 0.4806228701864071 -0.21304495037825888 -0.1799628231123094 -0.385952923526316
Ni 1.873763378522349 6.357635697130188 9.157579328153941 -0.7712895536248717 0.2997710882219095 0.0622741754488734
Ni 0.22866551580861383 4.901666412229018 1.5639731103820307 -0.3115050888293861 -0.9479618789113675 -0.597210700097165
Ni 6.30122760271939 1.9876140005854155 6.962585749347811 0.09635826161677598 -0.11851371466789266 0.0044418378214375115
Ni 3.4666916245938015 4.27614013357786 0.4967609282604647 0.1493551255287815 0.24814693628771456 -0.32088601582365384
Ni 5.939077022417492 5.433194191981618 4.741550538564531 -0.8883935324294313 0.7116903539050001 -0.07164918890587015
Ni 5.196497876190551 2.8155743670559072 9.56421233685327 0.04528766819320587 0.0385943153334303 -0.4032731599723184
P 0.20897080639824137 5.440893973326801 12.472206567730538 1.1457115936934525 0.5836938965576528 -0.6793916417722945
P 3.9990559460112407 6.198350968087542 12.562414543429494 -0.40098616371035456 0.5429601662837165 0.4819478882664023
P 2.4766760470078633 8.393562227627964 1.296574815984212 -0.1983305269862197 0.2986187197850212 0.6747929666580186
P 6.116423855363325 7.791504090950618 5.750834459163923 0.8556016827103909 -0.37012572668607224 -0.116656863964812
P 4.644884101410153 1.1530062761545377 12.382446546600496 1.004562143903915 -0.542733137874575 0.46721983802760825
P 3.9548091884914314 6.196533963611225 8.097965283067744 0.13377475459202123 -0.8881060830959996 0.8254524128205204
P 4.755856300540442 0.9158332215652296 3.6968925991356194 -0.6809605289213111 -0.14137082177172428 0.14263760429928982
P 0.3185757546354591 5.546028370946546 3.674853774049365 -0.31885561565718634 -0.034486463812643836 0.11790256344645501
Ni 1.284936992264121 0.857933744272384 2.5179094555199195 0.28819726734138107 1.275249427385991 -0.17924008601367197
Ni 1.8994712933407296 6.446489015036405 4.867673136900067 -0.11777709361218427 0.5779076288931788 -0.4378298149012653
Ni 6.0915344920664545 5.766029833727496 9.148112914733765 -0.8602175842158477 -0.1533454776350972 0.9479474807336641
Ni 8.61465209408037 2.340265785209143 10.095612386588227 0.0390897669126101 -0.15448576188712748 0.056926795094030994
Ni 2.3201168246796917 5.200059924569865 6.947432651621063 0.06360677821736789 -0.1805094396443988 0.18564059022337706
Ni 0.427068912014891 9.062444751704103 9.038908247185637 0.7875733783865598 0.33610848920036307 0.30212930404144095
Ni 1.6273074099748293 1.2168263096172427 11.182518378612999 -1.0218846943427626 -0.4259978552633437 1.0365587514151695
Ni 4.072923474523677 6.887508383696441 1.7126868312040475 -0.11850214470366688 -0.6098399588254013 -0.6886733241845365
Ni 5.541314953394122 7.837289005725131 7.926383391551966 -0.2493245015355835 0.49135246940975374 0.012786096021074753
Ni 5.299788284118986 2.8112027622267495 4.777254676524152 -0.07995719455093327 -0.16619199458046216 -0.09641791121011782
Ni 0.8272380622157975 7.352076849975274 6.917916223459749 0.003618570589193768 0.05103279820709922 0.21488920267584927
Ni 5.029729247522679 4.316483029995088 7.337279957086459 0.25694756529848006 0.8873918306377943 -0.3714958675607215
Ni 7.98131809322405 7.325586363922045 9.003928212495042 -0.19334592928743474 -0.4969988690622537 0.21318456127991672
Ni 4.529792159457326 0.39658191562093104 10.301094904194807 -0.16905183262676046 -0.6157822924517653 0.36537149983053846
Ni 8.017739138395367 6.98747061510885 4.765893001504175 0.1830322060662525 0.774605505371982 0.12973529441532494
Ni 7.14774480203464 6.168559290733282 6.83862196821186 -0.09525962923595852 -0.7393250849031332 0.9272673266764934
Ni 2.451912614714301 5.004084298205953 2.675865612477656 -0.69454263848112 0.8197206525430656 -1.021281770651441
Ni 2.373565540512728 5.096922432859735 11.390356705488625 -0.3744688341461163 1.1375655675475504 -0.06707339660972965
Ni 1.0515148825590903 3.418190198176479 3.6547767740932335 -0.8150489580990091 -1.094849773846579 0.5642522428932734
Ni 3.7263073829871196 2.378009105915205 2.4227649844912498 -0.5314984455010201 0.324533382768254 0.26879675132758224
Ni 1.16152460902123 3.3388176858051035 8.112104636217854 -1.4324998965024491 0.5943598609119313 0.16765572361018224
Ni 3.653069509491229 2.5613646467332147 6.769478651337847 -0.46188402763699166 0.00969897245531878 0.4704568569076672
Ni 4.099198078856948 6.693565643528805 5.9529861017329795 0.5438937338415795 1.1678269375352532 0.13809420790298155
Ni 0.6882992857720643 7.40501284672341 11.416252617304803 0.9620499815733174 -1.2401800944866834 -0.19087972713512932
P 0.037821577829546926 5.631958290561659 8.00457125298507 0.4006382934526326 -0.7690424094619077 0.45371100490789606
P 8.40028154616167 1.6547063982662176 7.88657120436297 0.14066196863015776 0.37851677896324487 0.6900475788242438
P 1.7714804186203874 3.274260056465874 10.339695455230537 -0.48650851105389115 -0.25180870141001793 -0.9924219089969553
P 3.847578939173756 6.041989637335998 3.8398926504360706 1.466244854163378 1.4836545649993933 -0.4990976605728115
P 6.826413856948211 4.009598170002543 10.461802653574846 0.31848152014721925 -0.1813872142636618 -0.8331888622328295
P 6.222061976996307 7.816123602097542 10.3220669137816 0.1963507775520296 -0.4076427497949237 -0.892873936798288
P 2.353875328638188 8.57804215240409 5.82620506415157 0.06014170248690288 -0.6617875555372861 -0.6065373768147296
P 7.009346629397969 4.049500307908189 1.6175945315910338 -1.1539005572621481 0.10843190495185841 -0.16606832451840434
Ni 5.453684965234337 2.8912049296146702 0.30396955726593966 -0.055826362941000636 -0.02920130415430455 0.36598110839007936
Ni 1.513186935761815 1.1930973105651475 7.029346271737783 -0.7394243294851589 -0.01787970849389824 -0.5822003427312619
Ni 6.7522135107841725 0.746001770995448 9.160027786661136 0.38645197464992154 -0.3424717124142295 -0.22604239107919133
Ni 2.7157920370767976 1.6274243459064734 9.122612786070844 0.6728476700061895 0.16309355816079654 -0.595203182748833
Ni 6.289246167261698 1.9932898908059886 2.5395794826679112 0.6009408565635586 0.3013160641115262 -0.37346970345764063
Ni 3.9970320548866303 6.906425019407797 10.289838471513308 0.5168668116307744 -0.04268005536702972 0.2674489790504362
Ni 8.262944791981461 7.022704310820395 0.48373786350397363 -0.024866681334692657 0.8031172396584297 0.2197771268957699
Ni 7.39286949997575 3.8582830744550276 8.249022220058476 0.9786680497459727 -0.05257288900070946 -0.15344729332028412
Ni 3.0077360830338873 8.327835238972293 12.250281059120459 0.7982604257867607 -0.823098567876363 -0.11886209914624692
Ni -0.04238387817800133 4.7505851885447905 10.163360567847008 0.36367508596472203 0.8004371217231054 0.15072346663121783
Ni 8.40351077688938 2.2264781286477313 5.739631097405249 0.8751880894827507 1.0096277313522806 -0.4369576967089572
Ni 3.5613107834372397 2.831783486196118 11.527196032205762 0.37580683623124955 0.004252604628766869 -0.4669131054204668
Ni 1.239979624082782 3.275483386212305 12.55445030697736 -1.0051668673674496 0.656796787190914 0.4753802623512136
Ni 3.0542585936849247 8.336020754187382 8.00704669670726 0.1525425221178276 -0.011084797059251876 -0.0032419039760653847
Ni 5.522956012125992 7.6609676109491 3.4693316781274595 -0.05157812918760794 0.43686050900946055 1.222417885407256
Ni 2.982100128788826 8.35177112467268 3.5524443412971145 0.7273990228895085 -0.37870164128054135 0.17391250315317147
Ni 3.3170226271609686 4.209198810247423 9.106722092467573 0.33742386557767695 0.6997763760762336 0.1805392644410697
Ni 7.3239222756640325 6.255586609091516 11.519073482492328 -0.43349107831659534 -0.35968499096872253 -0.7016136863952884
Ni 0.659036518631702 9.046433524140522 0.2107968059462229 -0.3988488056523776 -0.5433286053667288 0.008725295688139812
Ni 4.6907949471879755 0.2930936161158683 1.4455646855063424 0.12968901455842183 -0.20877974734400173 -0.1805243520427343
Ni 5.977261101635135 5.682897381400179 0.5730391359791028 -0.25286696747120324 0.33046748886450183 -0.6545835815896791
Ni 7.973762233025505 8.845780460510843 11.292855525683741 -0.05142154900508564 0.5514862014768567 -0.11823886373995122
Ni 0.0782040525621005 4.867269258182311 5.835315272733815 -0.4640450398440524 -0.790779029808051 0.026689593476044354
Ni 7.958002867468542 8.818048654567852 2.552073637210505 -0.09825162198474692 -0.7939252887465166 -0.09456183183798553
P 8.42442431851035 1.688995611452945 3.5123820911158328 0.208638336670131 0.17077807128924782 0.5611185823602982
P 1.8605316281032316 3.1727866530137563 1.5102986182502045 -0.07764063060261467 -0.7657632244900038 0.5995074665511416
P 4.734654916626193 1.0789588462088031 8.177470022992594 -0.5950190917624849 0.14512797482131135 -0.15418879947199896
P 8.66960298688145 1.7343667529308708 12.434936387794052 -0.9768811330488789 -0.6792036941312044 -1.1524070034357572
P 6.3816435434038965 7.723006620222147 1.4510678703509488 -0.17887318959255646 0.013892184601059943 -0.3247712098106729
P 1.7318481328646895 3.294642888858614 5.892715523549256 -0.172975850271515 -0.9283389624741173 -0.042299532099159404
P 6.79062246679344 3.9688684855037226 6.041363580348119 0.549107416832035 -0.1730514407044568 -0.25195602562115965
P 2.2230420112717266 8.408296155015126 10.14094035172216 0.4980527642480648 -0.2780915463659469 -0.3421384974445269
