# total energy = -381163.06348785927 ev
CRYSTAL
PRIMVEC
9.33000064759136 0.00000000000000 0.00000000000000

0.00000000000000 9.33000064759136 0.00000000000000

0.00000000000000 0.00000000000000 13.65539903867267

PRIMCOORD
 96 1
Ni 2.4950754158980906 4.819878320474725 5.587857728537838 0.004350563659211862 0.36373062179300586 -1.3185228933626454
Ni 6.545284665197357 7.242562261559492 11.125845670759823 0.9572006239008161 -2.013312871967881 2.6527865944993154
Ni 4.943687428706819 7.926255377018391 9.82148172803239 -1.9534231375907845 0.0017606914448485805 -0.07417221243804001
Ni 3.34996471273986 2.5932550124260723 6.682092330293727 -0.11503938296604704 -0.7864950577207165 0.16859906136005803
Ni 3.5549354963684108 4.160480526631227 12.279576753471646 0.32412971957193215 0.11760045882500393 -0.30663696210380736
Ni 3.976922094426388 8.624270043429533 7.604118445599439 -0.9535303741380803 -1.1628184285770684 2.0976908212943295
Ni 9.311657839134092 2.771308744264903 1.9622400134697522 -0.06336817984400055 0.2816550953474891 -1.2220268206164244
Ni 7.698220831856325 1.7072501635154234 0.2252486069768274 0.94616390647068 0.20785080777182913 -1.1438004927136687
Ni 1.7582666069075175 7.132916094269095 7.097953782944444 1.6305519730163016 -1.8144259582575588 -1.852399095067223
Ni 1.050334149836939 7.340228708053354 12.023715481459378 1.9935637143654117 -0.7769485516828619 -0.06231017089313139
Ni 7.069136210028357 3.8153544736837235 6.482340749012202 0.3346735565260494 -2.264732051248964 0.6401740910325685
Ni 6.7753718104958995 7.817103699760873 6.427227502347712 -0.45375342811005726 -0.6205848560467313 -1.788657076823571
Ni 3.425332457751077 6.641691561607472 12.37609281088902 -0.6827281623446951 -0.9504267955120922 -0.003480759459748844
Ni 8.072913656769732 9.218003292906982 1.8020075158158597 -0.8473749239252246 0.40146336045708925 -0.761546615305495
Ni 2.7108783302468717 2.761782813631522 1.1634622733588518 -0.8830633784657695 1.0514305263206796 -0.633440886073793
Ni 2.783876255100519 8.934828444078626 12.762731768596725 -2.3178536136642918 -0.9803312963810085 -1.3927889510660725
Ni 6.5495671354821 4.198836159181501 3.885275364332778 0.8925173247898177 0.5418556203656281 -1.130552369454511
Ni 5.30982464305136 5.340594985097287 10.550338577494236 -1.1270384427639815 -1.143844715688043 -0.19771809021320141
Ni 7.904227245553736 6.83576490451145 3.140578039817696 -1.6404144676326782 -0.4607581415626646 0.21391886834277998
Ni 5.578463350913204 0.6765799229859417 6.938212976323243 0.6878960796988799 1.4616870595893665 -0.6251099976105944
Ni 8.49019793451505 9.23169040381704 6.654890713485087 -0.16930508628814714 0.620504637628099 0.18869171834487505
Ni 5.664019456601848 6.129679787563701 4.778379410715455 -0.3118614437275403 1.5733331006031483 -1.2097647154196198
Ni 4.324380647528981 4.649325909134659 0.8095305658258579 -0.36298423054528456 -0.4920014158476624 0.5277487486506008
Ni 7.9868070810444864 4.15106655600529 10.95287305725884 -0.02623142289270321 -0.11727058628941094 0.27354249354268373
P 1.6212462177970028 9.263468385929965 4.928438475692913 -1.4565330261922527 -1.1900027023013442 1.4289977968864613
Ni 7.344679118349263 9.372638723188723 4.332762720086307 0.33462213446282374 -2.0335646802383813 0.6432586434951632
P 3.9614156333953603 1.4409159658068063 8.597671144660968 -0.3451235482147798 -0.2617784110282201 -1.4498340169055224
Ni 5.756470432748933 5.874504270597027 7.105122955421123 2.9239757573184737 1.0037414477748325 1.9281970160341437
P 6.249225085512293 4.044956458950008 8.51897538842847 0.5883005420917287 0.34513820350279917 0.7494151221492835
P 8.460192652519993 6.409355886159424 12.127619033367946 -0.7771994913514034 -1.4504978757417664 -0.48996818746771753
P 4.684742591489522 8.356545675628483 12.477785152650565 2.768933351596928 -0.4340664912040912 -0.9566768901868621
Ni 9.17603695011663 7.62790994718134 5.000197376464178 0.6120477651099975 1.6657861136282472 1.021041629616177
Ni 7.855422012308665 5.538988118288487 5.5202637400435 1.5455744424326412 1.8948384951783563 -1.4883293447672432
Ni 8.795792774834116 6.224444603864634 7.545932829730664 0.5620835173767287 0.537868610693422 -0.5049386927346207
Ni 5.131677611206326 1.3567780202124566 12.171193868265245 -1.0830448107918509 -0.7349362118068182 0.37012829778923356
Ni 8.925601073465096 0.3523987884310697 8.958925036680814 0.7557120109015888 0.4765912519401792 1.0241400660358426
Ni 8.766692502899232 8.001893692047599 10.547963159336295 -0.6002448589377984 -0.15814392746500508 -1.4029304103754485
Ni 0.10540008400807381 1.3861675221665708 11.59041625764922 -0.5229842373824218 0.616613530103809 0.1625276583549975
Ni 2.0738725378922225 3.664992183686103 3.255474198457166 -1.619965969970339 -0.6392623778515765 0.9189984017994818
Ni 5.090821538489798 2.665618497237536 4.6204411602141064 -0.09281785256368531 -2.7054772400248117 0.22950026772080478
Ni 7.177373547225081 1.9612034504008309 3.174498190073054 -0.6852301028309425 0.3684794493319009 -1.7217528588018538
Ni 4.8712586338910135 4.245308892271483 6.047552457103038 -2.1883270928256637 -0.02538604417327241 0.02706985963359854
Ni 2.5941600224862467 1.6389358989731935 4.2998530088981335 0.14224191152276794 1.8537782348029364 0.8009032627262465
Ni 0.970357384519267 3.1078138766391996 13.194460753302478 -1.2040095581033974 0.42601199633073084 1.2491010511253973
Ni 6.063548743166634 7.680708420691922 1.775980546085321 -0.8362718720335275 0.8065761447413077 0.447970502879693
Ni 1.45684227686575 0.04672650910685544 7.470991465747797 0.8742738051985975 -0.47175603533506494 -1.2242490250787237
Ni 0.7309663626021075 5.71048285969121 13.714117529854565 1.3978468252049538 -0.2821325492045399 -2.632579266313505
Ni 0.008034063534186578 1.0606251405211893 3.496164889460741 1.7084792816213996 -0.780693620547591 0.9500529571124412
Ni 2.7763002945967923 1.8455860827134076 12.446159249547753 -0.3628320212381364 0.3438688498720723 0.29565063829563276
Ni 1.2943509860616698 4.357800709751087 11.421047823387877 0.08928130016533656 0.051618238396924 -0.9535905379520544
Ni 0.3322151980890585 1.8814599350986678 6.201107473312943 0.1857606607410091 0.5114507828215256 -0.220153279288266
Ni 8.706262088881202 4.012730636807306 8.575276344171932 0.08680429937975373 -0.2870767805836927 -0.7135649452198936
Ni 2.6654412272257493 7.07054504012203 4.135018954938282 -2.1840536622612903 -0.6411084299213797 4.084436227186326
Ni 3.892205688793577 8.84683720822807 5.365247645736447 -0.17091202576395081 -0.05757497020099117 -0.45114067307755845
Ni 6.822208413610075 0.009866475656024047 10.758310822322356 0.2656659190080844 2.7570371143799743 -0.3779033137489621
Ni 4.550773112581863 2.728110841392665 2.3376811044329093 0.1640932030699045 -1.0167509726606232 0.3535238564633331
P 0.4522409910695988 4.097633642452525 6.375978741940171 -0.2737201567711286 0.7769459805797007 -0.24485823823411376
Ni 6.015228669953823 3.7203750673685225 12.652163797245038 -0.8826291191418284 -0.6111468505622829 -0.8480081866338492
P 0.7317342216531627 7.695841681698136 8.75793069931666 -0.7191378113219808 0.5963411530080182 1.1308853273138975
Ni 2.214802197262665 9.079536753700312 2.8630730323663296 1.2806847394689493 0.8712136782160351 -0.31707306983546685
P 5.621213413755665 8.182690444068813 3.969870479957525 -0.5117212628740929 -0.069785396224254 -0.6630502242997935
P 2.9495490761161394 4.975941240851382 10.064152245167605 0.2562371694950168 0.017995408136156105 0.38464011825216343
P 7.025593097133166 2.05535248666082 11.461235868059989 1.8887130990069085 0.798848694190063 1.560421534747803
Ni 6.686932734615567 8.920217663107152 13.144563909984825 0.32583024720280657 -1.6450303691381347 -0.6471402379377565
Ni 5.584443881310851 0.7096370481839168 0.9082093173870289 -0.5863665582938096 1.6613902985533968 2.4345194764901685
Ni 7.157370025895042 6.11908090685898 9.204886245034826 -0.1794419176118329 -0.7667037340264021 -0.20258210317372208
Ni 8.893589841336663 3.354844303064305 4.307499877406575 0.4188345047456851 1.029017448732802 0.5805748913126969
Ni 2.5013545063155886 7.266950883181096 10.13003884354842 0.02589255149604573 -0.6042238981902046 -0.6794417782839395
Ni 3.050527672830228 0.28443813091235126 10.183159202080402 0.15873682385399757 -0.3040535176473473 0.10060983780427833
Ni 3.9207368306906187 5.903203352505236 8.312860746723864 -0.8726902627615616 0.9480976331582832 1.046872474636352
Ni 3.6671007638263027 7.080761390801318 2.3980928584496994 2.949652079038656 1.3554562760538849 -3.3134366939980486
Ni 2.3936303191529844 5.375918367445945 1.8981009242051305 -1.4371379094950927 0.02495049929775058 -1.0382258547049474
Ni 1.272808014629273 1.071354641234596 0.5902951442488487 -3.021478931172971 -1.187707221398948 -0.01621697607949465
Ni 9.092486794561363 5.132190761240445 1.7551009376970312 -1.2062075941959807 -0.9196990274109321 4.03409531283993
Ni 4.186800458381245 4.598738645771102 3.5018720508402112 -0.26653418054565065 1.558606078805619 0.5858968177462426
Ni 7.5708010133841555 1.867912774197914 8.019952841248355 -1.0753728960688897 0.4144206919487057 -0.43274854372361604
Ni 5.587933301542863 2.2917000623756203 9.91700134138351 0.4761819323169025 0.7157341849570705 -1.5444801809271982
Ni 6.688136304695592 8.59145643124775 8.563369397380237 0.9690796347265892 0.16051705568287192 -0.5348442220448014
Ni 3.315639640457579 0.4952662889303599 0.9815375242626369 2.4306880185592203 0.5191772049315059 1.7150276242628788
Ni 4.4271692643634175 0.715808843594281 3.3939267426629045 1.7171492985915715 -1.7181065202985184 -1.3348452846717527
Ni 2.0928684191552622 4.530004531200956 7.828940671547915 -1.0084257406243793 -0.5085958298712338 1.3163174010708945
Ni 6.454242519143945 3.344142792352759 1.3909659414856188 0.5141846368129208 0.6082669579113266 0.1269531036844975
Ni 3.3054792697820137 2.65200602633244 10.376573846940582 -0.812041281620937 1.336761270747543 -0.5007652780832215
Ni 1.5858855154458622 2.061314357057226 8.378379743080236 0.8039245660510735 1.2470721936208264 -0.14442220700353836
Ni 0.32742704177069304 5.841755968419585 9.930752829297848 -0.08282577434797994 0.16489255904274827 -0.3081408003428435
Ni 0.4902047635938181 7.912801516123841 2.421580202011378 -0.539449839137613 -1.67941244616243 -0.8777401664806431
Ni 0.5200505025782676 5.83210874777814 3.944757850287781 1.0633265064273172 -2.0575193912817658 -0.3191302094748117
Ni 8.938476474321185 8.852855058628199 12.682711152276138 -0.442531848362625 0.6827955252475209 2.261338452186383
P 6.179072810847853 5.534276467975209 1.5099458413966174 0.9776527211075808 -0.2771271255701485 0.7770547382434231
Ni 7.996500951689034 4.263241153463803 -0.06345333421902556 1.2003326234724425 0.5302658586454997 -0.7088927365552049
P 4.004520236261395 6.676324523910225 6.097899939450653 -1.584501458515142 0.05915799841739489 0.3326066466946917
Ni 5.586076631419412 6.106811956043214 13.193245987221706 0.8097625128890893 1.0343018370601929 -1.106240532182024
P 0.41399172052639677 2.660664266908128 9.968345267797378 -0.48490774222567457 1.0476882856694278 0.4477290762928483
P 1.8384579622394575 7.421968843488273 0.6636728001277443 0.9504411936897952 0.7743360537606793 0.434882045126851
P 7.457889345876635 1.935835178714089 5.327162583204163 -0.17213638508935517 -0.10563454471237936 1.2871965724455379
Ni 7.893301814827302 6.931201480857048 0.5020967823845209 0.202729941605496 -0.007616378894677206 0.08713648590819187
