# total energy = -381173.8974002038 ev
CRYSTAL
PRIMVEC
9.21150521330075 0.00000000000000 0.00000000000000
0.00000000000000 9.21150521330075 0.00000000000000
0.00000000000000 0.00000000000000 13.48196899288119
PRIMCOORD
 96 1
Ni 1.566665160231582 3.448750679574918 8.235972665921697 -0.15227435605810546 -1.5111900514155006 1.0423275355781467
Ni 5.62874548675288 3.6114074373926672 2.744524663327474 0.5147651919067392 -1.0400518521700926 1.8112838130841515
Ni 0.42548034371262894 1.3278845239108386 9.945554328449257 0.11968510926817452 -0.8040248390743637 -0.2339739872214422
Ni 6.338980167805201 3.9126789246045424 0.6604050439804495 1.490368229574143 0.16312466850904808 -0.5120421365486214
Ni 4.836012565638504 5.49281130535541 1.7821139751752397 -1.9563894193079596 0.8974749259054092 0.42055457276058533
Ni 2.942873240123387 1.8751861019911167 10.409266103108019 -0.6007832479397717 0.4802195927213859 -1.3352412345585907
Ni 0.24816255430904197 7.579493565433259 9.66797391131505 -0.21180053644819655 -0.19439442515660715 1.5018793155375358
Ni 7.791220011148569 1.8167206788475414 1.800638312018115 -2.092876173514505 0.7522829306153819 1.7494310414434129
Ni 7.643716179291303 2.232758308637927 4.1819588544542565 -0.649876663032313 1.0832317299916765 0.44465069447784067
Ni 9.06817412312293 4.259501304749296 2.1164934541726264 0.38562999296925843 -1.2347812920686154 -0.5868113591407119
Ni 2.5384605298236576 2.4567176331833416 5.585512208514018 -0.7064530167654608 -0.11321338550090178 0.12283471064074972
Ni 5.915600968415725 6.936825274605945 9.28474858399508 -0.0013341454303912508 -0.2777984406055603 -0.4615626397418309
Ni 0.08937186519987331 6.090158990878424 5.572313042794398 1.1943506948573945 -1.4537207535544383 1.0667224194827436
Ni 6.2882708319921585 1.0925397790084903 0.0690604963592268 0.09285899021426589 -0.833385808734984 0.2762020426527179
Ni 8.015114855157982 1.4724130396068675 11.859952886684251 1.3453055607731281 1.1937223172447764 2.1208585176600443
Ni 5.483903779881984 1.1354285469549983 2.849225394236064 -0.30646392686105284 0.22513299189104455 0.5419229832684539
Ni 8.035849953235214 5.118814985038363 9.692969330520988 -0.8637111991914029 0.20952228193698108 -0.461158976545509
Ni 7.5153354321112165 3.8844272383305 11.940602377664076 2.027110697082922 1.7972761859511497 1.6029799769353037
Ni 7.932939017775938 4.832079252942378 3.9736084253739103 -0.5361058623660445 -1.009984343360751 1.202145251201149
Ni 2.696511535069831 4.4762848667881965 11.257281872339009 -0.49701635256375043 -0.2834479255818538 -0.3203861933690998
Ni 1.248822175267179 1.626761019785495 12.08181290920754 -0.3403024726770526 -0.5795330803117439 0.751153444996629
Ni 6.849758127992888 2.7121803053183298 10.239932846362512 -0.8857126431631585 -0.32959588489282593 -0.9787991760071983
Ni 8.651869359683394 8.669186989352516 5.737642979404689 -0.31121532550310915 0.36193753444832505 0.5808566842191739
Ni 3.5475901297609216 7.049537251537533 5.815514280433339 -1.5124838305262598 1.8517033545517785 -1.3326711598385694
P 8.720679303102726 2.611876225814566 0.25718061784418617 0.9801333214375894 1.4323366314517074 -2.3816475681918017
Ni 7.50996512461276 7.666984441282901 13.100901067355064 0.17930924868871057 0.32363169688959104 1.2073126543347015
P 5.744506471886851 4.886390287266393 10.168748176917276 -0.8086188862029494 -1.7573731791086251 -1.0856130857396593
Ni 3.2900825034841534 6.885388229886593 8.574127940877261 -0.19659168991824208 1.2892305721564314 -0.8490309714714087
P 8.459956861530998 9.105195162293251 8.036952570400848 1.1399448664130045 0.11310668471970844 0.3761397940906361
P 0.5733581626787074 1.5537137840003123 5.112416673565931 -1.0825575867427872 -0.3669164757201552 -0.5289080590660246
P 9.018791244050501 7.284633285801016 1.5511548278715452 -0.4614073451108892 0.32281460030493436 -0.7504193950440818
Ni 7.59587162157778 1.4629251893094228 6.57835126160562 -1.1993345212252313 0.05371163059084298 0.06987769882774417
Ni 2.685918304155208 6.977567761854099 1.3522010551877268 1.7924484255452033 -0.4983376424783353 1.0262959360365809
Ni 2.2417487376576415 8.807424047035774 0.13852814124578083 -0.20345216448350123 0.692779118822794 -0.3255615669224522
Ni 4.6237886986454635 8.395586863590664 1.092117892072934 -0.07150957800421233 0.7064021089228674 -0.7330618776022407
Ni 8.418422184840534 2.635291871888454 8.546813064676277 -0.38858496183252433 1.4183452022686218 -0.6240059659131382
Ni 7.145005290841143 6.605505857617113 5.529117531726623 -2.3278091822151072 0.5075087674546421 1.3341377170817668
Ni 6.8703366304826865 8.601270561932068 1.9222725528313582 0.9774130942929489 -0.695774454005692 -0.7184901504356529
Ni 5.517746849777918 5.698439734665955 4.049943247344682 0.18875728147548781 -0.5950741133701365 0.6072567714792574
Ni 0.8050219901258528 1.466186062130098 7.281988662674417 -0.33284267396489775 -1.2723996166420215 -0.173405738720082
Ni 2.4072334275543374 4.487826882732564 1.7294131119502478 0.2185345127379204 -0.07524770489040589 0.2761166820277632
Ni -0.21713452038485434 0.2558090247283711 0.5296928648486319 0.3051014992958874 -0.47773179330252563 0.21327377855961335
Ni 0.49051172772224183 3.670950606637991 10.455442457240116 0.41040154348698354 -0.32997717949164457 0.7343379161011868
Ni 7.0855266021318215 5.861925527946588 2.0389860075971304 0.518937578116874 0.7082157650928383 -0.6792317191556624
Ni 3.1634058847555497 1.7008215211364237 7.873847212282628 0.14633510775553507 0.9483352030903861 0.14408487826877767
Ni 2.585347091002293 9.264747642877758 6.4881706262541785 0.08772166898770054 -1.0988969473327592 0.45102343077340384
Ni 3.8147145674071385 1.2055925816303745 12.419522347314176 1.0938074486249936 -3.9859840591549993 -0.7624498438460546
Ni 8.455922222278298 0.23881195543823008 3.340306392976152 0.21581608536549282 0.038813630433088 1.391023117414901
Ni 2.3691438537874108 8.692492097364687 11.233985054681469 1.122666538948531 -0.10466112505551653 -0.14713883460375304
Ni 8.681898866450062 5.3726564322681565 0.16727080074395287 -1.1100028274379334 1.5550618130977865 -0.9851192046879551
Ni 1.3355853422105124 7.898838025735994 4.786247409102634 1.6636245872005544 0.411376248695427 0.36279756845577515
Ni 1.9358162288433323 1.959268720937793 0.9176298770493229 -0.8670178949671327 0.14610756512576126 0.28794864166568473
Ni 3.859040330155978 6.502640979683554 10.757181888913262 0.49800545594989715 -0.08181275970243329 0.8410122149319902
Ni 1.3230945412364006 6.417517460655701 3.022077445946251 -0.3790330564780311 -1.306407341046034 0.2797082560337635
Ni 5.1170279530405915 8.015870198579721 3.4066237031037487 -0.5931756107958429 0.2618326613049233 -0.38301646660581135
Ni 5.302602935654498 8.256990557206823 12.081098096408432 -1.2987482818388794 -0.24532257946504202 0.2554013038572827
P 0.15549481256894945 5.740020468882136 11.393625044564835 0.12895856415030046 0.21511545975404242 0.3191417794390375
Ni 1.620027409525852 6.348698305731225 13.019537684726647 -0.4861236169106466 -0.08394677532630059 -1.3800810165811006
P 6.731335017872547 8.722466335100497 4.455750579523086 1.7017190800794304 0.3234882293331912 0.5705211066211207
Ni 4.345380167198886 8.808861041838103 9.845288937267094 0.15442019875651472 0.5203699396880265 -0.2859372676626108
P 4.879840907109613 7.788290752513048 7.510818109989016 0.2684208560454023 0.1537735663114513 0.18605042406728603
P 9.132442794506689 4.84875207725148 7.659484433795348 -0.5178664565398824 0.5496967136766017 0.015544632602818388
P 3.57366790082118 6.676554196786231 3.65242719094563 -1.9921992299177176 -1.5486885625815907 -0.37087803147106446
Ni 4.43898748246358 2.2643629827840757 0.8825616769693495 -0.09470761338723044 1.3265233950696187 1.8542253496426842
Ni 7.7149119025427115 9.121775871550922 10.399559018988166 -0.7630807925618343 -1.7255488355091766 -1.7553247812200283
Ni 0.7830534715099535 2.0567725028780397 2.9802295780809196 0.16232582675683654 0.5769136404110258 0.7691215994392755
Ni 6.326157752645936 0.028900176236119905 8.1700735581276 -0.11367412718740423 0.1239665102523478 0.5931676403760429
Ni 8.799981150880107 3.4815436378845335 5.988865595722285 0.639035606552751 0.5550957732049859 -0.10075201980909747
Ni 1.3407345735855334 8.928103975916185 2.631639510099195 0.9024834348635941 -0.7429038033933271 -1.2063394917881547
Ni 6.403847587023265 4.188554292136752 5.9162116912067155 0.9956471008024723 0.6818383035405742 -1.0932091529193624
Ni 8.028701825244129 6.905146908418651 7.98274102033238 -0.770708227200105 -0.3328316182213042 -1.2658654150679296
Ni 3.3707292310124344 4.6583963234682795 4.818455436835659 1.1966011814544681 0.44320522028056575 0.07657619389384232
Ni 2.0384600306534564 5.183138925452981 6.881776398719965 1.1709186890866994 0.7418313962647546 -1.8521597253629072
Ni 1.4814679491625844 5.660479121971032 9.03560224093675 -1.458938550309952 -0.15538050578725499 2.3793333182363283
Ni 3.859224560258841 5.431960102379759 13.104689759420443 -0.11154473954922725 -0.6366887035871293 -0.19733088207711177
Ni 3.217283978337836 0.3667947655961324 4.369290471098962 0.3989987009666806 -0.04798012742370446 -1.6280487469784737
Ni 1.2201651827668383 3.892874188546769 13.156931889689305 -1.4820800214234218 0.7661170082849967 -0.28396651708948517
Ni 3.6135997756167364 4.528237755795565 9.023967188790436 1.515499477424132 -0.7908993574359993 -0.21769427622481222
Ni 1.2970812507121436 4.24802376934093 4.0674423436651255 -0.8754318300624406 -0.3634686263808708 0.20063757785284156
Ni 5.215600269577443 -0.03579498783576794 5.912530773751513 -0.26850801644256983 0.7922054778419324 -0.5931283024976752
Ni 1.8630729727278739 9.040171147487753 8.996504007356648 1.6043344340806691 0.7360101615972873 -0.8538309639632135
Ni 6.142507974606947 3.3217792926817338 8.008154641871817 -0.01883127377389015 1.1855742342163453 -0.1316476809466894
Ni 6.388510430959921 6.278073695798692 11.566815158513776 0.8338902591752283 -1.041134029490678 0.5513579034291085
Ni 0.36105691904246406 8.226537321203569 12.046799978158427 -0.9449238634159919 -0.3069238972166069 -0.522448676593926
Ni 4.998070575621948 1.8268533345050066 9.07141012487972 -0.0952683709867069 -0.8347572351612139 1.4733639817066624
Ni 3.307022461442407 2.5823257173153396 3.2921891747103915 0.10114282748961291 0.45142400864593224 -1.0316353459716232
Ni 4.694265924495706 5.655541755214304 6.947932507507556 1.6252210477216913 -2.3373014379762584 1.035001948451011
Ni 5.1289844867164005 2.5308886725959883 5.0574101706036085 0.37175220654590174 -1.8975309544088543 -1.8877576770721745
P 3.224717662988359 0.7281888257268357 1.9944953589062284 1.0814540692659633 -1.1291017530509135 1.2535544589110605
Ni 1.1090191617095864 7.532312236090042 7.3664130284619045 -0.08271444558109627 -0.20277313613860562 -0.6717693493403463
P 5.601488643034298 6.591320139696662 0.12288516321168293 0.7556058243410277 0.2983333273341185 0.3068598767478909
Ni 5.397582765185521 3.0492384900113443 12.233646148482089 -1.1813144304987269 -0.067358017729684 -1.2802072856118984
P 4.200833228492572 3.429286769207441 6.6047219585294314 -0.21017457080899932 1.373665085752428 2.5555744695226763
P 5.949628268414522 0.8542501159118768 11.371286223442182 -0.6069063301183741 1.7829901083457809 -1.2989483136648274
P 3.039971715837335 2.9776282490284935 12.810823401193145 0.812784844655181 2.599236686297317 -0.641013041994096
Ni 8.376703278047206 7.115270552239054 3.7119233815147235 -0.10976425061003678 0.6596432555007737 -1.3338628661538254
