# total energy = -340867.522892713 ev
CRYSTAL
PRIMVEC
9.26579656723277 0.00000000000000 0.00000000000000
0.00000000000000 9.26579656723277 0.00000000000000
0.00000000000000 0.00000000000000 13.56142987721755
PRIMCOORD
 96 1
Ni 2.907125154172616 0.3708236663105295 3.3228619898015332 0.04309708829979029 -1.9552833307279744 -0.4112191542922724
Ni 9.003834006316687 3.5553788164628126 9.3242563719779 -0.6554307600813228 1.0711141207925359 0.42282614240358146
Ni 7.26294834221233 4.204077236990194 1.7192500290246329 0.669799370098169 0.6780844929250966 0.8841452986760386
Ni 3.361010201016407 5.0466531857437555 11.373835756397039 -0.7004083532332777 -0.5628887868868436 0.7512732584039449
Ni 5.278242506164573 5.3070220704290785 7.6433037334935285 -1.4994781622952111 -0.7495912427158317 -0.5774857108644119
Ni 2.168363190615294 0.6404657602411569 14.232449832428372 0.2413759361124682 0.580807319038477 -0.37733741394316306
Ni 0.8017675273325269 7.320776178842974 6.438045047329242 0.037520108432645055 -1.1867050053866788 -1.273271991944646
Ni 4.735535533036316 7.6732841449984335 2.814308742970433 0.6714878135441855 1.9109690821916314 -0.11099503769334433
Ni 4.2811593989723 6.426552679796317 0.7932680121039913 -1.009088828129675 -2.0103388769412214 -0.3886158150704598
Ni 5.9560725912275645 5.466625417002199 9.79742817446128 -0.9998706519655166 -0.016529365113590887 2.969745507354421
Ni 6.751763609144553 5.263963913591616 13.062206591645788 0.1129249077262055 0.8600437776421446 0.38900713697160744
Ni 5.341018278183899 2.8665039018430623 1.7802356491392897 0.9608834720690421 -0.471448274286659 -0.10238415609588172
Ni 3.0494107268853496 1.835341194726498 5.233084719815733 -0.25324774784938964 -0.03191458932040955 -0.4584184376858944
Ni 6.98704071661536 4.369193732545085 6.328373225517413 -0.9756223209411133 -1.2040236991707844 -1.4075787077807371
Ni 1.7121524288228909 4.37543887945889 2.254520273795294 0.06947840650679647 0.8272467857167818 -1.0756112373319413
Ni 4.20414209756645 3.9849782103969864 3.900958746494456 2.781725361155274 0.22682580621243514 -0.8589734273961014
Ni 3.0271820808227132 7.395606752249333 4.7298602326139045 -0.6645322081619588 0.2815692205019022 0.9405784419631027
Ni 7.5208061960168795 6.533285390924083 6.088878327430634 -0.03759518464495461 1.8948600924449108 0.3132374981394605
Ni 4.434647319784128 1.4488370208162185 8.799035810208295 -0.4413730521678334 0.04330560476617058 0.5459475310468146
Ni 9.47603753305453 4.945322434038465 5.474261359986867 -0.4204614988261468 -0.2144839968176306 -0.18574626256330592
Ni 2.2932661288913847 3.419718288324812 13.345721436257941 -0.20757030041693286 -0.7315531542671981 0.21055817940066318
Ni 6.809026232182108 7.569877854852946 12.063963406718191 2.279165453065475 -0.019818320277507805 -2.1105684485879457
Ni 8.799310077787892 6.634792192764927 12.839947928409247 1.4109908187860798 0.6786437078626765 0.2871269170953378
Ni 0.7466110198639746 1.3575967216170597 9.530688128028283 0.16434105741465246 -1.6627658387446849 -0.505818781346729
P 2.9198007639323857 0.7038475153586472 11.895720631387755 -0.9405126217221738 -0.47989434817148324 -0.3863761271066636
P 4.601793024796176 5.876433069381645 5.3136526744817765 -0.7543714377132943 -1.7016427183155405 0.39285042197709763
P 5.523915837429577 2.6599600296537202 7.464536866375704 -0.4544414553160174 -0.052298552293400254 -3.963372749513387
P 1.3830776622891108 5.998945432132867 3.7172689616387915 -1.8631766452987006 -0.6309610570747327 0.9788976492582755
P 4.143636445716089 -0.04874457621580339 1.3063021981747294 -0.6228535974762499 -0.2679279755693837 2.7440427590028356
P 4.047772514009528 -0.07349722527446424 5.35906990313564 1.307924806131825 0.594517212425402 -1.5636858073213715
P 3.3766971946737825 3.532696146366383 9.747820026001609 0.40149241392281176 -0.31823315158183907 0.3018061163740673
P 6.978043628108975 6.321330293515658 8.273923658259005 1.5694795311850132 0.9338447227836949 -1.2960069716483165
Ni 8.776488420742343 7.409153346890256 8.619414636643212 1.008241135417399 2.354521915619603 2.081600600600686
Ni 2.776885117050307 9.3111063534318 9.843035351945609 -0.08745864513430099 -0.5913866372162202 -0.4992336719300435
Ni 2.817200598091796 6.143306543285796 7.325342363411406 0.8903635116716085 0.1081943350197556 -0.661433514631977
Ni 2.2489107605287995 4.050265013297086 4.654296734695852 -2.550667776249678 -0.1652283451156122 0.7634970541636464
Ni 6.911088981819432 2.881968516381846 13.153163357468742 0.3594947293347873 -0.7150063056521104 0.5218971749658302
Ni 2.936905424470788 9.085169168941874 7.143442730460411 0.18655718850037548 -1.8742426733048756 0.6283971530022984
Ni 9.290258311063758 3.4877662986141007 3.335433822639293 -2.0583637415599325 -1.117753675027946 1.256492715603778
Ni 6.232072874790614 8.78225174623253 5.095829548081493 -0.661625318927809 -1.1971789083348092 0.46007268545986574
Ni 5.936531026181253 5.829529606951854 3.6365249568371962 0.103074497294687 -1.496890604073693 0.3730781244461768
Ni 0.7193844031109728 8.877300287837585 12.462371349530795 0.5645150096363568 -1.252583867467675 -0.574202926348082
Ni 6.479692023343302 3.1950227205803614 9.108602368563552 1.5738084975776703 -0.1268327760565493 1.5818408809638433
Ni 6.558340104952165 0.4847772127349245 9.896398927770509 1.0315397009340235 0.31466934548998066 -0.009784075969957345
Ni 9.065849983014155 6.003809975352077 1.422525864768089 1.7752166350479492 -0.1110405462192991 0.9543395003029371
Ni 4.77947394055154 3.691595292397294 13.156688993078093 -1.1410010755916609 1.4463666271822122 -0.021104386078783007
Ni 0.948122637915502 8.071036995990847 3.2616326792360852 -0.09424584325946349 -2.974743474789644 -0.455144652030629
Ni 4.877543131850809 7.452257832710758 6.654281869350233 0.043739606979795634 1.1315563852389932 0.7882022702198103
Ni 8.976564766899289 4.038636438554022 13.171959025888109 0.8346903864790205 0.05346711868020469 0.32302465943321146
Ni 1.0928729125259684 0.15701262984151818 4.917048782268757 0.44114165288331775 2.3092303907716554 0.8099116368724439
Ni 1.8908525822051372 5.734508862736624 -0.06678508221161558 -0.3989771037001258 0.07000908219928588 0.06691218844151701
Ni 4.869305838666281 8.627642664031132 11.195408017435067 -1.2762022782175633 0.007905628000321869 -0.15644237139286604
Ni 6.922587835409984 8.597686343597408 7.747820992652318 0.1706142920178739 -0.12410946358811528 -0.6318527156510666
Ni 5.116748937083417 2.29193185417983 11.099460693559035 -0.30796236578345026 0.5842065745280132 -0.16202423635601776
Ni 1.3241008668790724 7.366122987442617 10.61274136985507 -0.520321345838278 -0.6181338234030773 -0.4730765539187014
Ni 9.17782713502206 1.435633260649792 13.26546573893759 -1.5662214292590317 2.0400407748810285 0.6306101014932172
P 0.649335907334013 2.4659435144784188 5.357076830285255 0.31908315828696016 -0.5692175573183487 -0.2931199014539791
P 8.432375266313748 8.537792234323176 5.306546735063087 -0.6131530823590343 -0.39262185090605933 -0.30061183895565
P 5.102822444781565 6.293134474437457 12.005865935406254 -1.8188474843640225 0.3454829884367276 -0.22554873927222444
P 7.080745717712253 3.482308744411978 4.0805261784392135 0.3563741814279346 1.2472683687920327 -0.5484121905372232
P 0.9616599667598172 8.168040620680195 1.1440377148157863 -0.9819631755574765 -0.6645692320474813 -1.5325494909278832
P 3.6262806921073705 4.502537811531081 1.4344602107992168 1.506280787039341 -1.569971383219767 -1.4545013404742047
P 1.7309712617337767 4.297874896053166 7.007990682746091 -0.13750902482347285 -0.7151243192872135 0.17789539906031943
P 1.7225579184136954 7.735939461661855 8.434314597543807 0.39128539148282293 -0.12197236264045444 0.6280729368936602
Ni 2.221104104908136 1.8267981302539047 7.420434454260518 -1.0607700585540505 2.967896112850508 0.9942111396868942
Ni 7.192889654059101 8.153530383192036 3.1376813382716384 0.19808241553115563 2.9814640813429296 -0.36934128311156394
Ni 5.3171959151046835 0.7296370070577454 3.289039979022944 0.1139194104289909 0.6005829590035077 -1.3624414491224666
Ni 5.37342076892214 8.064699191110963 0.03353291792441927 -0.14100881044661523 2.0416004060586643 0.21810308162745665
Ni 3.8822668549971002 3.7126471822907123 6.507574658496153 -0.5736966761356249 0.5489719196954352 -0.3580420560486608
Ni 8.25635292815122 6.337035818766249 3.8634480220862146 2.4475901936311977 -0.9861139645010566 0.3439845495143301
Ni 4.367331307426873 1.3347380013850778 13.305864612148548 0.7233775604349413 0.6373196523029088 -0.21559317072140935
Ni 3.687564670872806 6.542050834515268 9.634771747905818 0.564103376020235 1.633202266154955 -0.5318851394164775
Ni 6.577677822473099 0.7403797716450822 12.369569763603183 0.5476827685703665 -1.118217244927926 0.5689784447243491
Ni 2.866846736317559 7.616466280198064 12.498091922034366 0.9438118612987358 0.46574171082018495 -0.3618120646140543
Ni 8.337076548200278 6.027613806838076 10.746469979400299 -0.6209792632716724 -0.7638320689055619 -1.8482367361594172
Ni 1.6959094873690341 5.121622746099235 9.186498994067504 0.42986582285918223 -0.3784347607723999 0.715639054140103
Ni 3.227619793047371 2.4157228968629583 2.4255298159928853 -1.2040080154415007 0.06953754187950605 -0.4477848692314482
Ni 1.4641070536262333 3.055683671188978 10.73796768443278 2.3354258182201004 -1.477115735439611 1.4841394750556118
Ni 9.699157915375617 0.7753386956674755 2.389442317943635 -0.8624158774187469 1.5017209355828007 -0.833159808767107
Ni 0.4535051491828618 0.16364971995184188 7.089169253408603 -1.6227962403302825 1.6661946619205754 2.3166914750353906
Ni 5.462863503579343 2.45859573776826 4.960906577353492 0.3174685055016726 -0.7648926489595923 1.0557695200156656
Ni 9.084288918264113 5.444989781922476 7.736090494146566 -0.4259598029365567 -1.898607989523117 -0.4530468889613358
Ni -0.7369050979170751 3.0214836159087812 7.166822188461762 1.704783063716735 -0.5653195078155231 -1.3401525558172789
Ni 7.745612953320626 1.340436466299009 3.9784893730323914 0.3357886439670991 -0.03159088743240365 -0.6231500456707462
Ni 7.0211851771159095 1.1805273484378243 6.258030077408317 0.9106723984322898 1.8728185392638392 1.8904604207153182
Ni 7.65740256961229 8.515267082769084 0.622437299780935 1.1304515822105885 0.14563448214408467 0.43118531300155416
Ni 7.957345671610459 2.1007784701564063 10.94570128490659 0.5014967569326073 0.3436109682249953 0.49533716508911463
Ni 3.380208931588221 5.9484653722123815 2.988111922845342 -0.2083478020129057 -0.2639430227797067 -0.3324089288615888
P 6.8412434069881884 1.1209204788584406 1.452632291106863 0.09265664439547268 0.21015194510118002 0.12898016141685528
P 8.176314977051154 1.4079377945884246 8.492858680252251 -1.1685154789618455 -0.8937290857097316 0.12673713101894948
P 6.794673513236288 4.052284956957633 11.23972632261122 0.4721229317561804 -1.1955639984392055 0.15872756788261697
P 8.556564738251021 8.557667368047376 10.744802136010854 -0.266067011101245 -0.7329227809212151 0.38478384291887924
P 7.15296333647515 6.484862337850577 1.9880109456978379 -1.3811390255319698 -0.8128133839002711 -1.9246591780842144
P 0.7390084337470954 4.809708234883505 11.338087386503641 0.08486671603740868 2.6481182424893683 1.1566526660859886
P 5.1171195689477385 8.43887058973597 8.947790762112747 -1.8410980682321068 0.09438288305796003 -0.1876031132663866
P 0.6695631413293176 2.7427684539395822 1.2965267827532698 -0.04051595783617538 -0.4736943900083584 -0.40644333017018386
