# total energy = -381169.0991049119 ev
CRYSTAL
PRIMVEC
9.25036984378540 0.00000000000000 0.00000000000000

0.00000000000000 9.25036984378540 0.00000000000000

0.00000000000000 0.00000000000000 13.53885130808989

PRIMCOORD
 96 1
Ni 2.710367670343949 7.1721078992328176 13.095129082399088 0.6406566870959418 -0.9385992067495449 0.7777486789866541
Ni 5.832959580514853 2.4820130356836216 6.0348211553976885 0.656111073977799 1.5833583460496343 1.214041745528419
Ni 6.032952580650812 6.5211316088272735 4.39376388469372 1.1039666485461825 -0.7866727209491613 0.7853807416106151
Ni 2.075921791189236 7.695123820957476 10.868949830598918 -0.5560499095881392 -0.7802264511031854 -0.8073770433760483
Ni 7.205603489126078 6.007338306026552 0.704050288475852 1.8717301912956668 0.9351148477453702 -0.7362065938788095
Ni 1.0115094624822787 8.794067781001507 12.862869866547392 -0.015106773734451401 -0.41797601340013174 -0.45873005538904227
Ni 1.9033746389442754 1.8499630023677247 2.6995928393282984 0.9958059949778398 0.47007556230884845 0.44834665527218914
Ni 6.652163100359459 5.752176099007576 8.513175669732846 0.3081839948759531 2.262044734224788 1.622529102711825
Ni 7.956696534410045 0.5834569144900775 9.126837817495076 -1.1396165365393083 -2.13639466562243 2.9983174054548427
Ni 6.301675830139693 0.04116229657747416 5.297549087981581 1.0350091475398626 -0.17484452804913758 -0.06367542667177421
Ni 8.620697345823517 3.1095211373128038 1.4455432997384907 -0.9070008631179733 1.0218893223284529 1.6349724706815003
Ni 6.299603747252068 0.061255025328413884 0.37411641543472024 1.3822523132008064 0.4133912222429268 0.5363624584615407
Ni 8.55911763250691 2.9734574444821 11.260032349713072 -0.16260556278078447 -1.2659944844466262 0.3796141257924817
Ni 4.516382164679946 8.1875857704597 11.132781484413798 0.02696315885240518 -0.987584378398996 0.2618506590270523
Ni 9.085879954095354 4.914952858336657 10.119167562748775 0.6902956902793079 1.119241572427382 -0.38867237934000803
Ni 2.6868254786073154 1.6723466473441098 0.46362854610611814 -0.8794887737406337 -0.556941568164473 -0.4504189644201856
Ni 7.6018153384241085 4.009748648285573 7.104972413673765 -0.5076499210181967 -0.8856583928864553 2.0448590222052783
Ni 5.796466870730561 3.0540189171085594 11.075972186923744 2.045916002714883 0.233153805312992 0.341986802358011
Ni 7.345561587741114 5.237430008093348 11.705311861819666 -2.758355833191398 0.7786727334628203 -2.0710356806006462
Ni 8.589468096588597 4.5545121899602625 13.202641508119727 4.3637454480094595 -1.2563978418971267 1.2029140110463734
Ni 5.171012351248937 7.615394881634081 6.935277150510299 0.8367968912990621 -0.0631159546238784 -1.8566072196112993
Ni 2.4457238340400798 4.408199087131841 3.1375479084419404 0.055909409573110164 1.0678256798492514 -0.01820263905095575
Ni 0.8697725177096974 9.19744866707592 8.784913614815821 1.2888778168027029 1.0584159564995772 -1.7798387072009927
Ni 1.6559272405336876 7.699443743763374 5.457686868825877 -0.10463001470726496 -0.2863689558833907 1.4317949000156245
P 4.575852793628794 2.343137230362569 2.631898631419189 -0.1408272905634284 0.37854300421549003 -0.5249881551863281
Ni 7.234057627350787 8.034880661937756 3.0213299594822667 1.637021125680413 -0.503503760060307 -1.2464926669682725
P 1.5577068115122437 5.113151286686012 11.801519410321703 -0.43390271193271723 -0.20136828537127902 0.006774085499039947
Ni 6.220041314589284 0.9418449257559185 2.823256411128371 -0.13277125302817136 0.28619566353032005 0.022556030923645023
P 7.062620519509911 1.7639808129013166 12.381374230720526 -0.3201249692879132 0.2155710592342223 1.4662733934084682
P 1.652587856951399 2.1870557367782006 7.566498350671144 -1.7697350431080878 -0.09221210065888635 0.9130285573692921
P 4.668485999149677 0.7997139152198871 6.376419745051744 -0.8467997681480449 -1.3199154028347977 1.6969892787039291
Ni 2.927464604672849 0.5145740340315937 11.80315765085473 -0.4159934357524642 0.9294057131757348 1.1879877287538443
Ni 1.0003535162212256 6.502112848037285 1.4457061062510896 0.020900754708409165 -0.753268948677735 -0.6539518615429513
Ni 3.714652593829642 2.458563347647328 7.80271117467539 0.44429356824873806 -0.9782435606140442 -0.5290687530136049
Ni 8.522051399780509 8.009164633243122 5.236340314503338 -1.2955971378044073 -0.5270884893587826 -0.1875115819938448
Ni 6.249050475016035 7.368613509865943 12.687135961825705 1.0256855561460918 1.0103921203221309 -2.2008375665878486
Ni 8.747677175280794 7.6895180967168475 10.157211559587774 0.4736324264221714 -1.2630055770216315 -1.6152639365089794
Ni 6.970385079900493 4.271302860998073 5.006978314546303 0.6909937447875971 1.0242377679559715 -1.979753290844881
Ni 8.432961085982662 0.8670159074395533 1.8618765539345656 -0.7884562952121453 -0.8272182464716915 2.0614907172246886
Ni 4.114610842991459 1.9891348195298664 4.683007230029114 -1.2161040273740862 0.8815973354432044 -1.1742683222852228
Ni 3.690638633221272 2.1924949543582164 10.359712335039962 0.6793260786416816 1.8255043275589078 -0.1547644694698109
Ni 3.7738272109374003 0.15629147698414086 1.9053495929465432 0.8005129692663633 -0.12173016472266131 0.6608583588547973
Ni 8.280996007063441 9.279878714449255 11.753348108369437 -1.687609894371558 0.36482154086433943 0.8391435371543676
Ni -0.03113397042357067 6.645345577644371 12.262963944062784 0.7756740558458125 0.17346281721026255 0.47336271770055255
Ni 2.7866739727547505 5.251351814994579 10.015622620735737 0.10080292765169091 0.29999374575567694 1.0702129491345052
Ni 3.032447054189177 8.894045780329419 7.031998094549224 -0.4249691568885132 0.22891919840635414 0.7130931477897977
Ni 0.39751800154683636 0.47029713786365807 6.3873860587271 0.44326589831517205 0.45864186655061007 0.002276968959634788
Ni 8.813077291421461 2.5250550074520124 8.738055865408388 0.46005083108299477 2.035677098595694 -0.5026915485716569
Ni 2.0302989661813475 2.861370710779629 12.080392165811935 -1.010919967801143 0.8181044570958813 0.013643044704731344
Ni 8.356007257669479 8.054583950110263 7.586089709366239 -0.9802068549880023 0.28128254249941875 0.13232413818842373
Ni 6.599389739315257 3.772402653952158 0.28727949177716694 -1.0219309741996658 -1.7171863224770942 -0.31938552001872733
Ni 1.492038434640589 3.204180173871142 9.727055477449833 1.0927260426353569 -0.9134620453622849 0.15219079520536372
Ni 1.4819092794533146 3.630945995391608 0.966481436267579 0.8862330344430028 1.0245905233097001 -0.47389956404062894
Ni 3.2924379543659237 9.071726887943273 4.3667398536762745 0.13937461727730188 -0.24976133196268593 0.18803634414906326
Ni 0.379514006349583 3.485354421425842 3.734773073690684 -0.9073880712540632 -0.2641397121715451 -0.0791203004719347
Ni 4.174303480821123 3.9474289053662415 12.091548112072989 -2.962131442452589 -0.7333992063370014 -0.33821010892439823
P 0.8347700425378909 0.45895618420192424 10.736675089334156 0.965294456652544 0.6447169732082445 1.626514312611818
Ni 1.845273064760466 2.138907560751019 5.455697114231555 0.12390917465185111 0.27612722355072444 -0.8720518578466142
P 7.437177252558253 6.406232762634454 6.295674190061607 -0.5660844110060058 -0.6760942019679453 0.3394696923631121
Ni 5.912429509477295 0.7067051446756217 10.746910623776822 0.36517403910775176 -0.7321360233538616 2.0334610647809814
P 0.5282960329400896 0.9739899616242097 4.051433590769971 -0.9857280419165474 -0.4484279021320858 0.6121272121976812
P 6.64641862056832 7.510847199509352 10.41461235615499 -1.1394453010687668 0.19482791314959996 -0.020975830920718714
P 3.1850041567905754 5.661781483034931 1.2799431753890946 -0.0914363988351264 -0.1900261208855824 -0.3627934546907171
Ni 4.241618423558837 6.982401310574712 9.020922930679317 -0.6242641046705314 0.23148515936131744 0.4885052297689458
Ni 5.071311863022046 5.77975145207905 10.900671199519648 0.7138799053571512 0.32348180157528805 -0.6341705651509658
Ni 4.540257369737805 4.307740068562159 4.21721687244604 1.7271598887500383 -0.19789549633133016 -0.5931830669950107
Ni 4.794180027172222 4.160575931690606 8.993655614929976 -0.1574067921886644 0.759385345988118 0.19521794949916704
Ni 8.446549879562669 5.36609340489682 2.780067358476439 -0.18439411941078565 0.3741569593326524 0.06265392738579531
Ni 4.900735039594337 1.9163251569919324 -0.012757185313945483 1.3226222602429996 -1.3052212911577328 -1.5128772093099365
Ni 1.729504683784447 4.814503090137009 7.990210625043374 0.953549400301474 -1.203108900665999 -0.5987075963576657
Ni 3.152285597980174 0.25144263322828997 9.577897885835943 0.1462975696493803 -1.4922770165610817 -2.22309432110352
Ni 7.568708264072277 1.375974041823481 7.20805761229611 -0.6616417739880411 -0.06280022315567248 -2.144917358381461
Ni 5.898664958866643 5.283552353083075 2.1363766595097053 -1.7321293169401717 -0.9301364206941724 2.482789624350466
Ni 6.722983933340075 3.3064060131173254 2.80820143389797 0.0023831555201958956 -0.6360042759255949 0.7914873687289852
Ni 0.27944350332133105 4.336231208267004 5.986080955688327 0.5239900529391169 -0.36845322407965575 -0.11663912335299913
Ni 7.840030867540723 1.9732796852915209 4.838013830615527 0.9491420152623975 -0.23532715881522695 -0.7315377276482306
Ni 3.8341303731893115 6.592303955869182 5.035816343127425 -1.2900353274459138 -0.03890439037468139 0.4260117392204147
Ni 0.6726036555451308 7.9676119710502125 3.4637936589505 -0.7814703508126154 0.2772543951766322 -1.609162194486616
Ni 9.015947156638008 5.898470701095928 7.970551738647031 -1.2206235125109945 -0.5549013978059928 -0.8838174830229747
Ni 5.451391066980708 5.145527581805155 6.728051286044722 -0.3983834359801849 -1.1172973042168177 -1.9714239450435793
Ni 1.5780298744770311 7.062083998047937 8.561793764557756 1.6072261538061676 0.003241646865749256 -0.4234372936250191
Ni 8.456716036230079 7.890297378305701 0.7858180093547511 -0.09590189080564773 1.044890925429949 -0.22911254536408285
Ni 5.6282673924016 8.928623663516664 8.67948714753786 0.39689399591885194 -0.08020402045441671 0.5417262938766154
Ni 5.977450360446568 2.012232993504866 8.990474412675269 -0.17901228627358204 1.3450042274826257 -2.2445820586636507
Ni 5.066020651362575 5.544644047293873 13.178230706636898 -0.32987510669614156 0.05532782603802729 1.6817102410576714
Ni 2.9732539363413504 4.272255649111579 5.912402683404197 -0.29845854005807304 0.4124342576462961 0.052787319004360705
Ni 0.015992039714849502 1.6276581097096594 13.502242492782237 0.43572793806691407 0.3884615488807826 -1.9282147566459567
Ni 2.835441923574213 7.140258875205616 2.8039906654584748 0.6730093923950344 0.08892443104655008 0.4219069730234217
P 5.280814243552999 8.41200899785556 3.641151928650165 -2.4759723443183166 -0.8335971534148419 -0.9287547098552972
Ni 5.091246410445403 7.18244056256084 1.2298181952856384 -1.2568999783445256 2.1249897662195987 1.0366114590299762
P 1.3582595832082929 5.70743205915292 4.799468463720683 0.8681075284868855 -0.7129203696573593 -1.337021466387465
Ni 4.195227817838123 3.6803984735935895 1.0022923937803607 -1.4776602950891715 1.9386691192100611 1.3127425392354424
P 4.2208513428324155 8.823456206599655 13.329189345296415 0.3438112571612595 0.18766507685257355 0.057011384388037295
P 7.046404620840239 3.9289096645580917 9.523850748838054 1.095547571244552 -0.46783047502841363 0.09889902576075871
P 3.6312790087128333 6.018485001917572 7.263349849100581 -1.9797520052933002 -0.0678048754591155 -0.12727449157965823
Ni 1.2345081328928968 9.106434276310992 1.5119646567309162 1.1261079605299122 -0.4975223456658915 0.562127997461419
