# total energy = -340897.91465223883 ev
CRYSTAL
PRIMVEC
9.00271607950097 0.00000000000000 0.00000000000000

0.00000000000000 9.00271607950097 0.00000000000000

0.00000000000000 0.00000000000000 13.17638499084287

PRIMCOORD
 96 1
Ni 6.4402640558658515 1.8413525441253538 11.22278866448167 -0.3106121447014715 1.0942177966895348 1.517550960636522
Ni 4.599109571495993 0.33299336555647746 5.92858297944458 0.20174212377092995 -0.8459405054715432 0.3094402358805574
Ni 2.8569579567254 1.5676609701790718 4.80550674242622 -0.3964340255632979 0.05354476599567552 0.08199736490941362
Ni 3.1879788271714657 4.250713458863278 4.765397841395154 0.031637938620255185 -0.13695855163664156 0.259726670705514
Ni 5.013972737529761 4.389139222522304 2.6435251631170034 0.8911379279437879 0.8869655417336532 -0.12835204091455313
Ni 7.393462640052502 6.265746403125854 2.683173125080735 -0.3094656898018541 -1.2716779079846487 -1.2679927458235773
Ni 4.999748445998721 4.612766691909023 11.3469757322638 0.1424033768012967 0.5406292041576948 0.02889817109158894
Ni 5.58425879533053 7.88813488483479 12.401547601214352 -0.594369631103944 -0.457095862219729 -0.2608651551853314
Ni 1.7725087736583554 6.668752991978368 0.42084727146457873 0.09542983626523564 -0.4550958010705646 -0.4169539998935206
Ni 2.835567503131888 1.6799968624096466 0.3664798685810684 -0.4911802054979476 -0.5366573639941402 0.35822563281437664
Ni 0.7357568810727025 9.005326946571701 4.525785149196718 -0.14852028833231196 0.3822453927677417 0.5192170570305058
Ni 8.62103700461351 2.2911192407071206 1.3787767829927242 0.027348824326598062 1.4326153390343908 0.5436127122660509
Ni 6.760418647908142 0.5882122662163419 4.701992611759739 0.4732002239807593 0.47788734504378344 0.35368892128628765
Ni 0.8005026151441762 7.430697874085654 2.6065393043214535 0.05077851610444803 0.37267060459511303 -0.3700053990581241
Ni 7.631152352079401 3.9461515712081776 3.8257366414966185 0.23988906715429653 -0.014187090133659439 -0.5182294963062559
Ni 7.643107959138401 3.9429105933909785 12.655759998207653 0.04664418222110031 -1.3449911148565028 -1.0347345537222372
Ni 7.803707412696761 8.950914530107397 6.955154600597765 0.3833792492618688 -0.9873344671717191 -0.394482815374198
Ni 6.770141581359738 0.6933306809023382 0.3423345838429372 0.42355787836328346 0.4280521666892112 0.35241416833892214
Ni 1.7469320570509612 6.491588540687658 9.200687687762754 1.117715879811475 0.4634377452773567 -0.036026811716570205
Ni 9.064654846058758 4.8260230322807045 1.1973522464156294 0.30945334850667994 0.2740302318123797 1.1318052680250055
Ni 6.331916366893663 1.9770414820720779 6.85535679116167 -0.1643387434218073 -0.4361411143449327 1.3445249738533618
Ni 3.244921006876417 4.361689940953862 0.2677983959486754 0.6086791057480807 -0.022845794249921943 0.4088272570213282
Ni 5.966955256528599 5.632963489750101 4.727608040046615 -0.004780452107778864 -0.5013849139450914 0.026407800569567423
Ni 5.278868657788811 2.8386734402067035 9.30202676220525 -0.16371422246393097 -0.19811172610719427 -0.6544306009515827
P 0.2867482131915137 5.584744942003109 12.236579129504085 -0.018338393297871642 0.7242365660011268 1.030798966113257
P 3.9735468364796662 6.2160063963480106 12.553300085603375 -0.28886729682521217 0.20348044661827536 -0.17357363175651397
P 2.4126018925551236 8.56320355600883 1.451852730326015 -0.06543637522693892 0.2552868897666055 -0.6683785784912425
P 6.310579929597104 7.716741174601926 5.713188493985163 0.1690194367269283 -0.8329584913895783 0.8181463660774104
P 4.71772935960547 1.0468358349552205 12.615083926058576 0.45030737854298575 -0.08885501126119535 -1.5899583678646554
P 3.885689329485102 6.060268409515448 8.120079063409088 0.2699344644764512 0.2629660035784181 -0.26410063140349355
P 4.825086749800181 1.0321974184808727 3.7224079667830092 -0.2603653327307774 0.07001833817066651 0.21359850888888374
P 0.3312216310164087 5.549463297376437 3.512152231707083 0.3107949501362389 -0.6564967394519919 0.2804183947269106
Ni 1.6328946514663571 1.2955088606959593 2.6050763629456344 -0.6115332873674242 -0.7984738273491474 -0.28576783196428207
Ni 2.0127282489259004 6.591842787833009 4.814414029793823 -1.075107301112329 -0.9541798347966213 -0.7555212350470214
Ni 5.948805780752285 5.509734310967274 9.118335341699346 0.2330465903111664 0.01825483244512985 0.6804388520898862
Ni 8.611016981528671 2.2410011198506044 10.26826488047643 0.7687081660509406 0.8849937627192629 0.18587044684599602
Ni 2.243269804322644 5.143890934418638 6.928894577833911 0.00018383387603194146 -0.06085184118005004 0.22376439367829207
Ni 0.6181219901110077 -0.03493053869647623 9.049054039227027 0.1826524541293306 0.4176340566796808 0.39885754740312596
Ni 1.589132448218014 1.1273831364287703 11.499558267082675 -0.7368665960603116 0.3588444973452981 -0.30254196609882733
Ni 3.9942260754966266 6.822654424714518 1.693534246697763 0.8978593058280215 0.23704079907222406 -1.2314717680794083
Ni 5.628759221303901 7.724762594699494 7.951658950323504 -0.7920969772885261 0.44573030069526465 -0.1945479200153359
Ni 5.168144251750677 2.9539442179050748 4.95682439562477 0.05722015796473371 -0.40584297758202365 -0.9010179060616612
Ni 0.7992863481911107 7.499568652701129 6.901751388614871 -0.15362778476220637 0.025240519734343627 -0.3032922140012905
Ni 5.065522290255539 4.329568249698958 7.131230623504866 0.01781980179024028 0.712501794062702 -0.37716386447977623
Ni 8.292725951731269 7.074316352220007 9.272011706531524 -1.2546842016401294 -0.16130432747085768 -0.17901434315611103
Ni 4.6559437186070385 0.5047048716697506 10.328177956513812 -0.8086813640097685 -1.014483259672369 0.2259099792663851
Ni 8.27179463666186 7.198418794470246 4.6355309599883805 -0.5690794890785877 0.02300160310149587 1.389505138108478
Ni 6.996541887323395 5.956422078622702 6.953916727125918 1.549976685265395 0.05405590130413916 -0.19430983586260084
Ni 2.3829829563923894 5.202102497101994 2.4483174681006545 -1.1773302490399984 -0.41499661905683366 0.6422052625299843
Ni 2.3423536983673388 5.2757987315786306 11.340756655941243 -0.182869198125827 0.5234172111547825 -0.21834502243493362
Ni 1.0590975343636229 3.230381620279817 3.869772527316192 -0.0966840203873109 0.7337038820616137 -0.2215416749953604
Ni 3.638906874137729 2.616441391824612 2.7155081807086052 -0.09563603873877079 0.027194301026604778 -0.3158404829799464
Ni 1.0378961378094471 3.230471647441406 8.134045877257984 -0.6705218500864903 0.4336584571323951 0.5872880416668144
Ni 3.6587938741327073 2.5162141528277377 7.080488614418539 -0.933569100524805 0.2914366002142852 -0.6821409223826574
Ni 4.101277373341936 6.676882444669842 5.984120735428745 0.7130769498398816 0.608523811117139 0.35051566576462856
Ni 0.7943510591928096 7.605107494231745 11.356937237693609 0.25444253948843926 -0.46884143279143126 0.11562636581776861
P 0.2302507676648111 5.662465390602769 7.862322297064034 -0.8351202749275876 -1.1306133045994333 0.10541163006829589
P 8.327161341039007 1.6426265876341126 8.200890144466094 0.580265330492078 0.1898983370584665 -1.2605244624709904
P 1.7684935622514923 3.302844482642687 10.344055146731623 -0.2759367048064732 -1.0844774294733195 0.15996503983414384
P 3.9655974381113706 6.019477102599537 3.7526606941633283 0.4724882855153992 0.48694457015004516 0.43447632504800016
P 6.878534283912722 3.9376530071541898 10.449848765129538 0.3552446958091817 -0.16277397003784871 -0.38123572055630467
P 6.3201858277386345 7.526000627343617 10.228261311224422 -0.3784080212995225 0.0582856231147706 -0.5778263820332823
P 2.521174649431284 8.47465283987003 5.698826460896892 -0.29482068619516966 0.5100024804107732 0.798872862559779
P 6.907766103280624 3.9307479238603245 1.5558809160851699 0.02292524133760568 0.07061689098661386 0.4517199426197962
Ni 5.1300087461016375 2.8757016117682 0.45218482614204364 0.843254731109264 0.5335471004999327 0.5052238280752073
Ni 1.3418548434819024 1.0293705656069825 6.934190875750184 0.2923388003135804 -0.0555445700345237 -0.05074637731493196
Ni 6.909512630215446 0.38002175422726414 9.264013693495968 -0.31218180318143657 0.7366351967757959 -0.4789605235033041
Ni 2.6382549730775917 1.56339368271976 9.108584499827657 0.23842610945552484 -0.2331772023517597 0.677929198294155
Ni 6.546865217903216 2.057948892191983 2.695269174511814 -1.3476830598663694 0.13312812214695782 -0.6774370891490848
Ni 4.201432590609539 6.840308751102093 10.14950555026649 -0.8208851051648121 0.892671848089811 0.903736847654721
Ni 8.146053700070706 7.187102380258526 0.32822102572065215 -0.09252654657551163 -0.12174019202499035 0.15491230790158483
Ni 7.5263247251253365 3.7755591027134536 8.174392449995645 0.48962828762979543 0.1161130756462 0.26809741126771247
Ni 3.105072814064288 8.3380456248751 12.380426328833991 0.7192537680745548 -0.0478662275536595 0.2486249043653976
Ni 0.08281148458750943 4.890923613070112 10.172788374796601 -0.4529638423292263 -0.9171423224273496 -0.39185077706798965
Ni 8.501309882416491 2.08148199223131 5.738711194295602 0.35654413134689567 1.209140965792692 -0.0745067129593233
Ni 3.711828875024702 2.748637275901688 11.393567489200882 -0.771206506992762 -0.9153114398661978 -0.15226587141767323
Ni 1.1913384320214937 3.3609300072998174 12.488077207575481 -0.9978273962832428 -0.007570356148090187 0.263521618971572
Ni 3.0373993966979445 8.288836778350632 7.91143121343914 0.5039110228010547 -0.14847889357141528 0.2398353310982257
Ni 5.642398336284613 7.74902491474769 3.5555687306549246 -0.8587345719124178 0.36607623920704696 -0.2446589777391141
Ni 3.2008167004140367 8.29798353796806 3.455388305782077 0.004262117710463627 0.6001597554231599 0.8470941594600121
Ni 3.2390242277923473 4.266864331652319 9.176495588900595 1.0937318581920519 -0.04188815559335367 -0.4432841531476172
Ni 7.161264584882525 6.040201355197293 11.540707882101708 0.5199883879788915 -0.1618432306934632 -0.921416010102039
Ni 0.432025944119067 0.19119968578241292 0.6731402893728053 0.8043359425568793 -1.0716530240151416 -0.5867797345718282
Ni 4.695627691435406 0.41268000736523763 1.562521319523964 -0.5613083297736011 -0.8425088540821748 0.6397866257861627
Ni 5.915351687505866 5.473885495222591 0.3831438961911657 -0.5896043485048169 0.9873519506732156 0.5602719180892867
Ni 7.7119967431861935 8.762874797696753 11.445008109061138 0.971110549113689 -0.22862146466027725 0.25367532230511153
Ni 0.12806003627368448 4.854705685962915 5.6555549056792085 -0.5134747552300899 -0.15527046257195193 0.5147158267260427
Ni 7.696647112135294 8.826010846119019 2.485975829793273 0.8397145791664893 -0.22616837513409438 0.16286138754533244
P 8.483673561461234 1.6205429248963659 3.5833051988688354 0.488665409495894 -0.3066300201252719 0.10736849668435057
P 1.786075866909796 3.258082977900708 1.5759479704033261 -0.04841490096827791 -0.0803037792570746 -0.15468399394086263
P 4.665765681936382 0.9506418127975276 8.132662159784363 0.7926443651515639 -0.11331134453134678 0.3354279181935707
P 8.545081088380993 1.6209660525558336 12.485665379916515 -0.3715285205708698 0.05292744412665079 -1.1889817172359975
P 6.190780785670812 7.596788984500935 1.3621613700498851 0.36162565963486104 0.08146154701060164 -0.045305151694702624
P 1.6494056329017535 3.067540490397894 6.050951498562617 0.6881776154950406 0.21252301643651786 -0.7290892661077379
P 6.932820662350802 3.8747870402166913 5.92051834630945 -0.1755137862020203 0.7945942897890831 0.1352942765603412
P 2.4957149681339557 8.58986059855529 10.249237639874625 -0.2837271473851694 -0.6309949956364617 -0.8479500797024041
