# total energy = -340853.7120949744 ev
CRYSTAL
PRIMVEC
9.38962051799697 0.00000000000000 0.00000000000000
0.00000000000000 9.38962051799697 0.00000000000000
0.00000000000000 0.00000000000000 13.74265874547100
PRIMCOORD
 96 1
Ni 3.9708610650779756 4.504229060605724 8.005950889338544 -2.156860646786266 -0.6898503752117732 0.4257327745274152
Ni 8.642854472844009 7.1599423381053855 7.525493404598747 -0.15076563272306293 -1.2776035294404642 -0.8580588860016319
Ni 7.5806818372885925 8.474845995554066 3.1602072514259842 1.9909111072339132 2.0267404582276964 1.4351136799762123
Ni 1.4254382684505933 1.5103298262205807 7.938528720267932 0.5157877196339827 -0.3403387252316268 -0.13232490951937212
Ni 7.69325399591091 4.562116070190059 3.1342055146959042 -1.606313155073595 1.3925657793116726 -0.22948484110183703
Ni 3.9660348002075216 6.265186633756568 12.421988879576073 -0.1236914022140902 -1.7926834243741447 -0.4345015218589807
Ni 6.088577264207215 6.990750768648754 11.15925864771626 -0.8124657707528652 1.2040275558255265 0.2788165974574295
Ni 7.48478564444434 8.818825348208167 9.22425131552907 -0.08291447740704429 0.6029260053143874 -0.44156819889777493
Ni 1.8814545713658921 5.437660611260766 0.6425120037527854 0.8486903003025382 1.0702258046503117 0.9221770566377796
Ni 4.518595179772639 0.3763416182231793 11.265434596942171 0.11617735322523219 0.7337375635130267 -0.8564352343552798
Ni 0.18850601855881766 1.5334470715728328 5.316540142253114 0.6271026025605909 0.9158917378497 0.29841585974559576
Ni 7.662315196790004 2.710351478435792 1.624712303650338 -1.9214882365554002 -0.7029015519687766 -1.257722731356137
Ni 3.3280007064094432 0.7229538204291773 3.6317032824841435 -0.40295974249695765 -1.0759452236325922 -0.039872924935537776
Ni 1.815088734586966 5.049343471217009 3.0348877441886297 0.15228284069853773 1.4755419631945879 -0.7000849084555879
Ni 4.492820671855527 5.71843842920081 3.343699212706937 -0.3322065830427956 -0.4163562184085216 0.9318616309153952
Ni 3.737848245962832 6.589879706169594 6.601066499879047 0.6987186242356805 -0.621086221163182 -1.1711084365000024
Ni 7.979806430378832 4.3984268182705595 8.927175933511892 0.9521131820755795 0.3733236647980796 -0.6572356745005455
Ni 3.704421197443735 8.370114169941143 12.871099116708846 0.42516456072877096 -0.0045711643104501916 1.4604467594243622
Ni 7.0952760226135245 0.4122221745450965 1.0090132998276462 1.6090117849516805 -0.14576612262594252 -0.1138520475261652
Ni 5.56619512451299 3.6293699618220656 4.095779635525507 0.3001441552906121 -0.007772701966883388 0.5428282686915425
Ni 8.201420250364148 6.620339634651602 9.741579961539875 1.902152512341266 0.46435871442972926 1.0080681001746443
Ni 7.7628686413380406 1.5447709537396954 12.57743216688617 -0.5113952469932418 -0.5782444434073074 0.3845097633218862
Ni 7.386344864479673 8.668891890131498 5.814010680142279 0.1921843048791658 -1.2082580489671064 0.08744501828754617
Ni 1.9637733731543536 3.1288844168319234 4.173714423562967 0.37392324605529154 -1.851452414883237 -0.1910573903635742
P 6.429749120370527 5.935657906852717 9.206440144648207 -2.7891550779604413 -0.5099790833720056 -1.114072626631933
P 9.136016113945137 4.350999845778999 7.108500363943384 -0.1371117893850542 -0.37671057899244154 -1.1065801749096298
P 8.957688443867976 5.994784346325963 2.2411249186211903 1.2587185196105033 -0.9756385188910296 2.4773833657332305
P 1.7451642316876077 7.316692660571061 6.675949661296084 -1.2029309803272379 2.066479685798847 -1.1382520520916137
P 5.328356040527392 2.887646290272193 7.474906824852502 0.2618252051057556 -0.8676722407216798 -0.12928458003115154
P 3.1215041752206845 7.819337818246425 1.2791188752545428 0.17306815287500515 -0.24026676220868945 -0.6396261889488983
P 0.849783178622113 5.902784845935482 10.379005607937943 0.2454061403177838 0.4986595445941282 -0.21205610410242834
P 6.580461916937949 9.23755546863208 11.149459639897572 1.020859595512358 0.6085217542346102 0.19598079580712055
Ni 5.84424995254558 1.3375608114027762 9.195693724134133 -1.0403454721511114 -0.9709904785960567 1.2000328328438368
Ni 6.068192398382789 1.0844354254539514 3.1386308427765366 -0.4977054082109751 -0.17007127503021033 0.8919156866500768
Ni 7.323462576858215 2.6687272913332194 10.600894543800115 1.189490795661932 -0.8068862197825588 1.1360013083842244
Ni 0.5823160865193363 5.503960720697099 12.57853169143156 -0.279099418805171 -1.2588612158359545 -2.2354595275370923
Ni 4.063517838894394 0.8061571244565432 7.627560455950515 -0.577483911092199 1.551934066102082 -0.7166286717468818
Ni 5.7560438587847935 6.772676835543128 5.011851656039508 0.9795648505286291 0.8073341059532547 -0.21089936479016583
Ni 8.955735402830905 6.68654584788423 0.41743623073685343 -0.5631006457873334 1.6709704860426642 -0.42087364666290095
Ni 0.27670366166126986 3.390451071493857 1.9879854482418098 1.7498737854077862 2.0817669509752212 1.0440342338566084
Ni 5.72461679940462 8.047862398824455 0.3439164421976182 0.36938550608593806 -1.534940102647247 -1.0548773472186994
Ni 1.725962458029868 9.117687574981856 2.3466135476359784 -1.5322862099641674 -0.06555104642793226 -1.232059522262078
Ni 7.208364610356223 3.651811154507639 6.080521908891335 1.4628746521395646 -1.782688517944962 -0.17407036888727442
Ni 5.943160213528773 4.416022966844938 1.7535491626784936 -0.47350130016094577 -0.12145197136061019 -0.7229409871181549
Ni 5.58186640091141 3.9395185122811367 9.699939812082674 0.5076010700581322 -1.01202991303587 -0.757591744422805
Ni 4.868508772500917 8.436620851025626 8.73972624724476 0.611556941516508 -0.15778165902957988 0.7843253037629072
Ni 4.703955675507329 0.4187094632590977 1.3275946683414928 -1.3552534160144596 0.018366932542961917 0.2152170183289132
Ni 4.160202759849771 8.81220566584694 5.641938375155967 0.15205375540686716 -0.449736079420548 -0.3032374495039552
Ni 2.7652995368441498 7.130806346095621 8.633632926678109 -1.0535529719803212 0.05857435799978299 -0.06876158294542996
Ni 5.5584768565684115 5.012620665947854 6.570639435068335 -0.0015760862378682535 1.1461911044330326 -0.38812164904286056
Ni 2.5415354937939814 2.3427196720683185 11.655437173842438 -0.7144668882088728 -0.34231513223170723 1.2525846387986233
Ni 0.5622889652310268 2.2442788921036523 9.857127690857617 -1.5436093482864706 -1.5659771744587094 -1.1158718846242008
Ni 0.27912242786871916 3.0453074059138103 11.797220441437485 -0.2931543542363403 1.1449454049513894 0.5051436096565752
Ni 9.163640377075245 4.036804368940228 4.534335000399763 1.4350296049028382 -1.292398685471768 2.5309942090801507
Ni 2.2850298445117647 3.4761876950971926 6.580479757216653 -0.3584171799998924 -0.5184655235764618 -0.28863178377563836
Ni 0.44038352396039865 8.089787053778883 9.429236117838174 1.728757315144145 1.0856758206567947 -0.40650477953573866
P 2.125068271879367 0.43317699032601464 9.901365948271344 -0.3348496770925975 0.01307148847197749 -0.09448572718441148
P 5.130338336533225 8.501963219184164 3.6052902803818343 -0.45359427682437364 0.0016935856523390188 -0.09294743616301412
P 7.558456605871541 2.312757393465948 3.9740741931687715 0.09493567023763651 1.6633718477597998 1.05922533977475
P 5.851085596175328 2.192711097028686 0.1512376763461357 1.1851847120874106 0.38919405617143293 0.34317928000421544
P 2.2936119575304317 0.8147307868168767 6.132537588857976 0.6319190501126278 0.4779935316043446 -1.2753026492214294
P 3.828429913677362 1.297870886096534 13.266214341900868 -0.3354577429902416 0.30832411999824316 -0.596280732083728
P 5.801536569480026 7.64285051376189 7.090703277493075 0.35246661884341235 -0.3005452473837727 -1.2675443454322493
P 3.679698327008122 4.150418775423676 11.216991667526518 -0.30378740847015423 1.259036050850922 -0.09592425940315093
Ni 0.17115493907611 8.002078609897737 4.647698704019318 -0.3456495959215789 -0.9605158043169781 -2.3463851454450815
Ni 7.61977082689112 2.273151974743041 8.421460369975364 1.1803199277959413 1.0887904550263765 0.6145167954757803
Ni 1.5816627721755188 7.76655876214366 11.59336145461081 0.05293875698056044 -1.4863459957886274 0.32102228429120194
Ni 0.2878369345346107 8.948195537673367 6.570296713924811 1.2126734044259824 1.497430021516931 2.346875969038571
Ni 2.9693735459773114 7.446645006499235 3.487488103213129 -0.03058430054476023 0.6040835159575983 0.23244186684763193
Ni 4.273685711648031 5.788550724507579 9.905131186039927 -0.033474477608361704 -0.06214793428365427 0.17868935571652453
Ni 3.7766367677135033 2.200908235612161 9.708542582266155 -1.4728821569742374 -0.17541891249536887 -1.7563784192955236
Ni 6.027957875095055 1.144622892029067 5.859264894480099 2.371917485388231 -0.007753418693173743 0.927458359641377
Ni 0.2957101312153025 0.2674830544574066 11.322260579424636 -0.6108748278478189 0.9509883244425172 0.4211089026021586
Ni 6.297543265553424 7.102618705743282 2.361758066331611 -1.471835203766962 -2.751119463343959 -0.8712884973180285
Ni 1.9481959929596395 3.928889462021693 9.642289420931677 0.797001356568679 2.1342171983551372 0.07731949981777006
Ni 3.647229019766819 7.818286180764925 10.508790818623522 -0.9956830962467303 1.1652784600817867 1.9618064765584728
Ni 2.606333263971029 3.151964103702693 0.6855427559868633 0.6776425202916717 0.5034176281044039 -1.8274251987307044
Ni 4.247178813342016 1.9294073625982033 5.23489457624522 -3.064852670172915 2.537561320774707 0.34040146014876216
Ni 1.105101979889494 5.824653814832278 5.158746632964273 0.7527922661516325 0.36923638210258347 0.18570538202304146
Ni 1.4781985453126174 5.483153321955998 7.5053329507011775 -0.26482876781876974 -1.580490023362904 2.106974303478784
Ni 8.360471029820605 7.281359519116745 12.081610446334073 -0.10298553712530652 1.0121890643215536 -0.8976960407772798
Ni 5.096883119153016 2.650192180721788 11.618400755252908 1.0508499712268613 -1.2234501833265123 1.226594642492765
Ni 4.123357889515799 2.5538734549608613 2.47097155774739 0.04103480645412288 1.14566659938813 -0.2044410107593318
Ni 9.082495277833099 1.1893174849928034 3.051186247227801 0.49215542492702335 -1.1252929208277846 -1.1530628918522012
Ni 5.226788516979339 4.392408071613048 13.20632358732946 -0.5855489474885206 -1.1000781121250538 0.3210811625535954
Ni 1.9225059916258618 0.24644185416907952 13.140867604764441 -1.5105454758529662 0.3751807726114764 0.7470229677680231
Ni 0.5184835693163798 2.02415802175725 0.08908496222746755 -0.7263304724156782 -1.1082429073240332 0.34726193471402134
Ni 7.406823626507805 4.914837159409126 11.137091631945507 0.06325479419458784 -0.238230448504951 2.735454246002876
P 3.5428821685890877 4.478210422558978 5.011398137375611 0.4899201078386014 -0.018733314743445157 -0.055542256041678534
P 8.397794770793473 3.942635866244154 13.186287076420781 -0.053247803580547 -0.08191303272572344 1.0217491972061628
P 1.839567474892945 1.8878113443567428 2.088994289377817 -0.295906977280813 -0.9508050047871174 1.7268886373665224
P 9.267733708502972 8.911050199487539 0.21870491559452543 -0.5131273991930001 0.6555809125059419 -0.5603053424303834
P 3.8771902122615396 4.821363488620471 1.5856139244274392 -1.5650217525239756 -0.9396356184338591 -1.507628045095855
P 7.98698948996229 6.253937868552669 4.959203115659894 0.5192237418987251 0.3677829374855085 -0.05191160126762673
P 6.389523986703163 6.110145222198329 13.24015814537264 0.5760713470153885 1.3005614237882182 -0.1902094405409821
P 8.016050365009088 1.2123877822432028 6.8696941490596215 1.1921472594481728 -2.97544975682805 -2.887338051490782
