# total energy = -381175.8848954632 ev
CRYSTAL
PRIMVEC
9.15914661772899 0.00000000000000 0.00000000000000
0.00000000000000 9.15914661772899 0.00000000000000
0.00000000000000 0.00000000000000 13.40533689577617
PRIMCOORD
 96 1
Ni 7.731794490283627 6.849054243595429 9.607216801825182 1.7385424195553674 0.3956007310287251 -1.3701879258371046
Ni 7.90478329518931 8.837202753917982 3.125360079260767 -0.7037872970078396 -1.4541185032134893 3.4566078022033047
Ni 4.625506502326672 2.985378091543552 2.5867472947378873 0.13153866617265086 0.6488600488423406 -0.8749502624403319
Ni 4.60836057958704 5.510188488128545 11.865734165433636 0.04584688313078556 -2.2842202418805626 0.7471846901568681
Ni 7.623395988347969 -0.0821401440818903 1.0264197819534835 -0.5381401191872538 -0.03530510305919726 -2.7216098839206158
Ni 5.407615203533917 5.152560443635121 1.4648946990059166 0.5356438351279613 -0.16468121436289057 -0.7860602841761429
Ni 9.14789933039972 7.289627521171179 4.78133564577258 0.6204781552655378 0.6233719318735651 -0.25190768888172743
Ni 4.7504739007559165 3.2043916089314224 13.247998706005863 0.09049717485030867 0.5587786213732119 0.9442312082243416
Ni 1.9628509469641842 5.61152528791022 12.61593697889328 1.9260354896064504 -0.6716582776837787 0.3379064616410503
Ni 0.7023444397955794 3.876782891069192 1.768029483920433 0.04182696333811506 -3.1538424072397615 0.9075744762332564
Ni 0.8619874519534434 4.371495885158814 10.761094354212668 1.5301447381411326 -0.32074434803946694 -1.2392984632126787
Ni 7.461636297373262 0.05578836293114414 11.907331346370771 -0.4456819639558324 -0.5058902580146126 1.7471137061641462
Ni 4.793934052144569 7.283188640997055 6.173654181746138 0.18270696151634985 0.5426102391434655 0.1586319228450171
Ni 3.6023656949142078 3.067718820939544 10.90981325202675 0.08619391948926447 1.4443881632996027 1.817704886119147
Ni 5.079781863459308 5.848335027457869 9.583717178976316 -0.9998220581157683 1.3465422613937068 -0.6654449497842152
Ni 4.958001848103457 4.972748074391282 5.6513419307167005 -0.08976672444218733 0.8759308811860463 -1.163639381816467
Ni 6.413582610766461 6.882045490234401 11.408786165275668 0.2409005391379464 0.31692394585211225 0.31765645314276264
Ni 2.170543758953451 2.480067964649574 9.268302725997149 -0.5675921058997837 0.6289198582749879 -0.7781189178418793
Ni 1.0714736248788321 0.512582489423502 3.3465754555303726 -0.8538170800061424 -0.03822176248535998 -0.4420639075872709
Ni 1.4828658608688616 0.9513422559402528 1.0588898731416627 -1.0571409464418955 0.790047293848349 0.04880390887658047
Ni 5.7418049914617875 0.9205400453775475 2.7769690342774482 0.8816479861754817 0.06454780197439851 -0.1270477202808328
Ni 1.4597848110270486 4.727127235657988 8.097118965801686 0.7724812599401276 -0.5443066530092819 0.1853387427122421
Ni 3.861807686112302 6.605759828139842 0.4107364410818257 0.06822987881167604 0.9495598195261067 -0.0821032943596586
Ni 8.42088289696966 4.562693073828595 8.975262236729721 -0.9741758183025738 -1.1540676789676316 -0.8158699113384079
P 1.6434989767917652 0.5061051408329742 8.107346984991507 -0.621346416803104 -0.14638447293623177 -0.30614433873810504
Ni 6.0326628560556825 7.427426884214862 3.996626662799425 1.4470844791848432 -0.8190632214647249 3.520086025262609
P 3.650616080059712 0.973470754518753 11.944852706998539 -0.47725793898990065 0.5139234127317343 0.06041398231168305
Ni 4.115571006317569 1.5734864589382658 4.551835821256181 0.6364516478756588 -0.39141034709646133 0.2609456307142796
P 2.934379962369261 3.8784315374864646 6.444199806564561 -0.1852775504570035 0.5448702388222358 -0.34432342091098767
P 0.31251833077282487 9.094052706582254 12.663968460431159 -0.15667865577338821 -0.39021658389867636 0.5175746363310765
P 5.923760601048079 5.037677265791524 3.569425739497106 0.3540848711731257 -0.29030582904395164 0.408660906646793
Ni 7.959930517847071 6.410642524655659 0.3423121192769652 2.0374218492009426 -0.25840563790124527 -1.0305773370207543
Ni 3.814729671752413 1.1736164295756175 0.963481789059435 -0.27419606796628265 0.4558108248597182 0.24868403973810718
Ni 2.371953396263558 5.947959066794933 5.427352248892696 0.25174519516193417 -0.05944313375798149 0.6261093854093863
Ni -0.1305984418589063 8.98095556235737 10.332471931332789 0.9868675548376294 -0.03372567438721934 0.018545881322987415
Ni 5.210272227386416 2.914925934645447 6.4274165860367285 -0.3005192792418437 -1.581800000423579 1.641112007920335
Ni 6.791644711687301 4.502160272874412 12.611446249235568 -1.164679650155523 0.0343692215084892 0.1785590007862473
Ni 7.985264717792489 2.7009865845640704 11.226098739863042 0.019578950573192085 0.14385090788110064 -0.9747077795466439
Ni 8.882293233430381 8.58094814579328 7.9436537981352116 -1.8972414481928936 0.9052265448263701 1.9008335364195261
Ni 7.587226517782367 3.9807666842652654 6.650910758020874 0.13053130795405907 -1.6087968407273971 0.15188354837759002
Ni 2.7917537289816763 8.213245039860968 1.8493333979028959 0.17848803833899582 -0.317215251840286 0.9261280708657277
Ni 0.6704834318671148 2.517382328560505 6.970426676920344 0.055847960207555426 0.3535498246052621 0.6241831149209509
Ni 0.6357931635036755 0.2807773076669506 5.989786142315809 -0.3537938222952681 0.7920291001650682 -1.275549732235229
Ni 0.6414791618139127 4.236389311263345 5.347589819310383 -0.0009201978214242217 0.7235624227522378 0.09849433412317231
Ni 7.701166303509412 6.125719787163944 2.570192136964444 -0.6881758157228277 0.3793289904518951 1.6548488978904532
Ni 6.207043851269284 4.003426413355998 10.331158509687029 -1.2512111554898646 -1.1789292180960018 -0.7808442871928423
Ni 5.681492010029906 1.721214337072632 11.692202223124932 0.3118419033435145 1.1228971669020982 -1.041079779213975
Ni 7.739598083325383 4.034256101358991 1.1827261169457237 -1.985299674584407 -0.7668857681302212 1.099390599139726
Ni 5.381383407205761 7.764593394840584 2.0465655483745695 -0.0058055509381835495 0.0937907579999159 -4.191517788757879
Ni 1.1545196085755458 5.804682533987203 3.298356211483861 0.1970999970132283 -0.15326243100298767 0.33327976150231636
Ni 1.3865391143663426 7.562167092239826 6.963562812336434 2.715648524130858 -1.4077640843186658 -1.0430019359373521
Ni 7.304914137118 7.986684385540697 6.376181234961285 -1.0363970290263247 -0.62518533093322 -0.11621617688296759
Ni 2.3414534375440192 8.036565098809948 4.214222344268442 -0.14903373763362074 -1.2692363884226914 0.1735209241417076
Ni 6.827081450511894 0.6509799447507829 9.887025987679323 1.244288203117786 1.241727127258829 -2.6622919628865893
Ni 4.350127595761612 1.6066242519254403 9.35341318137416 1.654207150541396 -1.553731010101505 -0.3361694243452856
Ni 2.4681427555646374 0.17292469087834533 10.059404793410614 0.25607853242996537 -0.27070450987325634 1.5430115668014717
P 6.229630307185916 7.7863005726680035 8.443954787664712 -0.7306098165173224 0.5030216782175659 -1.542252834258576
Ni 2.269050382385475 3.0557752935610822 -0.3346559884980876 0.09852544447142386 -0.20245226246407713 0.005545355298261417
P 4.312978096492408 8.651317870370523 3.688076074404169 -1.22029903929204 0.5832938329057568 0.6047028947091522
Ni -0.019818561764966294 1.8880115587667816 9.153901319273269 -1.4878639750950506 0.2037319005074491 -0.0613892017407588
P 2.763900763676536 5.373671405631631 9.876810791294966 0.5064049928675022 0.04937340822680529 0.09859512136709472
P 6.676514236881114 2.522648837949014 8.758014602837685 -0.9069088176247995 1.4671000030748216 0.9570381301810228
P 7.364631774010309 0.5437666364062087 5.140625159488745 -0.6306471253787397 -0.5246086603597223 -0.7750397646959233
Ni 3.571627598378841 5.770848645846068 7.612019412154114 0.011320824329457923 0.490057404747414 0.01759431604299551
Ni 3.0455903223610443 3.9898250804135005 4.125156969319331 0.35676576043939845 1.5167081530202522 1.0072414905082911
Ni 0.9693949342093852 1.6661953424695481 11.52070727505623 1.1915728750019414 0.2996299346583549 -0.646485377962577
Ni 5.09563634650541 0.5054090456790148 7.30309329874159 1.6289244647152075 -0.5053397848277813 -0.015347428990347762
Ni 8.195586204902629 1.7748777779548472 2.478405579512158 0.07660164781513905 1.8594254057863848 -0.642576529826474
Ni 9.265942413876422 4.2456034129065445 12.884875173454864 -0.4488518770433818 0.5758492037022533 -0.17186719058836852
Ni 6.345896516190668 5.791704023024565 7.48096942435981 0.054013478101977944 0.38482498056945985 0.2329470886188246
Ni 3.163953975974437 8.972968786380362 6.127057022591287 -0.1734561323420432 -0.7864757744470069 -1.8098882182882055
Ni 5.407422861451902 9.174167763314928 13.126318525349726 -0.35933532093878756 -1.7492587775316066 0.6955170865792474
Ni 6.325343390855339 2.973022402560772 4.524368456029746 0.494909847743709 -0.18986285583484075 -1.169235902067638
Ni 7.560912289133347 5.69001917566591 5.116173901291243 -1.0620229571245452 -0.09355035985433567 -0.3111947566778189
Ni 7.45576528429842 1.4967236499207122 7.179376123845444 0.7609861148163345 -0.6750487914225664 -1.233796559557843
Ni 3.495313587552656 8.17998817796588 8.235166541722634 0.05629507504730305 -0.6929665522432518 0.900339649047714
Ni 1.8525931382357137 2.121679710974851 4.767607916604758 -0.0672916832681228 -0.4688807706697989 1.5073117994070169
Ni 8.232186155366076 4.041739124264054 3.4618744586369914 0.20495086051621478 -0.08104579962942171 0.9469545206927755
Ni 3.916103108121138 5.98955075224401 3.1964625355790193 -0.03918489772957768 0.9935382819895858 0.36535170233619657
Ni 8.720057266824018 2.0684009542566657 4.821336387428988 -0.6674367834032634 1.1292825016031518 -0.21056100761414062
Ni 0.24311306434968727 7.6544271775797394 1.9377008458686942 1.8615859037728133 0.7767071250960171 -0.3799928492881391
Ni 2.724259976487898 4.692615570656419 1.4397336069343116 3.044925335121369 -0.2271821611105894 0.38235646442430926
Ni 1.1646129883079577 7.335349981810199 9.26602393028261 1.2315908101557758 -1.5237282930918274 0.45212052049232454
Ni 8.658901643889976 2.0215061228320295 -0.08842240284637425 -0.7450357621346653 -0.646413644184377 1.4681310154424974
Ni 8.962362494429241 5.974374046058341 7.082066600895295 -1.2400366269302836 0.3365977701319558 -0.172975850271515
Ni 3.028517672795512 1.7701333399318078 7.0273993175278955 0.5376292409891064 2.0406745518102856 0.5305435377869187
Ni 3.2393795495646476 7.1496116446109435 11.315780525389277 -0.5493023064516603 0.2842969038457104 -2.1840706315421548
Ni 0.6184741328902295 7.004375054396011 11.567251311159858 -1.268511080220893 0.76389197560922 -0.07791316753771098
P 6.577513019523909 2.157189722973545 0.8251209703192047 -0.7912482561349856 -0.4064885815858225 0.12559041900901596
Ni 5.145132375610633 8.461201461018732 10.09553213190111 -2.1891621871324496 -0.765825702296823 0.9708446970468118
P 0.9343062429617718 5.8312165821585245 1.0830617773629043 -0.24904759372511304 0.950358404168002 -0.7288586381541705
Ni 2.431148961790398 8.510917309646256 12.927034726003223 -0.14192618005456203 0.6449481153824441 -0.19737304816895684
P 2.4191504795313605 2.5465725292929884 2.7455201879533018 -0.3062991191484144 -1.044457437436956 -2.101777332658877
P 6.093772683255911 7.00018016517873 13.41740170495398 -3.0904881113528324 0.6854687012043097 1.3062245356112667
P 7.92028057151167 5.138510312501254 10.977925246927004 1.5789756436009066 0.35931398078254895 0.3698796721135372
Ni 4.353928641668102 3.7037757678699834 8.47665019386325 0.07676388442461618 0.6439965501024523 0.2534727193760022
