# total energy = -340866.7974599407 ev
CRYSTAL
PRIMVEC
9.26372216274350 0.00000000000000 0.00000000000000
0.00000000000000 9.26372216274350 0.00000000000000
0.00000000000000 0.00000000000000 13.55839377656148
PRIMCOORD
 96 1
Ni 2.024345637323163 5.694993671348225 7.7484320283452615 -0.5628350508307726 -0.3057460748584218 0.012081613754882418
Ni 7.115946761001365 6.780572224986966 4.724381616114399 -0.8845147662003154 -0.8521654033353324 -1.233163296849218
Ni 6.310753288199787 4.905520735176664 6.1357022873892895 -1.5401303885989348 -1.4329444402390354 0.5378195026230416
Ni 4.766148034175734 9.048248054213845 7.543022883403813 1.6652582661492352 -1.4750686231025951 0.1306269529916589
Ni 8.8711349488342 9.123997510916045 1.5805151468894572 -1.0295100720985044 3.2772383897006203 0.05069881190644817
Ni 3.149804515176527 7.228121173525143 13.510153217312615 0.35765664768478406 -1.0493782717773412 0.6519834249626707
Ni 4.628739242288278 4.0267547803977255 8.515321862456334 -0.10514397822920601 0.09167679698070663 -0.5190568773035578
Ni 7.378665923539507 7.300739492112467 0.29367759586981373 -1.6933174862792968 2.2808497827464334 0.0023235059268540627
Ni 3.721366913252719 4.570646440162865 1.6218276425613578 -1.4348701965068387 0.5951319631912654 -0.003842770784857898
Ni 1.8590159866243543 0.28899478428084935 0.872732492488349 1.302926581586285 1.4677029267661432 -0.6835637708721131
Ni 1.0551286986576804 8.414211113395861 8.33716473558099 -0.13207885494683705 -0.7890597331240992 -0.31195374633103046
Ni 5.396108937211039 5.84366714947145 0.5090461685843498 -0.3004236342042439 0.7241211234691851 -1.2823752397974948
Ni 7.716625038057014 4.8553391518385425 8.911240381499093 -1.4524670836529952 0.9413685419645659 0.015823340185501782
Ni 1.2681943100250026 1.3736432602073605 2.980406237672825 0.3331895157813552 0.5057856141159482 0.09138497677190069
Ni 2.073295145604247 0.2756068529091948 10.63866148830965 1.1579603291538187 0.5633703545089523 -0.3221209166720194
Ni 5.197327985527561 3.217920664758436 0.5709185693809736 0.9324023339102135 -0.3694456698999122 0.3114546952074249
Ni 2.4273268181966365 3.1653675685285747 7.503757670345486 0.6217403098074131 1.9702934309835618 0.8318567736849674
Ni 0.7552629363359809 3.8607488779758814 12.239826398429493 1.1406863725647192 -1.4215480254766355 -0.030951454076191855
Ni 7.853468742888235 2.534322809991966 2.2065741701200703 1.6823771852177092 -0.7633528152762982 -0.03809192177571504
Ni 7.208787785224118 2.276161398792638 12.751547003622614 1.1545088802701085 0.5055907244963229 1.0325779123905507
Ni 3.573629071075064 0.4833541613423441 3.0004186568135567 0.42425387598904357 1.3073527356784387 -2.039505471202849
Ni 3.6621995193482366 2.240551650527595 10.066782270933077 -1.3433062709549124 0.14029584353999064 -0.443117802773082
Ni 0.404897845003556 1.4328384452785428 8.731511200960748 0.8485542889453063 0.35467648201053753 -2.094229087997974
Ni 5.452487950723279 6.300118535075889 8.192442234990295 -0.19701617905017035 0.251690944885231 -0.15438651730510186
P 6.937082812119614 4.733928808248101 13.255539811728665 0.4885725926717715 -2.5590151197731092 -2.258983578800961
P 7.023828307112815 0.30019740357765384 0.20213441913195537 -1.4210911404448752 0.5666914484623854 1.624988362885595
P 6.032443281142898 2.8640372117217807 3.6097733361129722 -0.3908449615112946 0.8451851153627573 -1.0332350863585753
P 7.260201443619276 3.012386459566837 7.632684598156076 -0.40052413647227153 -0.20151818068558197 -0.3233419335633141
P 4.021631942002676 4.772929078850555 6.087433662692357 -0.6119577764993526 -2.031544050263927 1.7405311678506215
P 3.9777867446721746 0.06576409050685905 9.732675938492426 0.5455004162070669 0.7168772974225783 -1.062524579351312
P 1.4293738131632654 8.326622619679425 2.8596276799387 -0.019962559164855943 1.1090857149403028 -0.25598005917888816
P 1.1385855722580371 1.8018773478889782 6.531729191982177 -1.8490695164733575 -0.9509284177388592 0.5944305662488665
Ni 5.986411845365323 9.285028794498574 5.268588242435473 2.3265861084412833 -0.43147816165162467 -1.135634669073425
Ni 8.721868592488041 1.1379556391461687 4.563904303121425 -1.2620529833003749 2.231025660135454 -0.6038662577404696
Ni 1.147719602380132 9.042976996263063 5.0746624075745 1.8016516893110261 0.14180122444092352 0.3267252482132502
Ni 8.395970844318372 5.669083040261513 6.331336352630093 1.805928719419825 0.675297931318895 0.9000750825324176
Ni 6.776190484370586 2.464872684408452 5.537221365247394 0.2994808106750004 0.2687712974062855 -0.13314123477308037
Ni 8.596511903226189 1.6007063558692927 10.689979730365803 -1.285330979991709 0.1411147398968602 1.094793980907979
Ni 5.041299111951047 2.3796557035837567 11.932850729293689 2.380233204342778 1.1730776444112314 -1.98228762723096
Ni 1.1701563376293345 6.391347671630036 11.692420082449015 -0.3239944795456485 -0.5948128892889497 -0.14056606648224176
Ni 2.930569264801785 5.060762192363341 4.232320482244918 1.2907701487294094 -0.2917032236121105 0.1628017379519906
Ni 6.00189152521727 1.1454314629884916 2.115014318682192 -0.8526168890504542 -0.7860955082894526 -0.22919816309935365
Ni 3.154732815404675 7.948292203668927 4.283937016156987 -0.048263977212710425 -1.498099793890446 -0.5100207352432184
Ni 6.416044755104178 0.4595964193026643 11.307755133175345 0.5697448905767285 -0.0657636766593706 1.9448683060422376
Ni 4.176011873021651 0.024100499762314168 12.322519014945598 0.4700323677757388 -0.8053579560634905 -0.31960612066996563
Ni 4.718995688007922 2.099622644191461 6.767088877276309 0.3457223581410433 0.43674172404340916 -0.12297612131462046
Ni 5.24461002380664 8.32611311495659 0.863790221416485 -1.0045096933994249 1.547838812986786 -1.5681831809710927
Ni 3.7334653344894893 4.611601356156559 12.274874765127196 -0.6941302335340498 -0.28901719213951516 0.24136333770697788
Ni 5.7894558469618165 5.443900480212953 11.49563361016238 0.10529181666097996 0.05215379918541986 -0.7042498384665549
Ni 9.374145802383515 8.433034996974053 10.56121584406652 -0.9371506472284763 -0.7081962247088126 -1.0051763804491463
Ni 5.879749347570394 1.5989647760894208 9.265291507908174 0.4878128316876115 -0.4909583192951287 -1.4039344261599305
Ni 0.9397953568523254 7.448949784124023 0.5955887880606395 -0.6723545324198549 -1.1242457105101928 -0.44010524119900335
Ni 8.697152981569431 7.108026278491841 2.324247528161573 -0.6678787560366884 -3.2832794536883774 2.1015698446337616
Ni 3.1416524396111685 7.39724895033963 9.071758454869894 0.5821378649244426 -0.21059314640365667 -1.8404655768544305
Ni 8.103265012910837 4.242136322323388 11.198636822616352 -2.1620684162394506 -0.006452954714195338 0.30056144533368884
Ni 5.5959644806735875 7.980974615708227 9.967236164557816 -0.015748263973192234 -1.255049298289032 -0.1999215256224234
P 1.9586565829663942 4.992970273059599 13.532632565684091 -0.11003215955944276 1.5146805810672623 1.5238267663429046
P 1.542289323465713 8.49114632654393 12.385592920515888 0.4310783551100447 -0.40078510344314205 0.3910115689961459
P 6.184396116936732 7.566497155543152 6.619167613398433 0.7242874738437203 -0.459041415981874 0.4662849849181648
P 7.42620734604112 9.022281840793733 9.536201653645053 1.3866663831081023 0.9886668128298972 -0.9277478658573377
P 0.19773507744333182 2.308315778664637 0.13784974506576422 -0.5178834258207469 -1.1401654670642427 0.6715009261703081
P 4.11687227028387 1.2280082829766792 0.6756366118791192 0.3464538369904291 -0.6077270262474566 2.215384868274404
P 4.100216097708285 0.48698183496892866 5.082350370655967 -3.213802589843478 1.4466707886861925 0.7643169789617804
P 6.078548826698339 3.5391772880891916 10.118168138161534 0.6020759986092662 0.706109774493429 1.1499863098094067
Ni 7.795746489652157 6.813152736081699 11.314154512494152 -0.14605794283474846 0.06784961265412184 -0.21079934887719176
Ni 2.081336056502805 3.0214371161888316 1.1230067705781925 -0.6201102304031578 -0.9336241221324567 -0.06461799309070163
Ni 0.9501336708647573 4.505578055195732 5.260914174937357 -0.4080718669125423 -2.6394690514548023 0.6744726072041222
Ni 2.9059277636610426 0.8958686387661702 7.824006400697251 -2.1154998244512924 -0.011971570539579382 0.44053564386820265
Ni 2.859470196660733 7.801351041603341 6.627736556464293 -0.06410402956876056 0.0002740795969930764 0.17615347666854825
Ni 8.723665754601313 5.742924170183639 0.014848820367855696 2.6037104057979548 -1.9837989216691643 -1.35399486101701
Ni 7.346520807389742 0.7647693680918568 7.071150179397497 -0.06121051007104941 0.9612094879498928 2.6926968004306917
Ni 2.7821088522899284 2.3405998506479033 5.311107801114381 0.1711447106000472 -0.3240453873882419 -0.6931940948730255
Ni 3.1064410314021598 1.9972677772350462 12.63867410644244 -4.443845338785844 1.4917543112883922 -0.3640882622427407
Ni 0.36828576199286334 4.7343734669153035 1.8904468697899277 0.42678846948543914 -0.7383344388550898 0.12963553561266708
Ni 5.59583478856232 5.068275071094597 3.189747832702336 -1.2106041806017795 -0.0887015164024666 1.3503086704146745
Ni 7.914989122239991 4.60675642942851 4.241173821583342 0.21252404487778237 -0.9487152121376242 -0.8350598540032973
Ni 8.20269254364151 8.475481372247316 5.700735326388464 1.2055149390043305 -0.9504442790135891 1.04648475227963
Ni 0.055515634600090846 3.8515592655203865 7.651408433534146 0.4882823151248623 -1.3274865303138363 -1.9811414294416587
Ni 7.935980716820789 7.441788926837634 8.031925087991716 0.10053938957765911 0.23488467196116963 0.5859562102292682
Ni 8.662719726028026 0.04572665931609738 12.613807496851429 1.707424872214956 0.1615724935305798 -0.10937987068742451
Ni 5.947587585485303 7.4997427731295465 2.8197529139574176 -0.0696691823613639 0.1803934828918248 0.7374319816454783
Ni 0.8925624163010835 4.180578888082699 9.721965222846212 1.0156397418743153 0.6356942008843439 0.7149762237451235
Ni 7.211557638171892 4.595584380415076 1.7567611678680595 0.307863892532373 1.2055527342208012 -0.10740834878335048
Ni 3.4665589695018677 7.304222651672211 11.21753759508908 0.6265958381275015 -1.1187769740861377 0.8379302335725569
Ni 4.676882806735059 6.56724722939711 5.322631871572683 0.6812893730156396 0.8800788419161489 -0.3794310632473981
Ni 1.942463596502478 6.2923462721220975 2.518526310839637 1.3588953836424211 0.05113641366449903 -1.7435211037168812
Ni 3.660532049346232 2.9718762022403453 3.3097399004188484 1.1946970224532198 -0.5545776959179868 -0.9367662673058641
Ni 1.0705620598984613 6.580244231690516 4.575578445879907 -1.2899093433910107 1.2686059539275443 0.013779313172279496
P 4.069571704560324 6.628313686359431 1.921874973838831 -0.2813938712663025 1.329829062404084 2.3939153298155613
P 1.3584322283001804 2.263896230555667 10.554355131380493 0.6976140783175921 1.0181936186444207 0.5241448333494263
P 5.665729572813036 7.578530730724289 12.243093713261201 -0.30129626661718434 -0.39361403961599956 -0.14387636180239738
P 0.23905035223190232 6.2673249583697865 9.352295460751685 0.013385420167970497 0.6501327449071771 0.6326831819721621
P 0.35417155479811324 3.2887696123991876 3.475585540446056 0.07004944851891808 -0.19363646394466005 0.8233392231322594
P 3.4140614556054065 4.992757207448232 10.095241352006187 -0.42649330684252357 0.8479289966564816 -0.34513563239963785
P 7.7812024457457785 8.666916192199738 3.5463196179311134 -0.9310777015615191 0.48121743785828097 -0.10541471539208941
P 0.6909977160864798 7.318701849522956 6.499772129393748 0.012724132434887764 -0.14751113034150723 1.0732391375553387
