# total energy = -381169.5807515765 ev
CRYSTAL
PRIMVEC
9.17847311704655 0.00000000000000 0.00000000000000

0.00000000000000 9.17847311704655 0.00000000000000

0.00000000000000 0.00000000000000 13.43362318107432

PRIMCOORD
 96 1
Ni 7.831467704364238 5.674636727827491 12.35071184572719 -0.9463749940402219 0.3678785825231084 0.33855360830674597
Ni 2.587255460530358 6.876052930670944 6.6211098332766944 0.5338857147862741 0.3827143619843602 0.4603853316042781
Ni 1.8824497093546375 8.51143650802558 11.415315321305462 -0.04671488755803568 -0.39505977092359057 0.5766742707067102
Ni 2.663345000402563 3.043875306019177 10.615907050532297 -1.3425372539993716 -0.493086421381725 2.1914088170747807
Ni 2.8155883294568764 4.149064399571896 0.04538938390543143 0.26775571165757756 -0.6642205904588109 -0.5936219543046422
Ni 6.419892008824299 8.15538518948245 2.351085093642818 -1.3183655418491746 -1.2676032236946426 -0.2267818403483772
Ni 7.588430921942512 0.05612727928498418 4.096758118531641 1.170935401257248 -2.073130872566778 -1.0110876037272587
Ni 7.785098059559126 3.711600026907358 1.1459360058939327 1.5819336977879659 -0.0806688759059772 1.1589190935226623
Ni 3.8143438519169433 5.353894994313113 2.79896244374825 0.9744786942549735 0.3508599364779248 0.4714894119372396
Ni 4.9796244071757325 9.115214808613443 -0.022527643746964914 -0.5672439785317457 0.0076976257545738405 0.021029052756157334
Ni 2.2150683867284404 6.140811363546342 4.313858372392343 -0.9144385503429413 -0.18012763082494784 0.2505036094453492
Ni 8.633161414875422 6.194083219929729 2.951474702056877 -0.1283420136122241 2.3430895054129457 -0.39122625611011336
Ni 5.487551915859439 8.849424592012802 4.883793807911834 -1.9448842468818375 -0.654893142410298 -0.026354064513496547
Ni 4.036472073201288 2.8604710616613493 8.931223141993634 0.908735329310577 -0.2561862616524233 -0.3164058685651131
Ni 1.2617004124792366 1.1669969296805143 10.339026485194916 0.33777559249014083 1.2269939348137129 -0.7885059175031581
Ni 6.301682457073499 1.3212044519233261 11.57240763756297 -0.1719299255055039 -0.06411817063614764 0.5817264884186368
Ni 6.416909005150177 5.399456933508001 2.82475487028563 -0.23785378189182263 1.8320786383423158 0.5266861117140413
Ni 2.1835678679297184 2.621702269111828 6.626550831978292 0.0781579365586654 -0.37335760335980855 -0.06890967848752003
Ni 4.422454391686912 1.8925368510095895 0.7520143083987241 -0.9561852952624242 1.803200521855385 0.488439666638333
Ni 2.3585370957444156 6.452172697814714 12.387478972243484 -0.4213148479653777 -0.5073354751015714 0.10759295399033085
Ni 2.5473474606070354 1.0628304413801946 8.357997223959767 1.2046291939652674 -1.0581871283182227 -0.5117965961967185
Ni 5.907118266479249 5.443651280249215 0.2446182332926524 -0.04663312647750679 1.0990589268319202 -1.1577248161042448
Ni 4.60266452749522 6.264050718415351 7.954410594560404 -0.36983596335979535 -0.10555638317627627 -0.589934735261042
Ni 4.058270946204484 1.637503804581474 4.951525430412793 -0.11992293631059346 -0.7335686420353301 1.0308192778282312
P 4.91157520951439 7.129975381885003 3.6125156590204566 -0.44991888485531545 -0.30445383840955953 -0.27400117834665716
Ni 3.31456682711822 5.105433734440908 9.54081416943325 1.2096798690152972 0.9163486228814606 1.146914098641986
P 3.2623872090032036 4.51046676778276 7.309449404171265 0.6764063338917254 0.09478963157807546 -0.42663934550208465
Ni 0.6448042385035161 4.349412104798733 2.689586254261988 1.1317343055777542 -1.0003229090115868 -1.304473871468747
P 7.603896648683726 6.698394410313117 1.010920670366776 -0.06723023390256809 -0.5430259865246454 -0.6965848657221293
P 0.41706613461725345 8.219983281354654 3.4090775619872296 0.5999409545441345 0.8550869478575014 0.22613289391046862
P 1.2237382487987252 2.9413150504664616 0.8682321315424942 -1.9987167193212612 -0.7725720198817211 1.023992741824701
Ni 0.9924315546709291 2.841269696472851 4.471784093984038 -1.3307150645534631 2.15820790484278 0.3456971613300627
Ni 7.068874288166153 3.439201309859434 12.499918935964889 -0.4811169077246746 -0.6933828138450638 -0.47993137205700576
Ni 8.497402623047945 3.0173770549201357 5.986237620237076 -0.11433104404511277 0.7263649251980394 0.6967046791294453
Ni 6.554053746377014 1.702147788817896 5.112312999837075 0.5541979439810648 0.7347006987572443 1.2850664134764127
Ni 2.6095040787028823 7.927612207399382 2.827226633022372 -1.6459798775355976 -1.5894492894387207 -0.11791490474162918
Ni 6.038682496217269 7.869264655533567 7.007944831889476 -2.2386754633712287 -1.7880006741864949 1.3746392767402391
Ni 2.7407562403642247 8.74737833093932 5.1363862984108755 -0.2250376039637608 0.10797939079547209 0.05554662691705273
Ni 0.3745964229233237 3.1058667116038423 12.292704815203866 -0.4755604966828197 -0.2898083205822428 0.7858286277813111
Ni 7.4718459598850036 2.0899107310351495 9.25353623005881 -1.4565556519000722 1.6681582134048498 2.161165959029839
Ni 7.708228349495228 3.479513162587869 3.6300869274319587 0.28913263467145695 0.28441260348796826 0.3900587181645734
Ni 8.500385626722068 9.468053661661367 10.878359974407058 -1.537034009061798 0.6241131809149638 1.0723117406450628
Ni 0.0904373286210865 0.7224541187591074 13.039842600980865 -0.0128467740556811 2.0893527337422793 -0.4382121379413486
Ni 8.259827031968072 7.252755813111841 10.774638642039646 -0.11956606719180697 -1.190334631719466 -1.1918608385560054
Ni 3.949340830498413 7.694745172888199 9.71617623588565 -0.7864606049383552 0.007176977364413446 -1.4439161087591907
Ni 0.1306739178722048 7.708696451610244 13.015877608386615 0.7118533618454257 -2.235547459265208 -0.9574029697196091
Ni 8.516291920159766 4.640241195316307 8.01475446426967 0.06570916927235135 -1.1144837460274226 -0.7217814195924149
Ni 5.867880295073498 3.5201554403386672 10.582847109197472 0.5095677068661999 0.09225375253009918 -1.9693194971060664
Ni 5.956654484415352 4.31048620146966 8.347572314504175 0.45847680172765554 -0.6856255384971482 0.18635278579905326
Ni 4.376653812198095 2.8907967359361098 11.9163754966077 -0.13463453148915525 -0.3197287622907591 2.206257709162155
Ni 0.23884680956869073 7.084477692000019 5.48519029479682 0.9599213652660886 1.0886194766661508 -2.120627375485845
Ni 1.175386053859428 4.930069832293943 6.386788010819825 0.06594133988781548 -0.7028334177350025 0.1824246543892407
Ni 1.6386970060511226 3.7818979504153454 8.807727707732292 -1.7528212980718845 -0.706787517286744 -1.616464384574984
Ni 6.135864166683723 1.3409657039552751 2.5109860225904224 2.2883165234371234 1.188424816291263 0.32506354424011114
Ni 6.040683403297141 8.491115369150183 10.531799196784053 -0.35250904204557354 -0.27340982461956137 -1.2094826654028268
Ni 7.641565101233247 9.067707033175743 8.751065323480535 0.15863397972754617 -1.4631551594944607 -0.8154173971820213
P 6.661946694651775 6.273412760715671 8.765788511768713 0.7199466803765214 0.6982689382927716 0.13531561671657985
Ni 5.849853774408961 5.887971972127811 10.942465182287568 -0.7518275882455181 0.6675774227461858 -0.43856926417045117
P 0.40821900464345157 8.107023816070308 9.309084347707374 0.34038166265442027 -0.7887640562605513 3.186513415110222
Ni 2.3498359034888243 1.7927484942555958 12.848225459122718 0.6106066617880967 -1.96603182749373 -0.35585841813378066
P 6.6042141004664705 1.4368348528051156 0.41079999120702987 0.7706498631583436 0.6127867001585512 -1.1806480005593216
P 9.0648249927029 5.01888073552717 4.703675456831961 -0.9877296457276086 -0.9181802767735606 0.2535809628190923
P 3.856170152664547 8.783706726453698 7.00762266749267 0.2702350264360055 -0.2831417071953446 0.4585349086591006
Ni 5.4538210281597586 0.7930329035361043 8.295732299884367 -1.165306485106245 0.22266293308399718 0.11531037723924657
Ni 0.48521629547987344 5.225240340466468 -0.16672512350670968 0.5297403251593328 -0.732206471580481 1.4047342963534064
Ni 5.518299799884999 3.555208028127805 4.425800862885635 -0.8848880903793342 1.502035381499426 -0.6003641581244822
Ni 0.7754533744990435 8.686378200421748 7.509220701303534 1.711421394968859 0.7902406408060778 -3.04336390417152
Ni 5.527303881744424 3.832287766325889 1.5826954718440935 -1.517731452078444 -2.845642728634525 0.9763167759049768
Ni 4.176801744504803 0.19888649235016026 2.552965603834511 0.5368039168743336 0.12930746284928699 -0.010602200995878516
Ni 0.28713934443450556 0.775042178915657 5.313575798806404 1.3929709851698915 -0.27486635456042985 0.04462226669506509
Ni 6.854685445891391 5.016907363865829 6.1236366051616775 0.35458957872368607 -0.2644269043946607 -0.18972967269108615
Ni 4.5690988523067215 5.755609215252411 5.384343660123976 0.2751360632820487 0.3006280369055661 -0.24560925746752535
Ni 0.29153491507923396 1.8509767259744458 8.003416296766156 -0.23230611260071604 0.08355262521167546 -0.3237548527310167
Ni 7.720187899610243 8.929552659936125 6.393692058092668 1.2643021843458677 1.788248785641559 -0.878587602082603
Ni 8.436026175143793 6.872326470696503 7.396055638227495 -1.9447888589545541 -0.5440220318893275 1.9238022294005577
Ni 6.987066559712478 6.997254664568708 4.816652361214709 -0.1527762353951885 -0.5670747999437331 -0.09195370479117711
Ni 1.2421043729584698 4.938761846076691 11.01644367340578 -0.5431591696684 0.3310943238152233 -0.9839668362510667
Ni 7.894817523929734 4.7596255915910675 10.180805216777664 -0.04848380653300037 -0.14531926489651104 0.7643066945491354
Ni 4.847023010006403 2.8454734370351513 6.780929991663276 0.5548864854076573 0.5619824730224902 -0.6996694181847241
Ni 4.41859025461982 7.048332865942511 1.168012068777 -0.7070921930113564 0.7215546482935896 0.10907082408743796
Ni 2.102705522178919 5.961289613201294 1.1666151052102267 0.2589496833301734 1.3560810541220774 2.6974232593720835
Ni 2.7955609017124674 3.3438645124345134 2.3036378961258848 -1.9654846967410085 1.4497046904165096 -0.8875232140093361
Ni 6.727866486613436 7.964362812664557 12.712989840247317 1.4412223639771116 -0.8709874211378419 0.23079096150777026
Ni 2.9793047495655034 3.889699113961672 4.806388992881163 1.203774559274456 0.5126085505750526 -0.22469050503698723
Ni 2.1884232800639034 1.3985147286837099 3.5832978264179007 1.186775710723614 -1.7458556653873287 0.023538449441572365
Ni 3.659585621303524 0.7643823005552736 10.528896963670954 1.065651297905752 0.42301126183119414 0.4443303350239445
Ni 1.3209290977380226 6.09367072702238 8.484743673302258 -0.39002118005841857 1.3406117548418848 1.1571062086836394
Ni 8.4779167252013 8.665175928153378 1.4133517300351475 -0.7208954174430359 0.27066414355362417 1.5352311515251043
P 4.315506826115027 2.3769950046325943 3.029859777987228 1.723060007649052 -0.8267503056963373 0.3520146189076583
Ni 4.249522784843462 7.570505364479253 11.903103424876068 0.9729152064225954 -0.09458651442833388 0.6418537927278365
P 2.7642439523706144 8.625882885910567 0.12324577980000033 -0.01953961269482441 -0.178714295417189 0.268032362357732
Ni 8.845780738293954 1.4135674241469687 2.954993728545056 0.2758204909435831 1.7785773239900662 -0.6684012041990618
P 4.1673754528945794 5.17351046752078 12.265958745338052 1.1938835254129891 0.7100613029420094 -1.247376869345439
P -0.014702077800639016 2.9749633319105513 10.2746927333406 0.5718189994969378 0.19324308516098332 -1.86168309147231
P 7.220190591463278 1.8203848759872254 7.217294783281169 -0.7256465589747761 -0.5371834117009393 -0.6961248953665754
Ni 1.3618191942555946 0.5055713947047936 1.723708021527161 1.506621715318528 -0.33028854008447633 -2.295957584922149
