# total energy = -340870.28543471685 ev
CRYSTAL
PRIMVEC
9.26202714939119 0.00000000000000 0.00000000000000

0.00000000000000 9.26202714939119 0.00000000000000

0.00000000000000 0.00000000000000 13.55591295318730

PRIMCOORD
 96 1
Ni 0.3200002638730948 2.3502579460407915 12.094192208929252 0.11103643245424104 -0.31987891471537816 -0.8104004035834044
Ni 3.0421962179553756 5.332112056275023 4.16319697735595 0.5835817964598208 0.7641156615842517 -0.07704310622793184
Ni 5.000003544140401 1.4869443833872473 4.540566238193706 -1.0982089201267988 -0.02826208016948681 2.5635549166249914
Ni 3.4343597149655003 9.213475731768208 2.6431186175816537 1.9884991553583107 1.0940054235684125 0.13222000851039165
Ni 8.625809362957943 8.12216810562062 0.9341634403224458 -0.15250498401167284 0.16532861813890237 -0.5994264768015612
Ni 4.215037470237917 4.220363135923206 2.2988527684409266 0.35649810860030867 -0.24693003316147796 -0.45629882023973034
Ni 5.550668113972005 1.4669291424378395 2.4987347267384656 -3.3754013086263033 -1.1881764477258827 -0.7354954267443978
Ni 1.981212469118461 6.084040478874158 6.810517776713979 -0.3125882945912359 -0.419789926680419 -0.42011337145810873
Ni 0.14681424680113575 2.075027543425056 3.1048603159153054 0.5390207220199942 -0.881660841691288 -0.6202017616756996
Ni 6.946798319890976 3.325966209722131 8.450674615346532 0.16929454476518585 -0.08325103481085662 1.511261013862752
Ni 3.5902488960943684 7.612886273670531 12.478163442811312 0.30997631088968547 -0.8591629176990881 1.187029221495317
Ni 8.97091249936467 4.610211126113639 5.905606597146051 0.3966906216587942 1.1726063612017676 2.383488735165598
Ni 5.039089299256783 0.25412224244743375 7.008759429980449 0.028164378249357944 -0.14368430039624933 -0.06352655979873575
Ni 2.369986064144558 8.450979336044004 6.392928162418192 0.6464141584050094 0.394244731221463 -0.2693690788912845
Ni 2.500210167683973 3.7444246021766654 12.03457346553858 -0.07103160992652928 0.4609221779443545 0.46810763994920024
Ni 7.918672104278907 4.589843928127639 3.9431849289707466 -0.4584685741975395 -0.9159719562683323 -0.012489390716262361
Ni 7.313463455802665 2.0385073698648917 1.7278367460696955 3.292923147425728 2.04634126317776 -1.2635784188059658
Ni 0.04350837314199147 3.353187307894417 8.026822018204845 -1.1803561803505156 -0.22205461007603694 -0.021081503260647564
Ni 7.521923903765795 0.881189275301558 8.540374570933173 0.1644608708219684 -0.7687145938088439 -0.8050867046799749
Ni 0.42091653449431804 4.569328537705178 13.047823504388932 1.0681974613663732 -0.9281157907197177 -1.1543412443439927
Ni 2.8669493998138913 1.373012185831178 8.150845194481128 -0.9419033314221132 0.46209537231684933 -0.839941864685947
Ni 6.299947596769414 4.35388452117386 6.521017368669852 -0.4439721803535774 1.6352583773530354 -0.32073406362682183
Ni 8.938745478625524 6.931775311644822 12.158176145776407 0.7593971730626599 -2.028714808345248 1.305222062488681
Ni 1.1029036843005984 3.809092076636992 10.099087625095374 0.1532364628610587 -0.8061274872396632 0.3658875202350086
P 2.048769696089762 6.01623317716633 11.324569609416768 -2.5669387454955594 0.17197594825209092 2.278783130025391
P 8.571357904586092 2.204501422754891 10.05425848686343 1.8186016869018033 1.1895977535534414 -0.4052256557129989
P 4.024971408450411 5.0423402708316285 10.956918993802619 2.393831254742187 0.23073645412075103 1.729322700729312
P 1.1324125032107386 9.229600921260534 2.775031188693987 -0.463744220774182 0.4182611487407184 -0.7863387346485103
P 6.3378015022577205 5.823777512340905 4.670662525756673 -0.8665232147189013 1.7791113421166649 0.4218843473156024
P 5.547685741188244 3.2920301417727416 0.3194352802090902 -1.7812674692277195 -1.0407707326139881 1.1810766034563078
P 8.016905165597473 -0.12836150985365527 6.479278968940832 -1.5173712405255482 0.6739750987424135 -0.29776768463863557
P 7.720075715367662 5.391074121931632 7.839668863996511 1.6605166376991918 0.5659237170584254 0.18633273119439522
Ni 0.1080711866940681 1.273186055820665 0.6016075722702592 1.0675659984299615 0.16369108253547937 1.514897582174075
Ni 2.905081166120561 5.825231650623669 9.353648178807742 -0.44128769154287867 -2.2262184685547983 -1.1981412722480784
Ni 5.785201168724854 5.401512426674798 9.077188705172114 -0.528713169446399 -0.009851438872783034 0.3407997240284453
Ni 4.0428656451529825 3.145319629677128 6.47929286198175 0.662915241383826 -0.18429358927717937 -1.4211680164293976
Ni 7.437028161728649 7.032509120328654 3.1355370764652983 0.930317683467043 -0.2534045851422281 -0.02854284463469923
Ni 4.419320743898324 5.023955146683284 13.088478246926336 -0.27692683663388434 1.2346689348604671 1.8909892966355948
Ni 6.919521649555018 2.0418787477943616 6.351555612766684 -1.1229840701889497 -1.0595575263031882 -0.31534657406266337
Ni 8.938726954570967 4.095297981578063 1.953406937024885 -0.16776448127390464 0.36317706328238103 -1.2383165589153835
Ni 0.6072073939629996 0.46112021630324673 9.562341103655568 0.13456922546885855 -0.060281827609192956 1.3960609369491248
Ni 4.34302942520315 0.43623685381612076 9.468005503415904 1.3335826159092452 -0.6129093417793444 1.1198761206875874
Ni 6.480909085741895 5.160625621208718 2.225826314361516 -1.2459982438303574 -0.5904296726195897 -0.5751706895779901
Ni 7.154212158771606 2.162553701209371 12.90672022360788 0.0696990071580348 -1.3838713368614683 -1.1112238443292282
Ni 8.988343634703302 2.3692728880440934 5.34398504904367 1.3528977712980894 -0.8330829327825847 0.9142850554842125
Ni 1.6113982439319923 6.584791983700506 0.023129134520528175 0.9205189522090662 1.2362555626212965 -0.226921451250035
Ni 3.750000342598481 7.449041011109205 8.052497284024305 1.5002116980271258 1.3889209834702338 0.12718887384438743
Ni 6.0915705070517925 6.972407825316758 7.191005562136494 1.2850458446511224 0.0522018788145359 1.2931023964070116
Ni 8.00284540818831 -0.009952048311031364 3.0462844767962216 -0.262138108360484 1.5405024272263725 -0.3031939978605294
Ni 4.963122151516365 7.204847661904606 3.312238032889548 -0.32692990802488864 -0.38836256140907305 -0.43732690712291783
Ni 6.554773753290033 1.9306603242309697 10.41319168240281 -1.389767133520613 0.6819889701858255 0.472543821343683
Ni 4.241295317573211 3.4023871967992085 9.709991711519976 -0.7807332155362747 -0.7118998988126449 0.42394920026443117
Ni 0.9645012106740356 4.3476604388425315 3.9260631453432238 0.5563183327581774 -0.38412666895085457 0.05653495897225102
Ni 7.331959724278356 4.407363466681441 0.15784254268195944 -0.1577412927099477 0.24879511139467475 -0.5480915739730109
Ni 4.380716614200439 2.2186167523277263 12.120992811063083 -0.017160313829370444 -0.16448041120599416 0.37027922154480103
Ni 6.384065328515144 8.177508718611232 5.061683088600599 -0.198137180028491 1.0525016478976712 0.5418679616608022
P 8.231700840219277 0.23660033924146898 12.699653710750203 -0.4658173012531268 -1.0685399323074565 -0.8062179900709405
P 3.100648872111652 3.1820435678374253 4.151132260622632 0.9709855935000502 -0.006805967178239891 -0.3604501512695212
P 8.686651620152139 5.968811597499061 0.6036554065015938 -0.04244068566271401 1.8660938189454959 2.3258340607666073
P 1.4466823508064626 3.1149216561482267 0.769169686378553 -0.8627411219686497 -2.81116166413852 -1.1882211849208892
P 4.093853105322576 8.818403958192551 4.927262360501176 0.5558483351002943 0.7770575664569004 -0.047638942034201825
P 7.221936102233925 2.0152874674770316 3.986847977968293 -0.20252733867638667 0.6122475398256294 0.48776218095533413
P 6.360456420981575 8.47766323663412 1.7393726010453952 -0.29658060630906985 0.24088074164360448 1.127152856854659
P 3.188795585723644 0.36994296736564325 12.32392475494352 0.04107465855312281 1.2453022462045973 -0.39996774974816923
Ni 8.735054974710959 7.931462963950881 8.324496165322481 -2.0096781034287714 -1.5934293571323912 -0.13848115892875507
Ni 3.428228252906959 2.256378037543245 1.061318108021678 0.48682732784589067 -0.2635588999674106 -0.2982222556775509
Ni 6.261788044380908 7.619258548438321 13.361318120301423 0.35644462965455387 -0.812800785494781 -1.4878866008028697
Ni 2.3558707345717225 1.7627305076397088 10.622331963168198 0.6265600997935596 -1.000855384476289 0.2908827845933442
Ni 1.007717829956746 8.925037678252954 11.967445070430287 0.3762734914550229 0.7764381877053467 0.42596880179762125
Ni 4.914913299530401 7.236116265997712 10.60690513053269 1.3822304588239356 -0.5334784520455264 -0.594931160034369
Ni 0.22914996449843164 8.76695339665902 4.871724466329527 0.6813670203311104 1.3540164582835648 -0.4925727149701001
Ni 2.3426816077267634 3.869045179212428 7.885081509947017 0.4146487487991117 1.409773915659843 1.7678298556655747
Ni 8.370992468464602 7.028507924544228 5.865752093765533 -1.0231818158876314 -1.6385074804179522 0.8219114895467974
Ni 0.7306924464543858 6.666909117554023 2.4548401270589495 -0.9961183840119361 0.48181933310833797 0.5115816519724351
Ni 0.2207085528365666 5.867123800005517 9.541844237287666 -0.4689656170741214 0.8321712196015927 -0.32397699604415175
Ni 5.547241163878862 0.2326491584043485 11.55401688499085 0.28001858818533065 -1.6227299058687212 0.751527540506596
Ni 5.08794649315226 0.4302924847086103 0.40238784892315177 -0.6783822266711736 0.15958194546311227 -0.20673289211730203
Ni 1.9377087269901088 4.8797824300620505 1.5712519866921921 1.978584210237444 1.066357322833841 1.297707242168875
Ni 5.988465619384598 3.9009899112968838 11.703632895043809 -1.86490674061593 1.0901364275313097 -0.9617702455493694
Ni 2.288535796255112 9.137249247263982 0.7494360110584195 -0.9608485050660484 -0.18802014619914717 -1.0693919958951068
Ni 5.578954345281349 3.8650254593734448 4.377353572095519 -0.8715065268661056 -0.9211290749892393 -1.0299147637360906
Ni 2.516446501503645 7.894275924426644 10.278635728705115 0.09235299711212482 2.308015287417631 1.1059402273327856
Ni 8.105561290709797 8.163995420811517 10.64236758057762 -1.5840980524291364 2.0499096972553086 -1.4231639638135039
Ni 4.272063772193264 6.822983539228467 5.746067251066623 0.14078229625810593 -0.8346646754474076 -0.31587853530673343
Ni 0.664520818763988 0.320170685175024 7.325032654076569 0.6157954050778879 1.9794570997607008 -1.369820772305673
Ni 2.2409011899604314 1.161458220756941 4.459299358444379 0.021083045922544334 0.5795145683689825 0.7870874398890767
Ni 2.352573452860483 7.809565422935074 4.051360776573064 0.5225576913679646 -0.7266451754426194 -0.15371623071095464
Ni 8.12090846991071 4.176349982294522 11.331211409178369 1.1697277541023918 0.5245017024682128 -1.5538963320347756
P 4.158326077210048 5.252532717895888 7.465159717182438 -0.044617638709374775 0.08714522765894023 -0.6506292249276214
P 0.84593985188404 6.53801874594275 4.695429186700087 -0.12948589740868022 -2.3622683923342414 0.791834724766075
P 5.060873587416435 2.218477821918545 8.209040364279055 0.9596992219529537 -1.814829878564197 -1.403627436442473
P 6.148337472243334 8.429296930184417 9.136821341603705 -0.10408159840296267 -0.29383029725744236 -0.28215183247824954
P 1.554779471176911 7.575476945491606 8.48034922454496 -0.5810055510922123 0.33849832958877835 -1.4491961262112074
P 1.5516952160930828 2.3672074559609286 6.764170592211046 -0.8645064413991885 -1.24527550673172 -1.855355092371753
P 3.8612280281891516 6.476917151984748 1.5860415918509216 -0.9870418756319647 -1.0030174251246144 -1.0786729069764003
P 7.017578732355287 6.247635666698957 11.374156651061812 -0.7417509207358064 -0.48053583841022407 -0.3651773815418614
