# total energy = -381165.0316320152 ev
CRYSTAL
PRIMVEC
9.25465934496581 0.00000000000000 0.00000000000000

0.00000000000000 9.25465934496581 0.00000000000000

0.00000000000000 0.00000000000000 13.54512942666034

PRIMCOORD
 96 1
Ni 8.115660830372367 8.94283304579948 4.644949718552547 -1.0951675621973138 -0.7476559733663318 0.4440261735199643
Ni 6.18455580584012 5.359863839170932 1.2336794340550876 -1.3623357767825377 -0.11833348033628655 -0.41739648674757795
Ni 0.4027026280892343 2.465172917525767 2.0684765634809072 -3.719157801290227 -0.13854157985304527 -2.4369831075393127
Ni 8.358373531586203 2.874599055774074 4.054165570006565 1.759453201566105 0.22440485547576836 0.12273109518334993
Ni 5.2674097903214605 0.44826886982249303 7.155892480321551 0.7689961296050046 -0.8622911789154246 0.39140263378697754
Ni 0.7433490620688349 1.0074067100560864 4.1902266491637254 1.4785280424061054 -0.737273344580427 -0.9768952741162661
Ni 8.036912932308288 6.204184938733987 12.152514634235004 -0.37734487014233076 -0.5672272663611974 0.73124487899816
Ni 0.34725796275818527 3.4022257057246277 8.87539249076686 -0.37870189839085744 -0.006541657773259701 1.1056064981424507
Ni 4.660137540331013 0.1201273318194096 4.992341873874127 0.6691439959023573 1.2394380741143365 0.5744245554405849
Ni 7.519059202836718 6.769163394606109 3.579273821072433 0.5320550893354385 -2.3948188154664374 1.4242386849349213
Ni 8.312063215225567 6.464453729103724 1.3991166535383737 -1.014997480304626 0.4274777822429799 0.03699843160122015
Ni 4.3586392416905655 3.231338417235591 2.0714028868288756 -0.6840697639742542 -0.3924426450157177 -0.3181552471560521
Ni 5.874034214143795 4.086617033699325 11.789505240932096 0.9092397797508213 -0.0181653580551171 0.6728278725118477
Ni 2.3637418489181385 8.907841178061757 9.254290283575754 0.297530628927165 -1.1294776483330935 -0.60519448963359
Ni 4.0090629867164855 3.4450192514583566 8.648687574167132 0.15719544750880668 0.2734147097155678 -0.7315775797472304
Ni 7.112048530729522 8.468596526761097 2.18882508166343 0.7322131564487002 0.523562221373079 -0.44550301517580687
Ni 8.455917643185144 7.304415884021324 8.777528167947679 -1.8378692768821638 -1.5159262805489055 -0.9475589870459938
Ni 2.490123479657716 4.614697161967558 9.724035516337194 -1.5197130012848474 0.9617257654646792 1.295214814764324
Ni 2.9807777647280256 8.403258630376987 3.8655768942067787 -1.215419599712552 -0.5694803240614321 -0.8229972664118085
Ni 6.1002366027302575 5.660871640855521 7.473241234363848 0.7483774249133885 1.4744178768924736 1.025978404796162
Ni 0.6580507159791648 7.513238021983232 10.475586983160312 3.057518341295031 0.3618665720010735 0.5135084366815027
Ni 8.285752218140578 1.788111279910307 10.162653627186693 -0.19795668858656873 0.5887872519201602 1.0549729922562994
Ni 1.8550132137574367 2.8786896152927395 11.640874483181607 -0.36799479638599847 -0.5973497967781906 -0.8862651732325187
Ni 7.985549571836359 6.378033718277261 6.108406616176135 -0.04802229351554955 0.7281510705641846 0.5846354345353157
P 2.5659561599652796 1.3939368205913216 10.321443224719168 0.184760758721585 0.6203485716662089 0.5653652734517941
Ni 1.0817678994960762 2.8863894920337563 5.616718585634706 1.6429737437194218 -0.8068304268439589 -1.0545420753664678
P 3.31280718520575 9.115747104728761 1.0833856139844533 1.5307610315688926 -2.5434622596401746 0.6690504077472865
Ni 5.1744467351970425 5.144128470529288 9.748944432501194 -0.2963260670961026 1.47948140745831 0.7457883240299736
P 6.464416710465546 7.101072504509755 10.137852065073409 -1.0077469693897998 -0.054537983146880256 -0.42649330684252357
P 5.936864097791347 2.874608310433618 9.814042633203101 0.15987607966476336 -0.24081312163046267 -0.058075049765861274
P 6.433774532713734 7.478921744392257 0.47857695436474856 -1.0139047614610794 -0.6180718598168904 -1.7442284141965507
Ni 0.5614764927004863 7.442985901380997 4.0804839708191905 0.8768006853855094 -1.4556609079999447 2.1150331692275186
Ni 5.4083212365458895 7.602138281567618 3.8178709751868336 -0.12864308979241068 -0.40278902124704824 0.46600113512915875
Ni 0.6541267403323004 8.35268191596634 2.2080322020820677 -0.09787958335730886 1.2828462658966422 -2.399329815962913
Ni 1.0375398815329508 5.010500441366374 1.2968323053207436 -1.925488358853729 0.2214678843346315 0.2532050675369123
Ni 7.613919463167756 2.0950698276820034 7.9134307864040005 0.8501355173894971 -3.5648396753292153 2.663555145869729
Ni 2.9973621146317546 7.708465065074282 7.01863940101506 1.8415351557695252 2.515137444553552 -2.0416320306275484
Ni 6.139559651134803 3.3723794286936424 7.328172595072034 -3.4812829363524815 1.385906622123942 -0.9464845230348925
Ni 2.8562193019187134 5.734473948212862 0.6467396710838873 2.930351064717198 1.469871652282688 -1.2554763585241218
Ni 1.5250568370176782 9.118088533593516 0.019643014883183374 -0.8925638617570372 -0.22495327178007066 0.2819543717554628
Ni 4.760939292089615 6.482241184748236 12.387223905874766 0.7261114144263366 0.48531783317989974 0.26026685947970013
Ni 1.9876972676468123 5.899863968932471 5.916066101397012 0.19636671839162956 2.3958300303397704 -1.309778314400796
Ni 1.0506537341074955 5.0721642379113225 12.344326707954137 -0.07417246954835613 0.1221212295134929 1.0205155819093779
Ni 7.564120140158847 1.6597398973686643 1.3395296025952101 1.5187249263399651 -0.6381382915494622 0.684909229156414
Ni 2.345565697572757 3.4400217353043314 0.534078073119019 0.18583393718110577 -0.6114332714544501 -0.47958838689529015
Ni 1.859501723636515 4.16434691921351 7.267680438425419 0.0021728392816027092 -0.8551350274866175 1.7886977002535194
Ni 1.539882801607954 6.775095631374128 8.255756941090926 -1.3154758790062053 -1.6508762863959505 1.5941315254057384
Ni 3.5222401306975946 1.5954477775130813 13.49187024923078 -0.43833657933435477 0.537338706331881 -1.030703321075657
Ni 5.076227033451354 5.257294447439331 3.3761914229600185 -0.5424300048118593 0.13230459780439793 -0.3230675968560049
Ni 4.352512657072112 1.3849042728758978 9.012672408586031 -0.13670066998956457 -1.7233641691530317 0.521461115869676
Ni 8.435057640571861 8.586334305486119 13.234743415776396 0.31362264939302115 -1.928783484665233 2.36124637882763
Ni 3.2557892277521376 1.596419516765253 3.912145415568706 -0.5540313364962136 1.0724768054680174 0.632723291181478
Ni 4.774691716172729 5.4601380753354976 5.7003594221999565 -1.1175184190886882 0.4135650288166297 -0.45990916329880793
Ni 0.16137812580707192 5.403647633475921 10.321578342748518 -0.27070399565262415 -0.9829859603950362 -1.6277345581721643
Ni 7.588135981676803 1.0674787051593813 12.431787867979356 -0.8867577965982213 2.0867739172715094 -1.638316447453069
Ni 0.3595842438054936 2.0891931188712514 13.185181012051826 -0.38392020936700333 0.056086815691238884 0.8137636636286824
P 0.5482062363796398 6.870557444575558 13.626129446174629 2.3261649617434648 0.6799202605822547 -1.2950798318483567
Ni 8.48568062828023 3.636248281626186 6.665503803980168 0.20296931130981175 1.880420262870497 -0.8589921964491786
P 3.0302901932910555 4.214062950286518 5.273159710296453 0.32618685921127694 -2.403546425147422 -0.7100867568633061
Ni 4.912410304854308 8.99390951182553 12.941044018734095 0.4199904727269993 -1.3376326176089028 0.7458981101349605
P 4.616983062875048 4.040482555870034 0.04967068324124075 1.0938146477138453 -0.3982880480529012 1.8899418292076868
P 7.071957345582785 0.9762555260293276 3.3330230635147378 -0.4680168800076069 2.160139060427222 0.9716540803219845
P 9.187498480177204 5.346833278532287 7.826402744445464 -0.43427089390541346 0.3037876655804704 0.18251541433083407
Ni 0.5524217338021558 8.04626939310777 6.413794648223131 -0.48109968133349407 -0.14283815034587014 0.5631042453317593
Ni 8.217554631957219 3.698865308104216 11.418422082642572 0.677939225596484 -0.12931414771750632 1.3701997529116468
Ni 1.5254362780590025 3.5631919991819703 3.3853748216260175 3.0009923811838446 2.248034535988625 1.8897986187616034
Ni 7.417554096952734 4.44939043318385 9.324955161993673 0.19916202174857958 0.055960574526019755 -0.6054377159926476
Ni 3.5845054801129344 5.500766030735815 7.890214547470689 1.161908000947657 1.5102258877300185 -0.9260563370875278
Ni 8.00574323896244 8.281060105751521 11.023284213265004 -2.1465314969461162 1.4260417995819312 -0.9111873903954952
Ni 4.72487388384473 1.9086069471795872 11.516936082561775 -0.36692958834627776 -0.1211390681058817 -1.0996330541678354
Ni 3.7946787983683374 2.309935258326465 6.545385726820303 -0.9188500491470756 -0.34513948905437974 -0.3316064875649515
Ni 4.432037946537928 7.194109596910529 1.6295197320920816 0.2764465545633562 1.003026423985679 0.12113315456861072
Ni 6.807995946054795 4.354428371597821 5.151592353451921 1.0231465917743219 1.6327045005829302 0.05793646730546797
Ni 6.914915027772307 1.9270422289922144 5.563851342986798 -1.5076871804685648 -1.3651549913988876 -0.37255413362190676
Ni 8.915235651037806 1.1927682860727082 6.28587489306726 2.022908743186432 -0.6391983573828603 0.8552075325957659
Ni 4.818290417286829 8.894042480680922 10.592968457492871 -0.541407477084616 -1.1776146130496365 0.8663751191768111
Ni -0.06672609531578429 0.240021446218298 8.805377289448964 0.28854410915783857 -0.4530376329899553 -0.1984472550697421
Ni 1.6202965383900414 1.683080148739872 8.068427824455146 1.5000666878088296 -0.08428384695074516 -0.9458427756858356
Ni 7.499050628901527 8.80165321444826 7.1698299975955555 -0.9158174329683388 -0.2623826202711223 -0.7243471234370622
Ni 5.119834989224998 0.6270707431539794 2.3016292013852833 -0.7243059857864816 0.32107216369253094 0.30167293323031275
Ni 6.506182988989837 3.363152533127784 2.8914656727939096 0.8012071671199105 0.1842838190851665 -1.7882937799468814
Ni 3.4296102433167786 4.51128559621741 12.025663792256523 -0.802095997482767 0.6618996556351182 -1.4614250641772315
Ni 0.15639171524449985 5.16539567816253 4.765908118799052 -0.8700826499353854 -1.1167445170371413 -1.242788221533492
Ni 5.832619612682195 1.7311303410948724 0.10523658461232265 -1.2974920408342752 2.0761334068385278 -0.33353327227401913
Ni 6.595471944275091 0.3827495821113105 9.423645000444225 0.4692551232900821 -0.21253972860706621 -0.9084332246891257
Ni 7.816948184254812 3.9251509886265796 0.33237554474468833 0.6879721843524539 -0.42081888216556557 0.18150111413370676
Ni 2.206431145980871 1.4178416061947434 1.8773141668617979 0.7424770002685536 -0.7237303157886698 1.0159922401177275
Ni 4.6056275956139565 7.536383925504006 8.700050009173106 0.9434511355252074 -0.27111434371716536 0.4205149777719016
P 5.540810942584831 7.576641694522544 6.125500897820766 0.3866872305891792 0.23917275781356226 0.6360271587437304
Ni 2.5681865329155023 8.356420798422315 11.682850842477558 1.6933056592047546 -0.3126057780927326 -0.2249967234234964
P 8.752510972267011 4.681774934346033 2.497261598564382 -2.8898081102978295 -1.840333165041624 2.7003144648769495
Ni 0.6310474703602473 0.38005555071790903 11.411757802304583 0.12848342428609485 1.5522197156633009 -0.5133636835735222
P 2.009168077790033 0.28337397338851433 6.085650333822185 0.6982290861937717 1.4652423810407926 -0.6710923778779797
P 3.201482885545061 6.503730504210546 10.771114175462651 0.07628231680250734 -0.49351888093345325 -0.509621957142903
P 2.4165119176408294 6.29033656443366 3.3936781021693356 -0.03712081611169736 0.22834327129822607 -0.2733879702426904
Ni 5.080845108564056 3.075906410185855 4.639409879349214 -2.43371909207606 -0.35957314798120654 0.1048272183197356
