# total energy = -340859.3490077013 ev
CRYSTAL
PRIMVEC
9.36143252508357 0.00000000000000 0.00000000000000
0.00000000000000 9.36143252508357 0.00000000000000
0.00000000000000 0.00000000000000 13.70140276856432
PRIMCOORD
 96 1
Ni 7.303611916093443 5.777763917949654 7.862769354414896 -2.4913655389449354 -2.1868186266009375 -1.048554233214149
Ni 3.77934143627408 2.8097497684616797 6.034097731674008 -1.75729116091778 1.0637175712181486 1.8904825322025056
Ni 4.810737282693815 5.723495692656302 0.3518906378889038 -0.21798146844792782 -0.23118048363670507 -0.5070081736691398
Ni 8.93295055260501 3.325377480926386 3.6004547551790034 -1.9823372495219733 -1.3962622543266534 0.8912124899354652
Ni 4.693176410995706 8.894858882996823 3.642874215118933 -0.1256076454001966 -0.8058099559992444 -1.9064660521149552
Ni 4.272539156017918 6.717445808323334 3.985738559609898 -0.8781839388862811 0.013027522607919497 3.0889590763028156
Ni 8.00805036444596 2.5410860117437317 6.285806061507133 0.5309775400005435 0.7424070662625666 -0.832039836230051
Ni 6.63393246731212 -0.016875854706973958 2.0786396622372814 -0.18829011203108217 0.9224174547833598 1.295318944442356
Ni 5.11251242682984 6.079632676412561 6.666143284905595 0.009923686871615168 -1.0586550690935768 -0.3637995273577283
Ni 9.195164282200805 0.8421123581811703 12.69463726297246 -1.447469373328088 0.03121293526769463 1.2077399716801072
Ni 4.634995106838696 2.069382141451945 8.811714382433525 0.12328876745903282 0.6042159277704046 -0.9483177195888893
Ni 3.799206396438388 7.338520698587649 12.387328575974454 0.20012669965469404 0.29178189936884585 -1.6151016998995025
Ni 5.701964397473498 0.8639029650494364 13.405836538012379 -1.4732768213094949 3.9814943988147626 -1.7700885697927642
Ni 1.9702539307168547 4.94087991992483 7.420652292134088 -0.6834879233288551 -0.349568728470327 -0.7013524623141019
Ni 3.799683829505485 -0.13917829206164267 8.00404460739869 0.3550140678556144 2.3199027828838363 0.5215176801392244
Ni 3.451382364909228 2.2186782699629677 0.5031470504048304 -0.16414153980933666 -2.7069363410688414 0.9167330028040728
Ni 1.4326642971656889 6.6566713873116985 12.207620897232625 0.474679379629447 -0.5778232967094887 -0.12821165868194692
Ni 5.6467787517767025 3.240019937675602 5.181486526733048 4.600264313139942 2.2207792998170977 -1.959820556476696
Ni 1.2497699867368044 2.910815795763223 12.391439181067833 0.300725738825695 0.4924097070296745 0.3346355041992624
Ni 7.004935406177204 2.2262235847096368 8.323876082903668 0.4970389782715698 1.2631084211480827 0.8352827686473809
Ni 6.774634800615398 7.0276556033114055 -0.1955968384434699 -0.18289028117174955 -1.4476704335953003 -0.5231559870735958
Ni 8.345380229931676 7.640146059800664 1.5949531581046303 -2.467319810849641 2.7464457120173735 0.4141406988144416
Ni 1.1291666494150396 4.0488758062320285 2.2583613831281437 -0.5131633946372581 -1.0207757775493 -1.4635968750175699
Ni 7.131361554631014 6.6249548533641605 10.058898741461855 2.100179392044138 0.3759533891114429 1.8303822244764991
P 9.226356575917807 1.3445076855411402 4.628210876569575 0.7907252937519802 1.1464410156603093 3.246935882062337
P 4.782812128984987 1.2580454932331515 4.557470274318109 -0.22137943838588323 2.1448929329014286 0.5449016062808035
P 6.517597943296164 0.31367165279615855 8.98387300185561 -0.6315539534637252 -0.7746042198204015 1.1592011435394554
P 9.051597350494946 4.534172476787046 6.531951828036942 -1.6867891982424754 1.0931952689622915 1.930952981512726
P 3.5514935260765768 0.3131895390127175 12.96900774905712 -0.8885614254658633 -0.7187526600684202 0.1354002060105862
P 3.566247143993141 7.856123673349559 9.854829806435585 0.009743709650325155 -2.3393899450741706 -0.32946810106570995
P 7.274507221865905 9.08919286417066 13.82827774106918 3.150610273455709 -1.2402963083495737 -1.5284953754631674
P 2.8535893577404057 4.047724350011383 0.005317293766883679 0.15774900601943154 3.0617691461515846 -0.33461724936681725
Ni 3.764503565463322 2.290349398623639 11.765189290813494 0.10128012439842556 0.6334622262300317 0.5219681374130817
Ni 5.157737508146416 3.0163846721877774 2.300890371830525 0.6981720077035911 1.1059713376810372 0.703328612203866
Ni 7.370967424284864 4.576242755287707 1.081491681163968 -0.991717683841079 -0.24108771544808802 0.7302614320389681
Ni -0.03320593788822728 6.329751434975234 8.179518110135659 2.56880690905255 -0.7897883837600076 0.6389502459277963
Ni 2.0587007467547367 8.091030103793948 4.698663146694247 -0.19488447741914824 -1.0484917554073296 0.055951061444323
Ni 7.47941026054469 5.8931154915333535 5.447252920034006 -0.2016192250398205 -1.510959166351617 -0.6033420098058835
Ni 4.10012965019979 4.517518488034782 4.269233634135722 -0.44678573854297243 -0.5982895349836406 0.32320232266165627
Ni 3.1354152888179287 7.0906393224374495 7.835942296760392 -0.8836357060294718 -1.0550048739354991 -1.458078773412818
Ni 6.185482395817762 8.635940377707266 11.281310877310734 1.3203231797961776 -0.8378297034389507 0.17053613048177083
Ni 1.6593420282771703 9.372291950093775 11.726523765381524 1.266280391118161 -0.4581225037120304 -0.6211700391262399
Ni 3.0366615353903654 4.641295351037838 11.488310876911672 -0.006771257285562533 0.25035371413104623 0.568808237695072
Ni 5.564482397014952 7.421715750887464 8.678249372741476 -1.3904330492393862 1.2540838490519692 -0.5615975788792458
Ni 8.74731334239849 7.567726016524937 12.389671742576304 -0.3484204737984967 1.0772888821446802 -0.39769618010517316
Ni 8.588796202689615 0.12880769692968183 6.445249983052137 0.7076375239918652 0.6827772704150757 -0.22624088024324263
Ni 1.0003439741930564 5.396659993214031 5.103142568852245 0.7833757953654444 0.2734216516941033 -1.8916325866465484
Ni 7.315800501453447 2.330126126115697 12.748839958236998 0.587659051852988 0.7971569083099368 -0.41216840557941925
Ni 4.982294898137319 8.381945986011688 0.5137423199213075 -1.9810347286604655 -2.186170708604293 1.6576588565354224
Ni 2.430527491696379 1.7181973555877297 9.615452355739325 -0.8264325173456026 -0.5630667072256045 5.453459700401686
Ni 8.671111280316742 4.257504695120708 9.42107063125878 0.11970130721809061 -0.5537695981943946 0.1547971224799592
Ni 7.072393890128196 1.1361409167677303 4.332369944614585 -0.21385381943279944 -0.13529761899445086 -0.642554418339287
Ni 9.033660845464402 2.7244764781050894 0.7342714620431952 -0.34299158947344155 0.10035015638498847 0.24869380993012008
Ni 0.021172752310846508 7.14035789144435 6.099220538169299 0.6431493716108084 1.3877670723714486 1.3067960918440202
Ni 5.806915419340633 1.4427840059016066 6.394609312925452 -0.04557871707106344 -2.1113454359632864 2.3507899593809967
Ni 9.382027840089476 1.6251259918018888 8.476345737095983 0.4934772290622404 0.24729410136911606 -0.8577110157439098
P 4.247628383634683 6.940837676561266 2.0404403361531815 0.21569498640659626 1.2772160641940584 -2.0201818311735726
P 5.6689653472476795 6.234405243046167 11.612816059377868 -0.3553197720214913 1.2738669452161675 0.9530688611206296
P 2.294019080237404 4.126575697543885 9.349179508929938 0.48133930814812587 -1.6062193098082078 0.7666119456435443
P 2.228573304314369 3.442788569701483 4.037734765189831 0.5720205739847827 0.10356095001280229 -0.5818056783960044
P 3.0137915553331527 6.016630234421141 5.73110466514525 0.34406759614643967 1.066937877927659 0.19270829570343584
P 0.7878160485897524 7.451316601047475 2.570082113352086 2.3316054160327457 0.16239087566681712 0.12004172127664488
P 1.2587007935213237 1.5233672184814213 1.4987962661047671 1.3078985808795798 -0.7271887066509154 -0.01563539254441178
P 6.369172428025141 4.811813847452955 3.42367907715511 0.32698544385317235 0.2801921376487174 0.4822121976713824
Ni 5.9115575139290595 1.730020845072895 10.787923120483327 1.3561697571811417 -0.052799917409851 -0.22610769709948803
Ni 7.853025039129774 7.991864447328105 8.263000558419 -0.46479400219493505 2.233042433455167 0.014987217437451605
Ni 1.7277834626604214 8.697482436199332 9.194093334301279 -1.7516054233869125 0.1831759307329684 0.18234726418408595
Ni 1.442109982748058 6.036776037566094 9.888193016392975 1.2344059110070675 0.11984940276018068 0.2777668160366764
Ni 2.651223267320116 1.048911086979311 5.1853097358429 -1.0304598376062835 -1.0264208916502193 0.0893491772887945
Ni 8.665091879098245 7.852304208812784 4.133507838449479 0.36050851531128236 1.2143752176084375 -0.9987149410945187
Ni 0.9975917129827331 3.135686770365886 5.7007015402038625 0.5962455079704183 -2.6251832309597494 0.1776398314060876
Ni -0.35890328711561603 0.5466299690981368 2.8427394572548104 0.18057037478932128 -0.34141858855936685 -2.9231967130606042
Ni 9.298757896328155 5.8969911246662585 0.9258054386999969 2.3074213625873745 -2.185310674596843 -2.090248248973355
Ni 8.56916527834251 0.4534275452546616 10.360973451443902 -0.5544527403043483 -0.8706958580393521 0.2781887340654435
Ni 6.0241474648697455 4.672515729052904 9.740300166641909 0.721131444713242 -1.11599812578942 -3.243693978086272
Ni 1.2659184581239071 8.47808789971925 0.3148128114408471 -1.3972019925321033 1.5492788878674222 -0.2852237865353539
Ni 2.6141613553076293 8.974599566634703 2.2823800109761954 -0.5289111443898181 -0.9040114414723464 -0.04856196806910346
Ni 5.4264574334604925 3.496457663302793 -0.005112278391012635 -0.14607799743940647 -0.3900486908622444 -0.8029205502665914
Ni 8.758284941509032 5.636106718512184 3.200921914053437 -0.7499488831655665 0.31642232362534534 0.023527650808294963
Ni 4.750636884835727 8.346241481738987 6.05380073905281 0.40606177846104907 0.1546459416140756 -0.9603579385828751
Ni 6.516315427017883 7.141256588982415 3.6214590017014627 -0.1422308557791744 -0.005155061838378218 -0.7435571207066097
Ni 7.425647552616498 4.669173697583225 11.664922729863521 1.847651295969592 1.0228647988678448 1.337649072669135
Ni 4.138258765538728 0.1331102113931673 10.873022288191917 -0.8621238000996249 1.136982184240255 -0.32388495055097766
Ni 3.9906664177769535 5.555074157163337 9.436868985063347 -0.8023677630869149 0.6316413709712089 -0.3314319096603002
Ni 2.969043907083674 5.152298515754585 2.3375001266441724 1.5074429256682427 0.06871041799252037 -0.570189691423631
Ni 3.234215849408933 1.814872870958518 2.8664435409645397 -0.45425787855030153 0.13966360927263044 0.577174093161264
Ni 2.325876035675265 2.2184629570111394 7.7170408679013365 -0.7169408036706619 0.8356324386773156 -4.303840801234026
Ni 2.5391013880138384 6.740109836861407 0.650063502726519 0.03652534861954355 -0.8877597555001743 0.5160173191462855
P 0.04886667863227606 4.995194952381625 12.576997755239772 0.2343156868315771 -0.26718878341051405 0.4604382963294006
P -0.16183951216990905 7.494416637143836 10.186937864767836 0.09355344517812919 0.9660699013659879 0.29879098369682733
P 7.143924597298545 2.30543066668429 1.924156363873741 0.6760178402040551 -0.3160045193616364 -0.23254779629787692
P 9.493428889078764 2.483222996298119 10.535899310368611 0.01949487549981804 -0.3931592114667681 -0.15132690454317163
P 1.5696407802590726 9.489777930330378 7.065882077550301 0.014447799994213828 0.21799380974310198 -0.28972861638424297
P 7.171699968084362 8.027606397331558 5.803338415910481 -1.5219868849206883 -0.45133453425591946 0.40860742770103825
P 5.561936087323769 3.832355229587218 11.4708555495213 -2.9221651864722964 -3.578668096571876 2.3800501417976943
P 5.210189615498263 4.04276279068665 7.58724741210959 0.5136069099325801 -0.5912796793247107 0.10926622792769569
