# total energy = -381166.88584224286 ev
CRYSTAL
PRIMVEC
9.25012462995702 0.00000000000000 0.00000000000000

0.00000000000000 9.25012462995702 0.00000000000000

0.00000000000000 0.00000000000000 13.53849241286608

PRIMCOORD
 96 1
Ni 8.540797199103332 9.161591554266534 0.7655162529500421 1.3920898681165186 0.6082101365314623 0.1267913812956526
Ni 7.636625280010806 5.277714031834787 5.5451092306602385 0.6992526423622797 -1.9930548930497936 0.15075483408978552
Ni 4.7536019779018535 1.657881313136108 7.4471050292907295 0.5439780660252697 -1.152008482445758 1.2513430530820382
Ni 7.7331688293736365 2.3274700750147397 0.3765660931375218 0.36448626901210773 0.6885812786913625 0.5103215543130889
Ni 3.8579586735944704 5.4185101767856025 5.414828627236267 -1.6303845942005015 -0.9560024898276567 0.37681805110458333
Ni 0.2318025697904512 0.500834115639213 9.263686103339305 1.2533361722526672 -2.3316326697262553 0.47633774116847644
Ni 5.317221313556417 1.0767052411884852 10.272195726694836 -0.8665615241560043 -1.024552728093229 -0.5557848288522106
Ni 5.150950325744125 8.513518581965169 6.527272649426787 -0.3647852883097653 -0.14453276443947366 0.5907276634759827
Ni 0.8314650155429623 3.5843677413817208 0.789015269219213 -0.5463218836670978 -0.1878694795538958 0.2025052271891996
Ni 6.718642925046027 4.067853248529031 1.8074290008724145 -0.8509793534470312 -0.7556832145461825 -0.018373103190549005
Ni 0.5933362856098224 2.541730708711326 10.131855612881665 -0.566336893336444 2.0360630211802033 0.32484731446424703
Ni 2.3736096959998703 2.200095860707354 3.4133653148898184 -0.31027918684208494 -0.7717096718814258 1.4334200943238733
Ni 8.688234933442143 8.27364435353967 3.0721411724134606 0.28795866896801375 0.8949809558389619 -2.4691779471043023
Ni 6.443867976897813 1.4132525207197584 5.1138943270138855 -1.7141799315506026 1.715637747043052 -0.7737315874074611
Ni 4.097102142184801 3.795122577894392 11.088633914994347 -0.28333016905706687 -1.1263671277285698 -0.2052866465890787
Ni 5.084793435350049 2.418685552667981 3.1554570437472753 -0.2049428900964148 0.14232033016918716 0.7886833236212869
Ni 4.5848427066001864 5.9744426589841435 11.521906971341016 0.20363856946269446 0.12493093104814615 0.6714759864696436
Ni 8.974452285591681 6.943790955274188 4.686010393198476 1.9182332199532128 -1.0459522768149276 1.2479965052073088
Ni 1.31453519210041 4.532847756809205 5.415491861162618 -0.16275545809508746 1.121232891825798 0.1784430440336733
Ni 3.508905225744854 0.16199003019562874 8.87416983590764 0.3499687921222231 -1.6886100535012982 -1.090809028118302
Ni 7.302566283968908 0.7388749693896425 7.112325448550607 0.5368573958200883 -0.5904391857012864 0.8002458316479056
Ni 0.5729786116194306 6.4109005331947255 7.144248553198118 -1.7391322306205663 -0.7472492248462164 -0.4933373610502665
Ni 7.134177017647073 5.980880745633231 11.621536362235652 -0.10868053062755477 1.2447869971310757 -1.0319284517320098
Ni 5.947941052303631 4.417517204595371 4.2205709539300535 0.022621336943941684 -0.9963307571330583 -1.1602812639775115
P 7.874048225444915 2.9290796719736205 5.5854129481009585 0.27768016986014116 0.20750679416884907 0.5428704347833876
Ni 7.707203729913882 7.290494871501868 6.595127862678295 -0.6680571905960817 0.0563441831176836 2.118403371251332
P 1.6924305281279806 0.8815072640528772 10.970348873016547 0.09372185243519342 -1.4271779700689033 1.1522421957231188
Ni 7.642869114045482 6.84943043529237 1.3656550801140876 0.8444837184203586 0.4051145840564314 -1.1313632953915804
P 1.061877291621692 6.38908873963359 2.583089865357018 -1.761330106873844 -1.7194887453580256 0.41591527421636115
P 2.433661504226708 6.0603208148032985 11.679223838641361 -0.925639047044451 0.6942346203223979 0.2621543063104001
P 0.8093507429108149 1.2526703594723927 2.240553130214704 -0.8406203788102102 -0.7917791889377912 -0.41366941560497794
Ni 4.530710978050672 8.336323197123319 1.3488170784943538 -1.145951734728717 -2.413290134797747 -0.9100535339013682
Ni 0.5737916975626128 6.197342908959821 0.1479982918832575 0.6085307530956746 0.889022681372998 1.3402286604708533
Ni 1.924164646997163 4.5339207712507195 10.12080818919631 0.09561392725158373 -0.05059236823557093 -1.2402397440800252
Ni 5.169099070004917 3.569068035465641 6.319646205018601 -0.45715756869559976 0.20025551192307445 -0.6344068495314881
Ni 5.423634745756285 6.20906281669602 0.5641160673399893 -0.425408558418777 -0.37186687774689503 -0.8946027465639368
Ni 3.457012027323326 6.194262617502715 9.558514396381998 0.3112960581423736 0.5604436677804606 -0.13227194479424964
Ni 7.624091361318976 9.143664812993643 11.170610368301165 -0.1527600374452724 -1.643505447853176 -0.326368893315096
Ni 3.180442555022924 2.812546603575331 1.381481118113979 0.061524184656726294 0.3086827888892426 -0.8744622670603198
Ni 5.294059001818894 1.8931304793137003 0.8906500871045416 1.5954548722028523 0.32499643844760157 2.3087557651280823
Ni 2.4951840822483797 7.655051528006472 13.453024011909235 2.9580184487254795 -1.1019920413183149 0.6459783564191713
Ni 6.533483183013278 8.760876161107785 1.9531036614823234 0.6584795742099757 1.2763868834245438 1.7845852207470427
Ni 9.008807247969141 3.4972685691291177 3.6997445442180337 -0.048257549454807216 -2.246237849099519 0.8825172761543124
Ni 3.293553077357762 5.867215215828645 2.004671255521598 -0.35288185200396 2.6600137083753737 -0.3598950500969995
Ni 0.2190087226002881 1.9364395622031108 7.594498363031961 -1.6354193284109317 2.183543555394091 0.41874554457630464
Ni 1.6212600702571727 0.597292563856683 0.12054022232987731 0.24741700010022552 0.33511887159358417 0.8338486073040157
Ni 7.98066516038369 5.362371171220495 8.725721062961437 1.9923262424138852 -0.4715758010034588 -0.4728369271040695
Ni 7.882225335499216 4.953543418878915 13.527322861884528 0.7421748956471025 -1.310228771674653 0.557333147175937
Ni 0.39848426313035784 8.959587335526905 6.364851563429654 -1.162767520734475 -1.0968662900559754 0.0620826282633576
Ni 2.9644428979211246 4.8084829665355295 13.44370913654195 -0.09941324639301588 0.3540805002977515 -0.7661769149886547
Ni 0.09871085353220116 6.490118599376894 10.396031768382574 0.6424477175580936 -0.7642876683857418 0.32392428842934534
Ni 6.0832426233039305 4.6259317596106015 9.82106623002144 -0.5641897650864541 -2.4424806403187747 0.5506379945439485
Ni 5.749988388093169 4.3264219785605755 12.782814566676933 -0.22484014324097407 -1.730471469621775 0.1682175096509232
Ni 9.125469818110371 1.4539530685013486 12.247800316013231 0.12153630354430037 -0.08160578589794978 -0.4751298369033043
Ni 1.6197522999643545 7.639372566986063 8.75440847406031 0.4818640703033443 0.928034286749505 1.0334790840485812
Ni 3.990790461354388 1.1470709382281576 5.243823425707016 -0.49815689392609686 0.2483245995161594 -0.2596243407996948
P 7.970545524185267 7.624054360820992 12.79100462690553 0.31541110875201167 0.10323673390416413 0.10805806655220744
Ni 7.0199934808707205 3.166632119150671 7.826426734515555 0.39857395472443613 0.24935432633225443 -0.6254357563811292
P 7.816808455064806 3.916733964640885 11.359878090622507 0.06601435921759599 -0.2684195704938216 -0.35643460235222485
Ni 6.070597703118151 5.558612562399231 7.412026707177697 1.4908454263208775 -1.5578218923414267 -1.47482256853006
P 0.7662618129844049 4.215984742205028 7.570928120804172 -1.0798029068157855 -0.19404115558224647 0.7738966522304156
P 3.1645138406411286 3.3709396188897585 5.145913632956153 0.2600550005792102 -0.6315480399264544 0.18507134798346836
P 4.626949273305141 2.2622566973192373 12.57903247400921 -1.573872003825754 2.1435451606242824 -2.0470246623980293
Ni 6.145976967634556 6.8085356348963675 9.436707832008645 -0.6494449748115331 2.3762973596234818 0.35281680309397945
Ni 0.9921683534212229 2.168811939662504 5.513970536569974 0.695016749904061 -0.13915118841258617 -0.8043228299307567
Ni 2.1863316754575797 2.680972832746844 12.548313735571053 0.6046350175856942 -0.3871394876352494 -0.9791951258940361
Ni 2.622558296555766 5.364729952966928 7.4806533808121545 0.8338671192467767 -0.34809420080732956 0.47337737298857185
Ni 1.0046652716150704 7.996621625138973 11.979074949285282 -1.794394493527981 1.3446229328838069 -1.5329359277330243
Ni 7.066123851731355 8.53629238847387 4.9488332554856465 -1.2888289658426386 -1.2506899928790718 -1.5144270702955593
Ni 7.57846974730561 1.6736527754014743 9.696186774290576 -0.1849898440132556 1.2212488047998193 -1.1515580251719006
Ni 2.5674645550586854 2.8511103725983875 7.747144842474366 -0.3462250088090747 2.2167984607924787 -1.5558835376681333
Ni 1.7195796435232007 9.229487468065823 4.17211695179607 -0.3155792588987597 0.629925673831683 1.1065745184826747
Ni 2.4509592370338833 7.58996765205391 6.559913563735174 1.6598391520161933 0.8562511433689317 -0.33528496485780324
Ni 0.5171864857229165 4.666243802163367 11.941952349658674 -0.0817058018109238 -1.1162696342832517 0.3876809619610162
Ni 2.135687243842987 0.7722679188195382 7.154863071057067 1.5350236634999885 -1.5948560622765888 -0.33371324949530917
Ni 8.196137560389227 5.3425204040524745 2.985792185257468 0.4730901807654563 1.86525409665302 0.2200018413120663
Ni 2.4061793843496386 6.888502961162697 4.313444978905395 0.09057405083483111 -0.023370042184508135 -0.5879405876491487
Ni 7.478929157606134 1.739726414675088 2.7050314815480117 -0.11732843611053988 0.0038779948981675144 -0.5965956922209855
Ni 5.824396389537512 6.617021057334992 2.7761223883481554 -0.42694479255764534 -0.241057633541101 -0.044276710430188264
Ni 1.9081064308724263 8.177045303429864 2.1160658797624623 0.3961319209418468 1.2005251990992227 -0.9958895558305817
Ni 1.8474996151758398 4.298893608061027 2.9828682209043405 -0.05145188802238881 1.686312258606057 -0.12680706502493644
Ni 3.4478544040724683 8.403849105942776 10.887181928687117 -0.9922930967285749 -0.27485684147873307 0.9948387459685641
Ni 5.620736398513132 6.500265985948803 4.9306373355899265 1.7681365882727162 2.2707093518783217 1.9986136180844933
Ni 8.611551401371827 0.7698453112140841 4.510701108741322 1.3176597740314016 1.6618980914277508 0.24628442915767904
Ni 6.482885002021165 0.24351877747685172 13.301473672219586 1.0507687243669646 0.23976951085729678 -0.33410997071309556
Ni 2.9953383137371503 2.1166042370081186 9.79371823694956 -0.043138483060687 0.22617814532610722 1.481752462880674
Ni 3.84237221381902 0.5061982628343367 2.792964090017688 -0.19202952446885638 -0.38578580182083233 0.9850520988954455
Ni 5.416354897778077 7.903602373209047 12.132086808645273 1.1215951602612233 -0.13050508270181393 -0.2628526179290054
P 4.4818795708372585 6.65576057872347 7.753630104758383 -2.209648480011259 2.3841891036667326 -0.4806304550065593
Ni 4.19537546482835 0.3270474016740701 13.098125410390713 -2.4538117490608773 -0.4000405119676336 -1.0083740614508374
P 4.394197640741419 8.22531245304903 4.3947979738211975 -0.8555206929608105 0.42280711624018796 -0.1963510346623457
Ni 8.434032262172623 7.782499743309824 8.841528921599254 -0.7252030436794542 0.002640265836324485 -0.8945163574977175
P 6.610675471930863 8.97869809273526 8.88778971921528 -0.5852699827955211 0.7645666330787413 0.5638015285091
P 4.419182227004618 3.481053100887952 8.720034086421409 1.144278717901668 0.23544568667096225 0.05373708451213972
P 4.623693229482614 4.3860575311851004 2.295749548093688 1.0024718370337897 -0.848731695063435 -0.1301674968567371
Ni 6.638425845418311 2.1521062148230605 11.782806732745506 0.7500252449294567 0.6535186306602745 0.5951741292831105
