# total energy = -381167.9804398871 ev
CRYSTAL
PRIMVEC
9.27295194007121 0.00000000000000 0.00000000000000

0.00000000000000 9.27295194007121 0.00000000000000

0.00000000000000 0.00000000000000 13.57190248863823

PRIMCOORD
 96 1
Ni 6.848733536638913 3.114608438484336 0.27101871767052615 -0.13002660040349864 0.13863491089779995 3.1999710832770245
Ni 6.7841196061118545 8.322187086134967 7.816112941087124 2.403628443338267 -2.325485676288253 -1.1199874494544713
Ni 2.8284544083272625 5.713353276344278 8.248717486312078 0.7703724411272411 -0.013407531655157555 -0.2375730174266102
Ni 4.518041926354412 8.89772213379461 3.1286625247510997 2.3906106909223603 0.6466553278815379 -1.1151460622017697
Ni 4.814507479293645 6.439063783947336 3.6725434229780274 -0.5861989223676937 -0.4128546330131664 -0.5604187280797961
Ni 0.8128438024075214 7.173731963319788 8.585327503665454 1.576222763446118 0.20553887180920086 1.3896437205688714
Ni 8.891444345194321 6.148189821149867 7.061678536928296 -1.1327766307993394 -1.3244153475876803 -1.1568917786799882
Ni 8.523475058286351 1.4943269647682134 0.39997117204601845 0.5819869411688752 -0.4028373579864804 0.48785859732388237
Ni 4.405125188118478 5.470893396681392 11.93481889261726 -0.02191531201585258 0.2399042366629481 -0.8167924231526772
Ni 6.094091418352098 6.127613140346258 8.547353837347808 0.9413284327552498 -1.7840692003425727 0.30626440925573706
Ni 2.24523208334171 6.14907075160338 3.7402943932148025 2.138569304676246 0.8151739137126477 1.6984239542679265
Ni 1.171730232692176 3.5412384206440515 7.502140981798576 -1.3643942019734632 1.1178989423565586 2.1488573168658154
Ni 0.14434740952202244 5.707437132877535 4.630868716954566 -0.585965723310965 0.3590226747943752 -0.3053642660389709
Ni 7.671986227826087 2.511912914000101 11.990707902473694 2.014484009457847 -0.693189209777019 -1.6299932722993542
Ni 5.60898619998348 3.1867241872944585 8.16089335657302 -0.07041248828529163 -1.332404536440744 -1.6091945903864482
Ni 4.271362853466811 3.8225890615914504 5.119159194384039 0.031551035333403726 -0.35922373506158783 -0.39116763495803597
Ni 6.535910496120786 2.730828768173865 5.749084742833934 -0.09738027512338712 -0.09520409340767474 0.10338945743194451
Ni 8.388627788234045 3.915142396923047 2.9183250786041124 -0.484036909584947 -2.0791243711460514 1.390898418911579
Ni 8.937818378857614 8.607488004694956 6.857828448100012 0.0176778768957373 -1.2254083354941478 -0.3790572248477472
Ni 4.120297190117743 1.2802330457084083 10.544079148934683 -0.0665208665403693 0.33704437075107113 0.48325426578265157
Ni -0.09017296851668666 1.4939375007782398 6.49191590197719 0.7675015473373491 1.335987882916628 0.24910004422960325
Ni 5.817303069858676 0.7790819109528764 12.607117195881075 -1.4534114498441357 0.7960755023202999 -0.3143767539502263
Ni 6.939228276594935 7.702596242847588 3.5068570959863057 -0.3713426298123088 -0.1627027504802811 -0.26732659453995894
Ni 8.893178387244918 6.5156120038814445 13.732865640785574 0.5901566214638609 -0.6863919843495275 -0.2408789418713916
P 5.85699130502742 0.7651047901888932 6.675299658132357 0.3230280018673211 0.20634825508437366 -0.9833741969723901
Ni 4.0691568590533445 5.926399351812011 6.039646207144209 -0.3385178699728041 1.3616973718675902 -0.1430474381431988
P 8.024098766570843 7.276383543534274 5.196124697164548 1.0727771103172559 0.40010658931887866 1.40877658474358
Ni 2.0467167238808512 4.872723072842565 10.25494293736867 -0.29989347273238676 -0.7328289356558282 -1.0235140024160694
P 3.1973788093058806 2.957033162731423 8.360495506024947 0.3221278586505549 2.4658493969517017 -0.2535907330111052
P 3.4285998709723846 8.10193592685272 4.657850225802813 -0.5047751705735629 -0.9466056219937891 1.328509315151396
P 6.173096970603897 2.2229213604875047 10.168965052401127 0.4659661681261652 0.1888472700861328 -0.007751618920960843
Ni 4.3513977034063975 1.3372802472874072 5.228303695688514 -0.17698934230628227 -1.0498346425884695 0.5079193726294994
Ni 0.5164858157131377 8.759110045172557 13.311417384282937 0.12381995737215451 0.7163517639364115 0.9647599243053125
Ni 5.828031875487236 7.081354814078893 12.76332934766908 -1.3565870472242185 3.1977463077115638 -2.370891615226878
Ni 2.0459099770444773 5.080381563115663 6.013357387820987 -1.1690296995941027 -2.2932293873577088 -0.5395079460690579
Ni 0.901569263094806 5.1544168130192265 2.413084571953857 -0.8002278339257767 1.0937215737794066 -2.7976227491118206
Ni 1.747441466442522 3.7711427231063586 3.981263182173218 0.31280786680120964 -1.2927239300216704 0.9725040870271058
Ni 9.236991633822377 3.8789778835683504 0.610154687187445 -0.9138767643022002 -0.04894429110918667 0.13897326807382515
Ni 6.5277224793791975 5.4167671750271955 13.67233459108674 1.2452541665754813 -2.862590155122141 0.21445725734475324
Ni 7.31159294281832 0.3994129403270562 10.861878982867546 0.1081169448146009 -0.48517796516792566 -0.7364647326362026
Ni 7.5892344029088274 5.7860254022829345 2.0537678766898027 0.5786118540490551 0.2799941627052984 0.6100919269352073
Ni 6.1117378462787615 7.406492335041902 1.3640169501990989 -1.20938547770333 0.6024421236994334 1.865104458449033
Ni 4.657840952850671 4.087053656687848 9.918034330956313 -1.787466656059896 1.081393648341673 0.6218189855641485
Ni 3.6275046944232168 8.426368703452919 11.87420716823479 0.09449369760421146 -0.4354885683625984 -0.40718380788063424
Ni 7.279508528406205 8.730540079622346 0.022595402484971706 1.7702783172060672 0.5399630313286056 0.31929655984934685
Ni 1.7438806528199058 2.383881263772332 9.715541802321653 -0.17607557224276127 -0.61376037692573 1.3010951848045011
Ni 3.6481462858918206 1.009741031719561 7.970330480869337 -1.619545337493153 -0.7630095730042666 -1.3453441273205475
Ni 1.0119479943294116 1.3516811419642902 4.1969344303924165 -1.926184613589805 1.432587314009933 0.8710038761980743
Ni -0.07056623850715567 5.742461073118738 11.282159774695476 -0.7240213646665272 0.793610328609259 -1.0114316173302387
Ni 7.543982396454745 1.3562434344182672 8.23798218961702 -0.11196768601925879 -0.47738289460353905 -2.03995232893228
Ni 7.767979828402452 3.824026369173496 7.454245256688743 0.0923403987066345 1.1198678931574713 0.39761776145875394
Ni 3.017075527852362 1.4358424556071692 3.1501609369976458 1.2200534989401375 1.0561538999382778 0.07869375445747738
Ni 9.111537864290149 7.778690088126727 2.257374086876746 0.1500503518235932 0.14691926239377923 -0.9681257554537521
Ni 4.1180438627471805 8.82581966288376 0.5745734425224945 0.0033020677900394745 -1.1257246090485644 1.2087406450304794
Ni 6.884656953237912 0.4098524298487787 2.297302491505974 0.2697904826994192 0.12948846851184148 -0.9490520266517526
Ni 0.6722157739897474 8.378408994973308 4.306934825179619 -0.8574636756197943 -0.5262554519345259 0.93597822418693
P 5.722310948113672 4.693421270220406 2.522446987633674 0.17785426140973884 0.2654422330330525 -0.4880987383591465
Ni 6.909591921548368 5.3157476343897425 4.435881715783826 -0.344420094389852 -0.5092946557104713 1.0321814482830807
P 1.5902927464881513 -0.17771334592019422 7.873766593736225 -0.596106925510025 -0.32309613610109517 1.9292539965437483
Ni 0.8770506503355358 8.059456533089167 11.162808534968049 0.13825413051961352 -0.15038870899961843 -0.5230595707050476
P 1.9380840895346274 3.212475175393431 1.7862385709103978 -0.7562316308504847 -0.0313646303542105 0.5631153010753527
P 7.944685204424786 1.8823443742076833 3.462667769847723 0.5795443931656535 0.013517060649828333 0.4861629547890143
P 1.797524680962706 7.30755920863645 0.7087966428956304 0.3199915290338425 -1.0169520329278356 0.07423571868612378
Ni 1.7588379246253227 2.207008974611438 13.519609996599428 -0.2729485687124267 -0.7641398299539678 -0.6539125236645835
Ni 2.037666322590035 5.029871792796936 0.2112109582387857 0.44970342641039973 -0.5996087680156964 0.7792406901511483
Ni 1.8950483186425382 7.2762351762999975 6.02410659394426 0.06936193553359023 0.19263527637365532 1.1538347370212192
Ni 9.209849702902071 0.13025344956104715 9.519780509647036 1.1280686838007088 0.5195309887264987 -2.1761590900045618
Ni 5.543593341476475 3.270885500937337 12.040245867407917 -1.8871015315454145 -0.9878846832482341 -0.49016461974923975
Ni 4.025036152760615 6.320740914612482 0.8485530138120347 -0.6273777105988485 0.7285259374051002 0.18043410632177312
Ni 5.689493970482321 2.0808597336685417 3.567849938701823 0.09208354550082205 0.9568296137146425 -1.1893519560912227
Ni 4.915156101845409 1.7753994171513452 1.071758535646795 -0.36202829438991846 0.2322464630073742 0.5729621119624455
Ni 3.8024667554428113 3.7158852012908103 2.6726604666808713 0.9533205721201194 0.3331182962237876 0.13629906367577171
Ni 4.515983330978837 7.597746972975394 7.792470622305296 -1.437640303052808 1.2305032335185517 -0.8467668580275804
Ni 2.2247759509159506 0.29537041729123625 6.03553365286913 0.10893429850957369 -1.2783182961193016 -2.3360014882179123
Ni 2.3771027357563623 2.3930522134409977 6.087894304435445 0.8792504324775826 2.465828313905779 -0.8553728545290364
Ni 8.942955594344408 3.569289100874297 5.52262441479725 0.5880030654559679 0.03049688303727651 -1.5116572208599062
Ni 1.186019851943352 0.7972726611702888 1.9976349881920283 -1.626897664093166 0.2613261539821499 -1.6767922349307638
Ni 6.957616540692977 4.380987693692253 10.786092999599528 1.3747246373651936 1.6019049987035703 -1.8845114022207354
Ni 8.673446513282636 2.755856466005744 9.333451663891495 1.2955506008371882 1.5215407985222054 2.6854645443483105
Ni 2.2365526001365827 6.30838006940689 11.948349984383203 0.09335598445534243 1.327398084365088 0.3881283339110799
Ni 3.175095905308102 3.2848227480071093 11.753118177275908 -0.6866822618964368 -0.24481298681847513 0.6838190814160288
Ni 5.811257105061943 7.390774681160822 5.772822573022827 0.9759269966657258 0.506140683462522 -0.6100042523174075
Ni 5.834059294379686 7.731898771617035 10.533710133849244 1.0536157068974565 1.5407004021697916 0.49150853537164385
Ni 0.8248606210886372 3.910858293033337 12.019671041194735 -0.2578633922445301 -2.080158725947837 -0.21391886834277998
Ni 7.341618761854861 0.38955764679029425 4.968470012891946 0.055824048948155465 -0.15008429038532217 0.3636115797166383
Ni 8.025387706918613 7.288800026452719 9.820235286597859 -0.09315595262939441 -0.28099046518029674 -0.5751537202971256
Ni 2.9497168034912034 8.500339042691488 9.546327117039812 -0.5624555560041669 0.04017091579193082 0.24162507600879676
Ni 2.3368766693633685 8.192486304521596 2.644661714982622 0.4650410852087346 0.05232914842101955 -1.0543577272698035
P 4.295871265978724 6.79387475176548 9.75705773635763 -2.7238346594860765 -2.7042230559027365 0.016940998729712758
Ni 0.25924670492596524 1.1865947749761705 11.529059543844062 0.8165427690357164 0.6580234605091635 0.4687517012911024
P 3.590774530987844 1.1888944671074435 12.861426981086517 0.26641848090339276 0.7210982774824614 -0.8144547761584359
Ni 4.61047471330816 4.089798450521949 0.2912995913007973 -1.3002798879920574 -0.15651796182580785 1.8928255785133852
P 5.79681911857649 4.929825912134417 6.655498196127841 1.0865057727572578 -0.9854369930386899 -0.44191529782454864
P 8.034549383635136 7.565189638004025 11.970607851410199 -0.16310718500755136 -0.3230971645423597 -0.30934253396042855
P 8.911826294002942 5.017177121314223 9.028884332665596 0.1874125945221353 0.39631858303135614 0.7350228579833534
Ni 5.594826402062296 0.4779279534105314 8.724725011333954 -1.4976760760894658 0.7359934494267388 4.29359778334978
