# total energy = -381163.84984106966 ev
CRYSTAL
PRIMVEC
9.31906769151128 0.00000000000000 0.00000000000000
0.00000000000000 9.31906769151128 0.00000000000000
0.00000000000000 0.00000000000000 13.63939755232499
PRIMCOORD
 96 1
Ni 1.7790473229621167 2.1462185950397443 8.328011981950782 1.0936408411401424 -0.6112579222188506 0.7800163919749082
Ni 5.004292823586943 8.356165817739456 5.854220697810879 0.4803391490183856 0.051616952845343365 -1.2210228048319425
Ni 9.206148674463524 0.8105650636622939 7.82947819798652 -2.5620335948844586 0.5615176175709297 -0.49453189557899996
Ni 0.7052353677286747 4.394928297955371 1.4192334549277705 -2.347823934774137 -1.40985182008563 -0.8184854945843839
Ni 7.807449785475425 1.4695890378889753 0.5596678007651881 -0.4179238200059576 0.7624254183660225 0.4704355167514285
Ni 8.101363865426093 3.596051209151953 7.219019613792968 2.105019750855575 0.06617839559928602 -0.8573695732440911
Ni 8.800815819666154 2.779691549119663 9.253785885341859 -0.47838511061580835 0.6815516255380907 1.4149595736258407
Ni 3.802878600331925 -0.2816035913614657 7.835547706857183 1.3204224243782035 0.5065554024024372 0.12847725363850776
Ni 7.912662061154522 5.425896770796688 12.806658125660197 1.788862250855842 -1.3040185290988833 1.084526280433384
Ni 8.904742063986196 8.114997661645624 3.5110678339880574 -0.11701064775980494 -0.3597281855018321 -0.15564018720654485
Ni 1.3329901417947148 4.353654146584004 8.957620318606068 -0.07108894552702595 0.6899691601778246 -0.2303423040061259
Ni 4.7887893802672705 2.026039896442965 7.536190359393304 -0.793948171564652 0.7928490249632023 -1.7331780699196602
Ni 3.1644013068330796 1.0931825696024915 13.319785569829373 -1.1602069590961501 0.6098345595087626 -0.9825378171140241
Ni 6.82746593267311 2.049961943534927 6.171322482309352 -1.0304359263468834 -1.0923154374604995 -1.2966170944284894
Ni 2.433068821583436 3.248720232461465 6.282033939908576 0.0025675036168600943 1.3991994825781064 -0.3480888014906908
Ni 5.316845039176069 3.2107077548268292 9.662613390571442 -0.4919001143831076 1.7519154984281635 -0.2735134400769612
Ni 4.2490103340418806 3.9241569489313726 12.41763550336004 0.20905614093383992 -0.47999384986382504 -1.5765608635118267
Ni 4.684406501624085 8.87665439357904 2.662397102012936 -0.1711717071832407 -0.9064233933479487 0.9778941476944257
Ni 4.503700457541412 4.225190796695931 1.1488891613054975 -0.013470266572292932 0.18412723890264418 0.4608854111691482
Ni 4.079235556511165 5.145281000624061 6.03855651880914 0.0971722728776391 1.0608021973435666 -0.7047105801530573
Ni 3.7854612625777855 1.5731238813606108 5.26433022820115 0.2526779913888487 -0.8319693880034317 0.221082990191387
Ni 2.1698610700971286 3.8151238554463918 13.535943211709956 1.279226152645552 -0.20463898570275077 -0.36168865166231257
Ni 9.158136837058857 8.993152060387224 0.5445914128472392 -0.8373851597023643 0.975457513228475 1.0456900242924765
Ni 2.5420925960005976 7.6084224540601495 6.417950680238469 3.099587502550939 -1.7952334444895082 -1.338982703878894
P 3.965692034201677 6.515361032339307 7.754420561956884 1.8178272706296241 0.10762329300763401 0.35092498538790534
Ni 8.487564673990587 6.323844869586329 5.307676008348729 0.3043818475210435 -1.9421575919792937 -0.10951613915497269
P 6.2661691588531205 5.862578969737945 5.039962487571826 -0.1897690105694538 -1.846156970812253 1.776971670065843
Ni 6.385760756177287 3.0899512740252586 13.30291339754266 0.280131202503795 2.380592644564726 1.113822972514972
P 8.033614242380297 7.934366170105506 8.855570002638036 -0.6694142188446084 -0.27114134030035886 -0.3616570270934288
P 7.6880725267111005 7.570605676849718 1.3056069929146918 -0.2546924507157162 -0.9526808816535914 -0.04939937636873428
P 8.692332551182508 4.8256928888314174 10.760202947345647 0.45782631262785023 -0.3407804407547357 -0.506866505884953
Ni 1.5384010346661632 4.873238772845124 11.354621552008739 0.2548436315815998 0.4281210722539337 0.49342426433711795
Ni 6.633545450422772 4.221239511940578 11.20295092753044 -0.07998701934760419 0.3402214829274721 0.09416228240672171
Ni 6.377252447258332 0.5128422806939075 11.61480619789449 -1.1516400433627456 -2.4099006495002238 -0.7236732372984891
Ni 7.104642966820442 6.573325634174912 11.00198802572911 -1.3481219471760006 0.845540441819647 -1.6134981028578081
Ni 5.978442939934421 5.54640163676714 9.065248096663908 -0.35601422698535456 1.0797208886249405 0.3808657388113957
Ni 4.915817593711182 1.1228172052676402 9.501750437596256 0.13808366638002023 -2.9930008783379356 2.0530238174042577
Ni 0.9950807426694667 8.87461351772663 5.368835186632767 -1.795763091740733 0.15187634928873842 -0.22789744201005913
Ni 3.6361697961137347 4.279278666318737 8.078492077277359 -0.14848454999837007 -0.2777948410611345 2.1053509089427487
Ni 6.000706192954559 4.158801757551743 7.379773533674671 -0.9254156181797353 -0.28666797518104825 -1.3981944383523597
Ni 4.364930218645272 6.667839619997534 4.204358020586045 0.11371346506577189 1.8696347422192188 0.40127566992631536
Ni 2.717300390069924 0.41945683398419437 2.2026949417446184 -1.2366412280954895 1.5700287188202637 0.14200099915655545
Ni 3.072440745592927 8.845808279097392 4.45584145284898 0.30399798181906357 0.2462288933293953 -0.5957603408038836
Ni 9.108838968295135 0.9956305676708012 2.764487489972591 -0.41603997271968346 -1.7659773758378683 -0.20301044896039228
Ni 1.8859370308486747 6.980885746181079 3.7723577213171673 -0.5096849491703545 -0.4698158808895586 1.0792701742407673
Ni 2.279788794092755 6.791690031315089 8.966076440745235 0.22561687350599852 -0.22207697867354012 1.3249902462545438
Ni 6.778419678740507 0.06470135596212588 2.255055988100521 2.036945938005789 0.5524737622011066 -1.1020288080935214
Ni 7.838761853348036 2.0953458038145722 11.826816854595517 -0.9875370701008283 0.7687084231612568 -3.0191520828120066
Ni 5.655583835337228 8.261418855221354 14.07231241102029 0.4563409863315753 0.4504734718072048 -0.8442289220970751
Ni 6.399543657481928 9.352989226091118 7.456167524029584 0.5513057100349344 0.8036252896430999 1.472865444803689
Ni 3.2198590794253126 8.336353479555775 0.5062546316524945 0.6508197436718727 -1.112523279866942 0.7008613816102962
Ni -0.14069183068046592 3.2982510779206677 13.057527431353845 1.144100797562907 1.4852784737560616 0.45426379208757256
Ni 1.1272530815495934 2.074331305882211 10.684313118559754 0.31689669215860267 -0.5899398774673645 1.5522374562751138
Ni 4.12716352230546 5.54665325159826 10.52400930965372 -0.6035986059013798 0.1326558104962296 0.4201491097920506
Ni 1.074451243285841 1.835157430301695 0.908532696018722 0.3278799306429837 0.15537690624282918 0.35520715770302697
Ni 1.486009235386457 8.522259563481576 12.66739956761033 0.02273369415208988 0.1618558290989535 -1.6114185946209603
P 7.0372101920805 1.9450758352295028 8.496253772825236 -1.3625736038249565 -0.24597743944022157 -0.5184701515621523
Ni 5.772808389435311 5.978312472984952 13.163055623432015 -1.1618370385004055 0.04985343318701737 -0.8998303135114633
P 2.928750038888233 3.2000374221738124 10.422054980084226 0.7598111206716269 1.0481834801382914 -0.742102133427638
Ni 6.859271911140139 5.419774143239454 1.4761105215488717 1.6904270521053792 0.9230306628873264 -1.045476879840406
P 7.017463087371553 2.9054523693401606 2.009711025810112 -0.756192292972117 -0.28745961784440816 -0.7542536811885074
P 0.03667798712292199 1.0047632541336458 12.550510499953738 2.113292018166696 -0.5574984691092075 -0.6347526629066811
P 2.7984228754363136 3.0779017193349953 2.0239505614378945 -0.44816539249931847 -0.5882799732664384 -0.0033707162444458075
Ni 5.088583792011871 3.384722708215295 4.987954633886271 0.5155509210328282 0.4179361613011318 1.489664518638899
Ni 8.56587280087557 9.662382277689526 10.184634021160509 0.2052089992736079 -0.4351679517983861 0.28542150436845687
Ni 8.929512146249708 3.1599561114833077 2.9180675914470506 0.08657007188176058 0.5186948659784487 0.30993851567321457
Ni 9.083174255520976 5.615772777613482 3.054802545931472 -0.5913773812448396 0.852184686609042 0.18392437886321872
Ni 6.664894794566658 7.166428386461931 3.5187057419726977 0.399727351602589 1.046454927482959 -1.214843415494108
Ni 3.434188320199763 6.1316950102216445 13.529914706737697 -0.21873068790912656 -0.55795124037591 -1.3573702052471461
Ni 6.744898991794741 7.070917260382652 7.09878779650962 -0.25681901014041575 -1.5593468136263855 0.8531848457387823
Ni 4.4900666613218805 7.9211424128700205 11.78887240615596 0.2267576719786611 -0.28734288976088573 0.33564029131469286
Ni 7.85586234279632 8.373182435577368 5.544387786211404 -0.833781758621822 3.2972683117683017 0.38399142892457094
Ni 0.6911207076096704 6.74610115154342 7.135777972404487 -1.6357846821701505 0.29772269033331306 0.3238073032355068
Ni 5.296156708617381 7.9675140943385045 9.414539805223562 0.3613670066568357 -0.5653989549032069 -0.0702260833060984
Ni 2.8299772390722233 9.377777946490268 10.699316817748715 0.1292789236041967 -0.2211012450238321 -0.6766228207779056
Ni 8.00190145459146 3.9361412701469014 4.784973221995296 -0.7121986609999863 0.6671218232660059 1.0067200707871822
Ni 4.70766689490088 6.669134970424407 1.8947165246411706 -0.2563562115713843 -1.25257358305503 -0.4232177214150454
Ni 8.50274543546811 5.561377378752642 8.54742850184775 -0.9748414769110307 -0.29889511337485947 0.13995311548859124
Ni 1.5595273614123555 1.9184326203343267 3.8607677177181943 1.3876081781960812 0.5438351126895021 0.45890746150717093
Ni 0.11162472624550837 6.910359040925153 10.251112523355761 0.9311931440934608 0.7286712047337128 0.9688286950580475
Ni 1.5222976854745351 4.4918931986144495 4.447603396896781 -2.0055021176742103 0.23111003541008585 0.3008607217416625
Ni 3.5086383530075844 4.769182061575613 3.522797744652121 1.620673280450009 -2.414141427054449 0.5025293119621798
Ni 9.004390856177213 1.7576321051135282 5.515758677963952 1.0682175159710312 -0.16415850909020113 -0.5135354332646963
Ni 8.28309500696888 7.66837201734125 12.58921911195447 -0.17000982566465558 0.7679088100780967 0.021639689756962732
Ni 1.0432882804983388 6.313920062358851 13.614832848426857 -0.4721105904610063 -0.40355675265100815 -1.0750065138684066
Ni 1.002983312180173 7.821195410508789 1.8047511758211146 2.1436762868855084 -1.4430923273063148 0.7704932829758214
Ni 2.300719420414744 5.593257909762224 1.9568579326733542 1.1236026776095551 2.218069871305735 -0.8149427715384481
Ni 5.00505698714812 1.6911219180876897 0.9979100116593846 0.036085947089279785 -1.0592222544509564 -0.5540089678987105
P 6.47012627714477 0.3582324222254229 4.280042829879914 -0.5708980303445652 0.05086979026667369 2.029591554523247
Ni 5.130342534909837 1.9407424686935613 3.1479186715812095 0.5022053529638577 0.02574831260869759 1.6007698566578625
P 1.8975858656227111 1.2328288008736399 6.353067602453868 -0.8042930051340859 -1.0055530470622744 -0.1853063468124099
Ni 1.6098782848396502 8.838753744758236 7.986781267054761 -0.6542028012114927 0.545992525352137 1.236799350939909
P 0.6338550358605073 4.682701112213166 6.646383398250541 -0.08755608994411372 -0.3313920575613003 -0.4051390095364636
P 2.494574669190348 7.094634287982589 11.264206092213016 -0.16235796554635265 -0.21138376062575207 -0.008766433338720387
P 4.9849930341333195 1.7697468932785259 12.45496582523031 -0.6175905493050976 -0.009549848471964198 -0.7824663961772976
Ni 6.003716251860172 4.3480999821637445 3.164230767891988 -0.5145029393842881 0.5203964220505876 1.380979360025654
