# total energy = -340865.96698578435 ev
CRYSTAL
PRIMVEC
9.24895155810107 0.00000000000000 0.00000000000000

0.00000000000000 9.24895155810107 0.00000000000000

0.00000000000000 0.00000000000000 13.53677550362996

PRIMCOORD
 96 1
Ni 7.688079788976121 2.7842395596866942 3.526275524122539 2.6922982794406924 0.19111035508869667 -0.41716457324242995
Ni 2.1733370767135125 8.343728698386817 -0.41403670455073904 -0.8747242624724548 0.38011446246766795 2.1732992519582637
Ni 4.133957522249599 0.34482217742276505 2.8812888057819483 0.04640249852393944 0.3440894505233106 -2.191769028627677
Ni 8.475082304890655 4.903830980338117 2.3861683948871826 -2.0938966443592197 1.6081841468440625 -0.05499101152389884
Ni 4.264719195869602 3.397731749026661 9.128389379829674 1.6597388789929028 0.10760298129265984 -1.9852778202075356
Ni 7.614236161717519 1.2722209995368743 1.7394345496441423 1.8077632015254028 0.41774538544656437 -0.128457713254482
Ni 0.1364377550389167 2.2945815794355826 10.279082858734395 1.5142260100283471 0.28794427079031054 -0.20062240834418998
Ni 5.966563232704734 4.026817670275195 4.151403819105548 -1.185671936136474 1.3487757787099157 1.0666383444093697
Ni 8.874710993090762 5.872251676197225 9.325132147199696 -0.04504932693015467 0.4394292981779013 0.41650277128871493
Ni 8.667164525695595 9.320445703570947 3.4907419780848614 -1.6168896450378605 -0.9897752154027276 1.2290047945961544
Ni 4.7854998972786795 2.4918062171688513 0.3697259037199232 0.5180163518541853 -0.8760974886708975 -1.301038877645269
Ni 5.970383049595742 0.9430415734646193 11.755362546127456 -0.90260324827091 0.5168534418943357 0.4887584834303325
Ni 0.06589970297848961 8.312522736667063 9.269442361572253 0.17077010086944783 -0.06470438215692081 -0.30810660467079837
Ni 0.6771647448430212 1.450910738845013 13.215696116567042 -0.136229643890417 -0.6373944714049022 0.2159847497328732
Ni 4.810916015478408 4.940540068087288 10.56962201602396 0.40878123427474117 1.5714461679930807 2.437554663772066
Ni 3.4440504971868657 4.018771082635542 12.667064048078327 2.090741900780322 -1.482726396758169 0.04035937765365308
Ni 5.862216564025934 6.342496107648762 2.4843367640909393 0.3718074852638693 -1.6317555064060996 1.262425021927813
Ni 0.765267480336165 1.572506701716861 2.4030079605371992 1.165872899132676 0.08749978278488156 -0.20971794288755494
Ni 3.443662041231848 7.611905425987413 1.8060223746000919 1.3063379212606792 -0.18668162989338172 -0.18430284524856
Ni 7.978866818160793 2.563365353453896 5.78576658228819 -0.21339976261451635 0.26854041234240206 0.21439452242761786
Ni 3.1194677999156535 6.932005766242041 6.276149680322002 -0.366596116266259 -0.27651366035586566 -0.6449069777318635
Ni 3.882339801862543 0.2338958047820699 5.027030711367108 -0.5299185026084099 -0.2662495594256963 1.848041075208843
Ni 4.240135483287768 1.737507993086281 7.452671780654875 1.0939753416614255 -1.472820964718999 -0.256215572228462
Ni 5.707019161045055 7.986728426774246 12.61210492960437 -1.0974926107860647 -0.38512708519091093 1.67281370989899
P 9.117375728609792 3.1929229712192373 1.3904836403566179 -0.5399956843387538 -1.0590566754073696 -0.792608369707306
P 7.639643030965938 5.3638553205921635 11.21695056883623 -0.8409271114173517 0.34367807401750494 -0.4425483034228572
P 1.5184835771154717 3.8660893944109693 8.40732541248913 -1.5501795453048206 1.6063674053502979 0.004067485201154285
P 4.957891100744745 8.608711153416742 6.691620897220913 0.03219535378562197 -0.4864987408618783 0.38224050767173523
P 0.5333768481980913 1.8002066340163987 4.536660561865131 0.740968276933511 0.06374124691270312 1.3776551807484272
P 1.6717202024186415 2.9833232366332623 12.133675176243534 -0.9022857170304912 -1.5206290853412132 -1.560661418672751
P 5.4724657558248495 6.26533210686989 0.4675520617252122 -0.9868426151369648 0.20994651395859326 -1.2905806584264223
P 6.7770673338978416 6.049045380486825 5.2955999097150315 -0.27006919028210263 -0.9323138879614653 -0.33545414344581587
Ni 2.2160764807167688 6.8465454561381485 9.76789331983373 0.3383211805809657 -0.3759310205139397 -1.2460944030885894
Ni 1.1213243589151205 3.9677631161611955 3.123245071630635 1.7350832573621733 -1.9183224372329093 1.6925091314453884
Ni 0.8160664205109074 5.74006566407549 7.076241312130373 0.26020155345940343 0.9510220058939299 0.625637073758658
Ni 8.444533018713908 4.359483950991299 13.262506908936935 1.1323284875183275 -0.08208812485100701 0.3356598316987187
Ni 3.0851079457992077 1.275948326914782 12.516441176415347 0.540885543142875 0.6955533391338214 -0.3241312622338289
Ni 6.31240926903751 8.515796188557035 2.157315118359295 0.10769836921994355 0.7860307164897882 0.4185938494897888
Ni 6.815718701422101 7.443472773682004 8.726860957030505 0.850231162427097 0.4393416235601014 0.3288019282366208
Ni 6.059811159811601 3.432406067487645 7.286561540023392 -0.8484468168331647 -1.0965289613212148 -1.2146030173485276
Ni 5.16251489952597 7.330681812457223 4.740145814740101 -2.2390978956206276 -0.5322263248059802 -0.6911714080160418
Ni 7.105858304015078 3.144615698527394 10.868866286286448 -0.3458300873635012 0.21335553964014223 -0.044581386154800645
Ni 0.25049952217368326 2.267241679363385 7.592519624041768 -1.166242880877585 -1.3794721793525082 2.15364136851802
Ni 6.7012629289615315 4.040848329412381 1.5859139815357572 -1.8482020262667394 0.5407929834290687 -2.1910303506894397
Ni 0.5507852243536699 6.55665557523054 0.43969514527478865 2.0415374140312132 0.0782839206135684 0.9545410747907818
Ni 3.9205194728699957 8.099750611781776 8.545874703112107 2.4808294153003017 -0.19401364477842073 1.0222492767710332
Ni 3.9056564081149143 5.4513226531303145 3.7261601602525483 -1.3714889040367155 -0.10883813925134159 -0.2862961936639263
Ni 0.7862376276412035 3.6366044145086125 5.987085730766371 2.1577921574616 0.023540763434417522 -0.9639934784529334
Ni 2.6249448712755106 4.305174108899301 10.273708293128186 -2.630254217724754 0.15126828339109433 0.4368905909164476
Ni 3.627854906569404 6.257627730428705 12.597417594924178 0.3998790466891049 1.76689705943866 0.2775863245947542
Ni 3.4862164662089055 8.38516400025537 11.341610709277063 0.921110305936162 0.13955845115333385 -2.0323457202296162
Ni 6.050580706404276 0.6549857596017731 8.849490952658805 -1.1283839010482823 -0.8708724928265325 -1.1250712917352819
Ni 1.1279928528095908 8.729160246326158 5.242021659671651 2.9231208655173466 0.6049906011529 -1.67524108839356
Ni 6.446408075615995 4.804155032070838 9.043432212677043 0.6223074951647928 0.991425863632273 1.158992369962759
Ni 5.697067289435555 2.2799959832197993 2.40390140923374 -2.108083734492879 -1.8406218999266364 2.5158995195305573
Ni 7.719609463991723 7.6636533085665555 11.54339045553048 0.2819302033857467 -0.5158268004020341 -1.576439507442614
P 2.065494304439553 9.191607811823411 9.537226323953963 0.8372974850845645 -0.7043907349197934 0.7754416281200323
P 4.3810617543974 4.081941420082467 1.811396940206301 -0.6129353099212734 -0.05648662223281884 1.209281348025298
P 8.713002328387685 7.567871168800765 7.075144386505012 0.11443723060567387 -0.8057587910463349 1.225434817856709
P 0.039591060977350864 9.128058267372777 11.765718596909203 0.4380100492328714 0.25484543135381266 0.8258990134396357
P 8.217499010908686 7.261860365759922 2.11115452726649 0.3645045238445529 -0.5035757509488231 0.9112889489703662
P 7.402139210277858 2.248697531986945 8.766077435479803 1.3464597289822295 1.430140138021021 -0.4472382526993588
P 5.699906717487709 8.360145586961968 10.48956586817047 -0.1742382619237064 0.20705813666720466 -0.880239278753413
P 4.419102691135206 3.0794660855001412 5.682576032523134 0.5154293078532994 -0.7502651288544047 -1.6392980946400475
Ni 2.1862948574987455 8.886216688520335 7.395600201701727 -1.5401224181791346 1.1112747521718216 -0.40690201497415734
Ni 5.517989094172399 6.120604516771869 7.213734372513754 -0.36133821030142926 0.22436886003151035 -1.0091957860211844
Ni 1.3885080643568137 8.549379130763445 2.542977890081384 -0.2706715997527919 -0.25606593402447514 -1.1183185463924805
Ni 2.418443535378367 1.837341173525828 6.07744336058888 -1.5359734290077676 0.10057384236002033 -0.7010287604260959
Ni 8.89042496136636 7.1640804525111825 4.780052264957121 -0.06658000191307888 -0.7192326850286322 0.026209311405516154
Ni 3.273555328739338 2.3793852139964686 3.818318560895103 0.1947178699342969 1.085232305361473 -0.13753833539951152
Ni 6.354473499595141 0.9831172794906112 6.2403044446251785 -1.331492566149436 1.5276394552207755 1.486023322341886
Ni 4.08313453480145 1.4450284058118879 10.064172376306248 -0.429215590869693 -3.164374160009021 0.6972093866800056
Ni 0.3553289861108627 4.502592974610079 11.236200411197618 0.5669318466079655 0.3282000329865638 -0.5226592499428354
Ni 8.826708935792148 0.3133627944371179 6.500075115591951 -1.0429818813326939 1.1876367731723287 0.8654513218109612
Ni 7.690151554069549 6.365008055137168 13.514656444024313 -3.362555048791254 1.4135297831578495 0.2651897507026143
Ni 7.667029175794685 2.3107025015688167 13.130089673032451 -1.1713025547886795 -1.3216727518455367 -0.343214504117525
Ni 7.015283323836787 8.344413120783752 5.32076445643913 1.3395953977622284 -0.31303669498256415 0.23973582940588387
Ni 2.5682580486968574 5.560506523344216 1.3106531669150892 0.6742093262404066 -1.7961137902119326 0.4461347352225349
Ni 3.324489303603206 4.163276697902124 7.128628297245032 -0.8233024563570531 1.5410333600291783 -0.12418479691074097
Ni 8.744948206212234 8.685162984944748 0.5995271977570804 -0.25479195240805796 0.49331627800434397 -0.7873826025319922
Ni 0.9332746808813173 7.1309784557728895 11.588927667304995 -0.8043179448347502 -0.7115872526682325 -0.028814096018214892
Ni 5.974748554614036 4.5969600248254485 12.582026415049299 0.21667406249041396 -0.16735516165062791 0.5339625907707966
Ni 8.53015056099007 4.900196142473308 4.960875737332464 -1.021745854772053 -0.5063479143773215 -0.9763903094553894
Ni 7.809657253945348 0.688318980122815 10.386564921907265 0.13228042943468188 -0.8750351088446543 -0.05215714161952952
Ni 2.1978837934901065 2.956871235886819 1.1028098081828723 1.0483549727191495 0.3586069274131953 -0.3933520442038645
Ni 0.8381066714825065 6.146510829391026 2.914440746857315 2.383348352932992 3.026970293304845 1.341827886637173
Ni 8.141546622751418 4.311204425153386 7.6638179398998725 1.1749573779324474 -0.4534112142792901 -1.1317386764531285
Ni 2.2913721933310316 1.9368691385721468 8.699422093179292 -0.2733206073398648 -0.7486998412498137 0.13850635573973566
P 1.6729595618941742 5.0079741720880975 12.947113044792154 -1.719943316396941 2.978524796208948 0.23285915689070866
P 6.684106124281583 0.9743862694540231 4.129027831201397 -0.7167178890265786 -0.1480592895354934 -1.149859297313239
P 4.806587506265354 2.760719476505504 11.47029136885233 0.9827579035446301 1.2076492117385136 0.7245337855265715
P 4.010345287992182 5.818311792157625 8.764154578502465 -0.5279906894580777 -0.24045162452598592 -0.13969831916530778
P 1.8064681740532313 5.377035076208835 5.138329816745595 0.2566297769477451 0.08100569042010565 -1.3090933725186296
P 6.260874112338496 0.5338818409396142 0.3753964357680505 -0.832685697344166 0.48342215881908357 -1.0182980054327688
P 2.652969193744644 0.7047848881399102 1.1138576805226017 0.06593491212991226 -0.49670961995660917 0.7554037356325506
P 2.7443210858329716 7.775167914510563 3.967818609869055 1.647342305100763 -0.2944424769201445 0.5408888855769847
