# total energy = -340863.537907589 ev
CRYSTAL
PRIMVEC
9.35632508496215 0.00000000000000 0.00000000000000

0.00000000000000 9.35632508496215 0.00000000000000

0.00000000000000 0.00000000000000 13.69392751367591

PRIMCOORD
 96 1
Ni 0.13505200295444345 8.033967578676007 8.346571755581774 -1.2115179506653007 1.9448461945550506 -0.5573462598020595
Ni 7.990236115299947 0.5801670049257067 8.550502216802272 0.6210078025167628 1.0671322533266525 -1.172292943726407
Ni 6.161888564442846 0.5008057200514915 1.1863595636654594 3.183942569059252 -0.0695200583780093 -1.049840041905108
Ni 1.2992567244872166 0.4587387469053415 12.648820539971704 1.140021742397527 -1.9189158478425339 -0.3832185553142884
Ni 1.0394783589253176 5.425498999827348 0.40192246291922107 -0.32267704628580557 -0.6481815347180773 0.7807923509089844
Ni 4.167775002324798 0.7785800412525681 1.9306524160673832 -2.5654107388868073 0.8797093743918721 0.4119282645441551
Ni 6.633840313611703 6.617878423042691 9.122196133744804 -0.7430128181673655 -0.030649863675373024 -0.07095910481738102
Ni 6.687676608063104 4.158989413084293 8.917088646830528 -1.3579008809396356 -0.4188237061124077 -0.32072377921417666
Ni 5.96445139282076 8.342614030077264 7.406853341447763 0.08569255437281371 -0.46349173844374375 -0.677983191460542
Ni 4.9271717702868365 7.749946974858358 1.5763078017604009 1.2507321589709168 0.11575929185120709 -2.629061997188866
Ni 8.781126273446798 8.585438734612758 13.051203334084356 -1.5046453083184474 -0.33148590282668716 0.6542642505770474
Ni 7.729793450658095 5.030409461106573 10.932587961160529 -0.06001211888757407 -0.343514294746131 0.7185112334815754
Ni 4.537125290778662 5.554943757167484 7.473584523110309 -0.40958521823327526 0.4786147101281112 0.2753134694001775
Ni 9.189099471788634 8.365508957522968 3.6547723769123666 0.03141193865237816 -0.1456823046628846 -0.15452278577265002
Ni 0.33685109332405105 7.633825624417561 5.942767173839083 0.4943125804793422 0.801554008936368 0.0008785459502113901
Ni 3.317481536310037 8.993683266381616 11.905705648896062 0.567942547260667 -0.18586556174998958 -0.25133998930371554
Ni 1.9924762052308393 2.4177960302520103 11.176572850004671 1.475874149723026 1.2690065318000725 0.4544337420065334
Ni 2.651189559117185 2.0221170430518405 6.411085861983353 -0.4129279094532631 -1.1124546314125359 -0.523362189547131
Ni 2.698392219094127 0.39396865097741773 4.306520882416783 1.372912009636487 -1.7594709421779182 0.26480485655936975
Ni 1.022122375920912 3.3492181909466643 1.9346092059393847 0.6176679395102523 0.36413608476154063 -0.5209543514365866
Ni 3.8009415653147 7.71432744531778 8.542696234796571 -0.6157262424028492 -0.7731093804424297 0.6787390957899601
Ni 0.6506285533935658 5.733874117801583 3.229479685233898 -0.7999218726495836 -1.56537810742213 -0.03176700799895174
Ni 8.23816937332353 1.497395620489534 6.211374167736809 -0.00803495448933455 0.29854544334492455 -0.0046547251631919835
Ni 8.244148065043106 1.122188272542 3.647911383738711 -2.932709794757362 0.5433682003554126 -0.07085291825681991
P 0.7592405173333732 2.275458256965744 13.076235246175994 -0.590304459895635 3.1048657202307433 0.35181767240550377
P 2.329303907742216 1.7038148641785893 2.5776628785564726 1.3814560425517564 0.6428398107901897 0.6330025129847937
P 7.175393764974507 8.580882204303785 9.861969881138034 1.2290233065389156 -0.5051600647168075 1.2050829936732341
P 6.832980336396484 2.3379959337320235 7.668243801819182 -0.837402643203861 0.17170932485426557 0.0497863273945078
P 3.3463364428251783 0.8641005949202065 10.000647460057008 0.18847600278964316 1.0375951630994842 -1.1454868792771562
P 4.70284452041426 8.970348591657634 5.460919239643941 -0.8731373776013092 -1.5841206781369557 0.5911889193831174
P 0.8509596363597279 0.5524816390442855 6.869682392747633 -0.0051185521734879585 -0.31281558011069355 0.13006645250249857
P 4.648044524480672 2.634114265864872 11.826185306495661 -0.026358692499186865 0.8213977831351725 -0.5754177725917896
Ni 0.8466847314353544 1.4198503983113595 4.720612181721735 -0.832242182048844 0.7706814877272276 0.8464220730936519
Ni 8.884654010343699 0.23905410553237982 10.988733396639148 -1.0523496957008391 -0.31461715209580654 -0.6285565613982982
Ni 0.23567647218219628 7.480297686347861 1.4660173131030785 0.677953109553555 -0.5108604575356944 -0.5631428118791785
Ni 4.6184130429847405 1.144100785855379 13.276755326908566 0.16514221315970914 -0.4121763759992192 0.09868690974995262
Ni 3.8729665557017157 7.916077882797025 3.3532732222318984 -2.122305534519216 -1.4553068670946356 3.406249918576043
Ni 3.00058280619725 2.727827217763593 13.190086752154869 -1.6129609994074157 -0.5204583856367747 3.1838613221993555
Ni 3.858099355165866 2.4230168596409367 3.9547651632566034 -0.03202437542539646 0.707325134957769 -0.05707874729086299
Ni 2.833993438330165 8.504450384808912 6.638145158776299 -0.554537843818987 1.0707467101507884 -0.586765336394125
Ni 6.9185252165093045 4.832429622630441 13.263308416518305 0.6707239387949674 0.7527151330567939 -0.1208107382321855
Ni 4.685413686809295 3.167593208692474 7.179110097292217 0.6307188591569395 0.7642465307351612 -0.6738462864740331
Ni 1.5728824511523616 6.4949550242761775 7.974727070864311 2.043339243126642 -2.0290521370800088 -0.42353139600072226
Ni 7.6791570193805505 8.77562475430578 5.350436946322688 -1.1908174848931554 -0.7803069266321335 0.366956070708839
Ni 0.7305652522595713 1.7027482431206369 9.67937464797411 -2.1442995222918038 -0.9197815598224096 -3.421323010859082
Ni 1.6363464041005467 8.97555070839642 10.0357589411463 0.2609587433404022 -1.338801183995707 0.2745028005734241
Ni 2.7545863074631076 6.417634353899678 5.492648409220512 -0.5824217147134485 -0.08340195856642411 -0.5728777797787553
Ni 4.4215559635169805 2.893087987470772 9.73902496282386 -1.2136144281830132 0.26062989924607377 -0.36583712661304735
Ni 3.579598983139376 4.568104083084639 12.123138222824734 0.6395076610931631 0.13085989493807143 -0.5406130062077785
Ni 8.076258167991325 3.2797849026039723 2.4758211514371435 0.3138005697317821 -0.44305558207657886 0.31499253315735426
Ni 7.628221185700776 5.959314770357461 4.622960216968644 0.25912734655861824 0.32870602608870486 -2.243250998557053
Ni 6.488864056655764 1.9696748410358331 9.953143526412822 0.9804477673542149 -1.2014736790554212 -0.3381653717293918
Ni 4.172247325708144 6.78900560856861 12.027103031043698 -0.03835494562911459 1.341707559009225 -0.8538384201623811
Ni 5.4380364754208275 6.276887155875271 5.355982440191535 -0.38420380204569315 0.6498640646268228 0.015929526746062888
Ni 3.9433541892015236 4.974851602842335 3.1872620752541247 0.08102805901760883 0.14121321314793747 -0.3128808861309902
Ni 4.691420447504082 5.845897397861825 0.36808344203941845 0.09235608243591836 -1.7622492762540036 0.5923328031795734
P 8.191172552498122 9.125523242939611 1.4138707709592755 -0.26351699098588166 -0.4893022717489443 -0.025846014528826455
P 8.356583023406419 5.0602467817540395 1.28703736394611 0.29998320423271563 1.3774479498336278 -0.29382104128606173
P 5.404428555770248 8.507528615756863 13.151429223864138 -0.9411795658822114 -2.7718638949801617 0.0719230113925471
P 6.040209556910611 6.734692141538651 3.248829501110669 -0.7761777349551084 0.2931605248839274 -0.1641713646060076
P 0.11689418289155931 5.401864922701133 12.296530574650042 -1.7405378527188409 0.037753307489373694 -1.914661443441554
P 2.4955564479067895 4.559187505293157 6.862136516578872 -1.5997905234637286 -0.22598608391995922 1.0695676022410225
P 2.173558520630983 6.848708318838752 10.191116976399645 -0.2024211521158256 0.6019541283194213 -0.07157925489988319
P 1.723556710075784 7.493209414944131 3.4685758942290916 1.1527911262480532 0.5658686954507738 0.5890744441432758
Ni 8.64590866353862 2.6525462262523005 11.310184914530879 2.1410357639388677 0.4769481210589657 -0.5673578784017906
Ni 5.545521937822235 1.4574253997915174 5.388491927278925 1.5333578457617913 0.27971751200514405 1.16113409889611
Ni 4.64073723460119 0.9728051864782045 7.924305835063373 -0.4856088820577572 -0.46493849819259925 0.16145962210179937
Ni 0.1611879614043123 5.286735342717731 5.805773733432665 1.1133156938612503 -0.5803000403847555 0.6153971411982047
Ni 5.114195352106277 8.962966451177593 9.920169029969465 0.42820386177572706 -0.2769486910107553 1.0528196933587224
Ni 2.2932633435734986 3.0180136398022137 8.493685932816152 2.6161787134682943 0.09272503573956288 -0.20247308839968356
Ni 6.339275131440434 4.793058206736889 2.245544214452706 -0.37005373579755624 1.2977740908510682 -0.24620138252556953
Ni 3.717052754739227 5.413045731159497 9.780449156437719 -0.010657222603530032 -0.21802877674609547 -0.47160716846202655
Ni 0.5310706247546457 0.9272688879961873 2.032917984712372 -0.7085847183964828 -0.4346858699556449 -0.7656290129049846
Ni 8.700549601946022 5.331018829272907 8.758294033379062 0.9800885842425832 0.475943076833219 -1.3586105054121504
Ni 0.25380528763736415 3.3925005507193764 7.336206537743522 -0.07715777742892518 -0.3336679980796705 0.08933735021425258
Ni 1.8487349831841091 3.7190830772793655 4.676408223929651 1.1628225423421263 0.8957556292214574 0.1569995294479167
Ni 5.699124726492493 9.197435957425789 3.3653372677768476 2.2143497421416707 0.4599842395111175 2.2250277906808065
Ni 5.888085067601375 3.5452238448330764 4.41499063021553 -0.13557915479061167 1.8113018108062806 -0.8880587747978319
Ni 6.7297145766015385 0.3973762245678245 12.214613141766767 1.103025624789152 0.25429341550508466 -1.3365820648572013
Ni 9.093243921448938 7.100056635512797 10.419941811733255 -0.6329914572412002 -0.10245331877092033 0.49541146997047586
Ni 1.1634215971244344 7.310171627604407 12.285712791604384 2.011928847136161 -0.42706640573717414 0.10798993231843336
Ni 7.428968887015156 3.907416544608574 6.007279035195082 0.9465385162012795 -0.2376277819239456 1.3101374975124276
Ni 5.649807537049785 3.181328293894883 0.5877418857021848 -0.660721576166617 -1.031728419906062 1.0369043076800466
Ni 6.659991242181683 7.190448092011752 11.749444728273486 0.3604216120244309 0.4916813135040822 -0.32961336839432265
Ni 6.705696890147462 2.734629266089309 12.174572748630727 -1.2274873295103634 0.7182006442196921 1.1395430029888955
Ni 7.106802545888094 7.105071625750188 0.484614599518271 0.04916540598105726 0.07378654696384711 0.908127777633565
Ni 2.6616873558454563 6.4139947434475415 1.665866545328148 0.5757630717463503 1.6276538255329 0.09566200688069977
Ni 8.264385796168998 1.764228655154033 0.20274314356914644 -0.6968445471414192 -0.2466289569812914 0.31465520442259354
P 0.8159510748462052 3.931031909084649 9.543079189417895 -1.8802186883826522 0.04624668967236552 0.8954113585081612
P 4.072405980888729 4.544862971611353 5.342877971298828 1.1197141411884264 -0.9875602100292799 -0.8841604681846902
P 9.137022166450347 3.483284972871262 4.447582452963533 -1.3543054502788936 -0.2791701241421063 0.25403476252705925
P 7.680251709413713 6.446236639637935 6.66383482052034 0.08454455681129956 0.7794018983193609 1.3215084583535306
P 5.500340244060362 5.342592603384201 10.990335199491089 0.9616591738928019 0.23407708845820976 -0.2832070132156413
P 2.904016175152252 4.287470468942244 1.117547535307399 0.9826262630627723 0.6326939806054394 -0.08153508056101441
P 2.5061852331860375 8.390434207508811 0.26447524074691897 -0.5178188911313986 -0.4196114921210257 0.4664557061680741
P 6.213741317979458 2.117167949435537 2.8393677114502354 -0.9749011265043724 -0.5163937286490977 -0.11170671904838826
