# total energy = -381176.5608967159 ev
CRYSTAL
PRIMVEC
9.14972370303806 0.00000000000000 0.00000000000000

0.00000000000000 9.14972370303806 0.00000000000000

0.00000000000000 0.00000000000000 13.39154550764574

PRIMCOORD
 96 1
Ni 7.885003145079296 3.0140196350830744 8.832888901595103 0.810267991770598 0.1682805016783747 -0.16235899398761713
Ni 7.513350517943471 2.2240965385391607 5.56398632825998 -1.4195824171098326 0.6969268224425804 0.8893602672180748
Ni 3.161988966825376 2.2254872965421804 11.181886488473852 -0.4674854329841691 0.0670379153861039 -0.5607632559034085
Ni 7.223752612985791 4.661372489659566 0.1925879593852242 1.2887929703983805 0.2074736269380685 -0.00888418986350728
Ni 8.479442394685647 7.743145828771317 1.385409074542009 -0.030933970574695106 -0.3334461118768515 0.2263727778354166
Ni 5.150077532141625 6.35174734509262 8.46407268880754 0.00811311602543764 -1.1997605530190563 0.22350445514868603
Ni 6.3326518717222156 2.931681271470102 1.302079795851886 -0.11448248202131252 -0.46648527385442884 1.7417069333262778
Ni 3.137980091825883 7.2445865338599695 10.49354819935443 -0.7492212609709226 0.6133045203352341 -1.2284651200426004
Ni 0.7178058892807639 0.3067637015988954 11.881233725154015 1.3834882424904367 1.2863995304655393 -2.8411314710277327
Ni 0.47964864595976436 2.6049354882738776 10.578905971789748 1.830290178983325 -1.0732018565595 -0.17952342158204565
Ni 7.888864328482416 7.770960988831705 4.4223030188852706 -0.9276612196808024 1.333494169960497 -0.8038780290838543
Ni 3.5980190499430735 4.441468030155826 4.756583599551801 0.27227391124290523 0.10550084734799249 0.6940243040838047
Ni 0.1272287380499047 0.3853104197088983 9.176489390826605 0.6208990448530404 1.1276835325471481 -1.2176608303382448
Ni 5.899659496874271 4.749484328929809 6.485164041283591 -0.5879465011864197 -0.7499506829377794 -0.39491758891877143
Ni 4.927501353316295 4.138063192128697 2.8834009244008096 0.10321719352013836 -0.8361464021992567 0.5267491037414928
Ni 5.550085153036379 4.083841929458348 8.922532404613408 -0.3012109059922296 -1.0892439976240273 0.43328539006369254
Ni 5.248226618315238 6.284597522828413 4.024601128363943 0.703894254899349 -1.2978468530705327 1.754091937254192
Ni 4.035613735814168 6.295705287405161 12.254495788689386 0.43344325579779547 -0.15793283989546347 2.4054554692446763
Ni 3.0198205599114574 -0.05916577336003105 12.315615028060238 1.2401790660454188 -0.15292921603328502 0.09703369041724579
Ni 4.7965505076635715 8.40555837577524 0.7985595207481898 -0.28695182497005417 1.0511369063396605 -0.04729415710027339
Ni 1.575866063276554 6.551989048356303 12.216852910398453 0.8135299503513216 0.7150065627624267 1.4806101217461145
Ni 5.911343694044374 9.209562897099724 11.934224349986165 0.500642379352112 0.675223626437534 0.5299784093120679
Ni 8.381640998012788 3.4716705153135012 3.5636243235670855 -0.10127575352305139 0.21241143055931805 0.23671632585326974
Ni 2.25155485937509 5.905222528886348 8.507501852368932 0.01909121230349615 -0.1895098433707962 0.6277978288554026
P 6.959041956503195 4.755230355415969 4.567736047216803 -0.2944987840793767 0.04304978000162263 0.6593658334696709
Ni 0.3258536851350776 5.588934879883881 1.4823101384023865 0.2598361997001848 -0.82548763693383 -0.6902794923293918
P 1.569378909170365 8.396335454281532 7.87375996459173 0.05916134085150456 -1.3376917529816124 0.35069924253034435
Ni 2.6250465809754346 0.8248988303751107 7.203794320670092 0.8451036113925444 1.8728632764588458 -0.8617646169879933
P 8.66062522347374 3.176372332488182 1.1493544377282054 -0.2848113815882837 -0.18010526222744463 -0.24927153681046105
P 8.026558520505041 1.1248944813501018 10.696939237517059 -1.6342685026359405 1.1832011059984784 1.3880421804097063
P 1.3637663180923896 8.35434737220353 0.2599967188302565 -0.9675467430218304 -0.11015788650402965 0.3705309325442909
Ni 0.9350560139379521 3.7801534499963925 12.600037849290892 -2.6391898296514866 1.9840766008105828 0.3545407277636216
Ni 2.2600366532487675 2.303250798303114 13.286783171513433 1.5573670641921953 -2.0348916265799213 1.0791945838078254
Ni 7.074721913293817 0.6761179181402571 8.53830165230159 -1.4600348686979243 -0.06072637134577929 0.38453470302255066
Ni 3.465558499879179 8.399290815037949 5.670837716648538 -0.13577815817529518 -1.2756746878488676 -0.12412026222139269
Ni -0.1021081716203666 7.040145107416116 8.076240605245799 0.16230448660059787 -0.5993776258414968 -1.1321330836780696
Ni 2.932760938867183 4.921005049486401 0.4367373567600226 -1.409906327472649 -0.235545188363304 0.08049686910448717
Ni 2.4537271543403327 0.5090531130275504 1.9367787447285363 0.03793508448287661 -0.012597634159352498 -0.9634337492947216
Ni 2.3123364739412606 0.4088773630534845 9.680895359184856 0.6134901539834788 -0.09856478234979155 0.8085746632285752
Ni 1.0706640689560487 7.912983000166358 2.988925602852278 0.3818257887318198 -0.25308782523275763 0.1059225082664434
Ni 8.182643657172859 8.16363053131579 12.469724739380345 -0.6153814574689208 0.2073332447054623 1.0747164934318136
Ni 7.8432255066464895 3.781507609104595 11.20963394057883 -1.4564862321147172 0.3154255069297148 0.11874639950398905
Ni 5.794995807423356 8.908070351326748 4.503898424933472 -0.24004539022650273 -0.3712850371014961 -0.3230251736538437
Ni 5.6765617837978075 7.242189306249502 6.314274651662581 0.41832928297449246 0.7000620256374525 -0.16609069311590752
Ni 5.117971151664025 0.700371090762649 6.65652189675825 0.45432318457059817 0.5412480686886163 0.6785766020701668
Ni 2.060453730091778 2.876975073443438 5.837655479221236 -0.32926061304059423 -0.6586430963710335 0.43265778378202263
Ni 4.269498973137735 1.6821858527179063 9.007648624342936 0.801284043104433 0.7081933964953352 -0.8205256649428644
Ni 7.77312947334957 8.137663615443625 10.238358745358296 -2.483313615174736 -0.20097130704317645 -0.43488538756096073
Ni 2.784956302151554 2.339556901960884 3.489649722392009 1.5605266928670996 1.6805774130048088 -0.04904456413247682
Ni 1.752108041264448 0.6915269678302899 4.506991946517819 -0.20774307854937127 -0.9504247386295632 0.8986458062850587
Ni 7.101649550154908 5.8634906390720625 9.765316199912874 1.6691357468267707 -1.454427806923792 -0.4544345133374819
Ni 7.667102475066749 9.03408034617927 6.400328718071777 -0.6629869751620259 -1.149519140365001 0.1219790475086738
Ni 9.013118329173233 3.899557344334572 6.033601387205856 -0.9458648871730226 -1.645528391820476 0.9365994027106967
Ni 0.6973608316640082 7.4988390561488085 10.179838027519402 2.4760841873058324 -0.02958928362134259 1.234632939416209
Ni 7.211116844550464 1.30213377922174 3.21698429612109 -0.4566531182553555 -0.11943082716552333 -0.006105855787421743
Ni 6.265941236195804 7.605222893656089 2.492983128920297 0.8462366965557232 0.7585929319938097 -0.5414804964143964
P 3.808380347623464 3.174899226971826 1.4015592518520719 -0.29176390164671684 -1.2068868796511925 -0.39657312224432345
Ni 2.865757512182242 7.284506778380849 1.2291601578198892 -2.3980226671157157 0.3617516436897641 -2.6948680970503975
P 4.452520896390348 0.04683652066878989 10.40442714555963 -0.9485432053361341 -0.18668574365843976 -0.0383415758926759
Ni 8.607511077371585 5.9588582092396365 11.995275881401607 -2.0026489644961316 0.2976342443845648 0.9082313930909649
P 4.067262630106564 1.0350167454049723 4.608205275159927 -1.5314266901773497 -1.8301346272420673 0.15434486543388903
P 3.3632828883150276 3.9460379407512733 9.366020427522297 0.37063660488421973 -0.44140416251608505 -0.6228060320677661
P -0.021287747169901065 4.77826935970283 8.182823906729828 0.24566530751644142 -0.10925131552936022 -0.5358304972174708
Ni 7.207173313634007 2.0390342269005384 12.816673112515167 1.4791744177408526 -0.24374649322717373 -1.143527184447624
Ni 5.465797898274439 2.501799802681543 11.234931096675856 1.6792833767837336 -1.388493923235144 -2.570248269484767
Ni 9.442880851553639 1.3576909015528837 7.0174245135141575 0.09865451385012042 0.3792004352938308 -0.9370591159559345
Ni 0.3213410414042278 1.6712153339967204 2.860662031051442 1.4082847327088261 -1.5899622245193974 -0.8637073425366608
Ni 3.739528676750299 7.764977069529239 3.1706629048968393 0.35984748468851574 1.9389416561451573 1.368617238915875
Ni 2.6580587840997376 4.621955479942411 11.269829057855569 0.5726553793553041 -0.042158378535604814 -0.5388834251111816
Ni 7.887272276557907 5.933367079000083 6.151191806305888 0.535633036494684 1.4590699336814936 0.29126613607469193
Ni 1.2713083600627113 5.535335798425409 6.252485652516591 0.7846307508184681 1.0383513245392184 0.8924581894171082
Ni 4.0572436826506015 3.2985943417272168 6.949462195785028 -0.2006640602154028 -0.30737281182856735 1.2134298229760327
Ni -0.2742245391900932 5.952700445186794 3.771407229107667 0.7505294382593849 -0.7996843027174808 0.007935452796992785
Ni 3.6391562077165953 5.929359500017698 6.55763900274357 0.5530990544899312 0.3852330146411559 -0.04419983444566582
Ni 0.87570816107621 7.825246299567982 5.463214931272779 -0.31120504109046404 0.34597304069926865 1.3040547816534573
Ni 6.265209258299478 7.007004808159957 13.096101099575769 0.59094235058995 -0.17807203384749976 1.494299189197433
Ni 0.5926733529314628 5.238354066438541 10.27004332357314 0.17490340631153103 -1.8772943156470054 -1.328637613199144
Ni 3.9284979204105612 8.169010568853787 8.365082743025523 -0.7437278419565191 1.0602440108472513 -0.7624279894691837
Ni 7.097623671725116 5.041140921720907 2.46775368077868 -0.8182700361394682 1.8241681252459874 -0.9889198093809679
Ni 4.781801153052602 1.696258127774774 13.393554042333397 -0.9264119206547334 -0.8335665572872224 0.6230418022276559
Ni 4.973478714929271 1.3268197337753347 2.612945156404425 -0.9144886868545863 -0.35273015691744414 -0.778542378532543
Ni 5.265830686721878 2.604304157338296 4.867036319190285 1.1481202031349453 1.7766929624831596 0.23535029874367852
Ni 4.67296518959263 3.9278757391986843 12.581785980446005 -0.04735946312057005 1.6238221104916357 1.1740533780609392
Ni 9.158324444356904 0.8664028920691657 0.5164954982884451 -0.22554951060317283 1.4101942910267131 1.7183566886361112
Ni 2.574777998945246 5.64102425693118 2.791735332443904 -0.5252339526485471 -0.5506025133203227 0.20674446208152783
Ni 4.605678121472862 6.057556278835494 1.680384272120574 2.5361906656794257 -0.4187779404761368 -1.0985637323630566
Ni 1.6853699565669245 2.7159490859754203 8.469536903803615 0.42807247840418533 0.8237606269403943 0.18057628832659223
Ni 1.3679019932066316 4.338030403681257 4.240259201096623 -0.6255265163227227 -0.593381556159062 -0.9440684573942323
P 6.95943539462247 7.477346355167936 8.072142443998745 -0.5686945949353431 0.8794504643035306 0.2473565791759353
Ni 6.882742410534913 0.39829479261735123 1.0686557046030043 -0.6884277838326338 -0.4505122954649402 -0.2668573682130243
P 8.729970979426925 0.8024188742065687 4.671319154298267 0.7647455818587668 -1.9138430613053168 0.5943665457801506
Ni 5.520979881933716 7.1776746044120685 10.814891985675771 0.22831756026661323 0.40303918958464136 -1.0379661732856575
P 6.352598269397099 5.292227639608135 11.833225124878734 -1.3952222430979133 0.000777244485656726 -1.8354012749576456
P 2.4640480426785296 6.577672322793642 4.715967061057042 0.4959812264310168 -0.02161834960072406 -0.1872076776001808
P 6.238199273925049 2.45756088857234 7.514076091033204 -0.9121929488418742 0.42596545936351154 -0.4295945714756666
Ni 1.5526349147919074 3.3475819624388348 1.946206620033215 -0.09053214185330213 1.79758831787493 -1.2539226408837565
