# total energy = -340889.6089857604 ev
CRYSTAL
PRIMVEC
9.10619895900589 0.00000000000000 0.00000000000000
0.00000000000000 9.10619895900589 0.00000000000000
0.00000000000000 0.00000000000000 13.32784264520700
PRIMCOORD
 96 1
Ni 6.698884143118034 1.8536123127513344 11.353495845082094 0.019659940322772594 0.2010695231839376 0.03337009082001349
Ni 4.9740699073068635 0.13070764684502384 6.049440966528661 -0.6241640887575574 0.06554101912560326 -0.5336419742065841
Ni 2.8798991387772284 1.6652870137411881 4.653909614030511 0.4190106253122332 -0.5127234788863622 0.4952985985416954
Ni 3.313946108329892 4.374080675587869 4.651750534276375 1.6160290968097781 0.8383938034725367 -0.5607514288288665
Ni 3.531429456149597 2.720440490212523 2.5900260629713934 -0.713015757584643 0.5603493082944414 -0.5383221532910728
Ni 5.384759476735692 4.10734189803334 2.804018094141009 0.35404579040507417 1.3058928633034608 0.10206868173799195
Ni 5.323948280623814 4.779816472826691 11.543524003282556 0.34085346008451617 -1.3917998476799254 -0.41378691501944864
Ni 5.707865625349299 7.9886133027043735 12.379432993071047 0.19108258717455476 0.5372808565107521 -0.3941038347682245
Ni 1.8841362913926964 6.895623569892089 0.27860961841278636 0.3480569198114909 -1.5702485481405537 -0.6345752567885522
Ni 2.606731384814346 1.8629552728008683 0.2517991476741532 0.30151506749620977 -0.5640308709110867 0.8854293075947847
Ni 8.177521398442755 8.964324300158033 6.740196235570979 -0.19652047036067444 -0.7866125571351872 0.42153981949199015
Ni -0.04042059558272026 2.412286720157721 1.2904376218590996 0.12661757472194968 1.1220751852214352 -0.07893029594831567
Ni 7.189061722558931 0.7270944662876093 4.7587857065163615 -0.6601749596345275 1.1866818654582272 -0.9732396796415497
Ni 0.6232501061347151 7.545806169830412 2.315486004837492 -0.3910421651237652 0.39921698762507374 -0.33605346759271154
Ni 7.775628417130739 4.026442427195076 3.606207740101607 0.47995168377197983 -0.4207304362168173 -0.5244533657287807
Ni 7.944812486097883 3.7362733999256834 12.440568369863005 -0.48157147876359 0.6807227018788922 -0.11415003838255824
Ni 8.45060719661573 7.3222854121541365 9.206646626659136 -0.4346766139842643 -0.25027555259494316 -0.23130235392655002
Ni 7.098363981727198 1.0136929529766687 0.266417328734111 -0.4499687642566444 -0.6021155935979501 -0.3634292885025031
Ni 1.961320433088456 6.473724269643596 9.115018232302 1.0046282212551603 0.22731791535750528 -1.3346354826537918
Ni 0.35676357028912603 5.115643981273826 1.1483135334798646 -1.5797343761438019 -0.11898756898051767 0.6312045405441066
Ni 6.569576119040665 1.9050350178192854 6.847645739859946 -0.009639837082609204 0.5263366987944227 -0.673674279672543
Ni 3.6015927185098877 4.703251552654683 0.4270370176558491 0.05424436316586141 -0.17310826208432123 -0.2705885531206824
Ni 6.544643346510817 5.803125571819254 4.673807569200333 -0.8159809829949752 0.40675160543922206 0.4482409829322603
Ni 5.2333142831842325 2.5968056280365763 9.641947519797395 0.46833878212339985 1.9883721428621435 -1.0696858729864416
P 0.27822988991954506 5.601259355076499 12.269878135601328 0.6587927345750203 0.4724877712947669 -0.8597732975895774
P 4.168080244554189 6.4149164372850285 12.403103646436307 -0.6276834147647256 -0.5142738540926175 0.47977659164669634
P 2.496792245751946 8.670093908188745 1.4203612249806683 -0.09591088966671224 0.28601645763997835 -2.659860470626961
P 6.663989189014902 7.8264683254704535 5.531361083103578 -1.5271056942044925 -0.28578480124514655 1.7212422377140226
P 4.859331801435395 1.2353014088884195 12.535182686832462 0.16440662054526523 -0.05068852749380302 0.6891685186534002
P 4.163791224882327 6.325748537864915 8.033770032323899 -0.3103046407633817 0.956262685467579 0.270995558751114
P 4.819920172688433 1.1880493429069077 3.451937803657978 -0.24559228818666087 -0.812149525064027 1.9112292778315538
P 9.214107335400444 5.796132011080422 3.52077611408142 -0.2723736700455631 0.10455570982590381 -0.17316945433955983
Ni 0.6970003002333213 0.5076095759543684 4.8945964672130025 -0.2994358163696779 -0.35422576762636415 -0.3023974701011631
Ni 1.4644224788750881 6.852624098786925 4.941791164141578 1.2730552479481494 0.2764190437595304 -0.035013025740075185
Ni 5.980741980948064 5.262353951408368 8.946793956696672 0.4871358602252449 0.02003609271526872 0.8077423971352671
Ni 8.756894195900399 2.389302674187913 9.935613327436203 1.1308508745315362 -0.19845959636491628 0.2661541714984126
Ni 2.6169667523539912 5.3882471509062295 6.859413680670873 -0.9994222515741884 -0.0650468530980041 -0.30904942820004194
Ni 0.8731287564653528 0.06380258244352742 9.18778859940126 -1.095921666754519 1.1906711891232784 -1.7379729202051424
Ni 1.6117972015277746 1.110874307410027 11.274301965293807 -0.4559411797899954 0.9195694438116034 1.2074319535213849
Ni 4.325480892172311 7.082127629126498 1.1978640040583575 0.25609678726241053 0.5982458262298987 0.886717687388905
Ni 5.81773191482067 7.947116354414192 8.118295591555656 -0.8531311096827114 0.2026057573228059 0.5568425806927636
Ni 5.186235234981416 2.5986268678123134 4.989411120557789 -0.54839779235952 0.27256341745886603 -0.5653485612812458
Ni 1.0152045819905309 7.745341199660223 7.195302200650495 0.2311030934315504 -0.2809647541486839 -0.5417810583739509
Ni 5.061225336774786 4.946906116051737 6.697533693824325 0.5632603112936493 -1.2004025574784294 -0.7602788043366648
Ni 1.1523621495013294 7.614357634989175 10.95948518951947 -1.7887493794270612 -0.8428176435718452 2.845121566023732
Ni 4.567478127373445 0.4936443093540125 10.481148400480532 0.6342222443245077 -1.7279281343746307 -0.2454861016260998
Ni 8.403646528998335 7.731417821574709 4.374757266164555 0.07428919763187851 -0.5404453702816628 -0.4189360633205559
Ni 7.308225441085442 6.384656538411148 7.2797339660338025 0.49483991373772196 -0.24549278649431916 -1.3115929990120314
Ni 2.286065697500227 5.798964038931694 2.625291639368888 0.754176805203985 -0.5890765010258049 0.15155804671737128
Ni 2.4682260998695016 5.628095323171992 11.230466545131579 -0.5046329885687438 -1.222000081143547 1.2395928545246457
Ni 1.1448040044320182 3.7705036015106717 3.753440406051786 -0.321626236423788 -0.6546249763505757 -0.6833395706764489
Ni 1.5530622187602372 0.9547394214360425 2.6337412813084224 -0.6121495807951844 0.9383539235079581 0.11345224098458526
Ni 1.2804590491278334 3.5611976202840276 7.906102945284469 -0.4759628743275609 -0.32089835711882797 0.45410926878757923
Ni 3.9395237588979994 2.6914736715794167 7.169473378150985 -0.5247012200735286 0.6850182439304524 -0.33173015762700936
Ni 4.296769047107809 6.7891994235968625 5.359031733043734 -0.5803578902058845 0.7910924472834118 -0.48475887535263606
Ni 0.7202411410115087 -0.154714318948909 0.008250216184091322 -0.060919204082875725 1.463349534893454 0.26159791958629786
P 0.36704264758338906 5.6856465000853005 7.795202191620479 -0.19286847543038396 0.6734251397762144 -1.3205813185535709
P 8.792126079362044 1.5497475623683947 7.846967289766269 0.5447051739992812 1.4350113500703932 -0.25614152445741695
P 1.83476248107245 3.512825491840437 10.293839353265247 -0.005229366719739381 0.1069496639793771 0.05693733661699226
P 4.640018107641073 6.073042412782445 3.223804756249647 -0.7016692222235722 0.5409613906861329 0.7156768493565739
P 7.11729576919599 3.8153516309882103 10.133758751317128 -0.8937303712613125 0.19430777898007182 0.6977158940027791
P 6.581814850333622 8.098097131822838 10.328677848935332 -1.6031535263986905 -0.9151990826580497 -1.7354049023676499
P 2.7003795340827734 8.711354095308081 5.716524709863044 -0.3639252543023152 -0.6002970523319727 -0.713563659668313
P 7.185783490962603 3.83221631131154 1.311714255539154 -0.08679710029090212 1.0560094039406136 0.10683319300617085
Ni 5.375644171658125 2.984775231263078 0.48192189953747744 -0.4764146171529988 0.17254724737452865 -0.7075634762208202
Ni 1.7668575560340738 1.2693130617003192 6.904355503996864 -0.46678814980682837 0.6127789868490673 0.6167523696745185
Ni 6.9305913735862505 0.9027566851370522 8.815927861991158 0.8674583249386608 -0.9213980123799099 2.688390459745854
Ni 2.78431136914764 1.8028452540026487 9.323439090997637 -0.06534175863060361 -0.23376032854873935 -1.6555631503486585
Ni 6.5613805400498455 2.0620623112833814 2.5864946790462375 0.579257458052854 0.023890176354036275 -0.2918870574881425
Ni 4.588704676959666 6.705003508764513 10.182684536652541 -0.21920942731775794 1.8019643354554384 0.5798164158801176
Ni 8.38820241570008 7.13208423617498 0.09756290416637528 -0.5803494055654521 0.4759286786555159 1.058971314782415
Ni 7.6683118633454015 3.9041917072486902 7.8760087792301805 0.8217207136922299 -0.40832692034614193 -0.5219496254703204
Ni 3.2697992561660123 8.567039055478634 12.614322840047363 0.4324680363687198 0.6987114251468289 -0.5990706361240392
Ni 9.114667643645173 4.910800037497739 9.706973975370218 -0.1149203408896795 -0.24744733911752867 2.0963451058997125
Ni 8.787327112552976 2.7928074527014566 5.618419076243499 0.09088284032450154 -0.7466915525705333 0.6612753917875579
Ni 3.668933059217786 2.6383663197189082 11.38015151043979 -0.3657538228706217 1.3997995780559507 1.1925874323093848
Ni 1.34794508901779 3.6493365192308493 12.653573289074172 -0.03424169479168942 -0.11572098241410392 -0.7803136115003528
Ni 3.229240246360336 8.586435259090239 7.92330910806575 0.8977991420140473 -0.43895544386527635 0.26425104093842877
Ni 5.74485500519453 8.271934468416992 3.481471938481227 -0.4074581445879434 -0.6110254944930703 -0.737097224013879
Ni 2.937504952883809 8.04610073622553 3.2936165193332205 1.753877764360857 0.07651140209417791 2.137290180853506
Ni 3.612948148511612 4.510974163331185 9.301394804752109 -0.15917905359773876 -0.827161425091827 -0.2775156192578188
Ni 7.431204656942123 6.337704976992633 11.393999307074608 -0.11395129210819085 -0.9131609691820984 -0.9192629683147783
Ni 8.01237137557887 0.22422466684959805 2.3189509135108333 0.35715502545801714 -2.1157651622975364 -0.2991036298412397
Ni 4.568834951006369 0.7851610540574512 1.415456626264607 -0.010837199824820046 -1.5513514541257347 -1.0154553937776511
Ni 6.242372180931649 5.6589015939785945 0.34933837572344384 -0.2391285348391882 -0.5623082317930251 -0.8683121882985239
Ni 8.227641917071054 -0.05406350274277061 10.943291636053498 1.731830297642514 1.1113930229172408 1.4492411205165299
Ni 8.787891696883454 5.32445822776102 5.68850948901276 0.3187982800566897 -0.8156891627861693 0.08621243143202571
Ni 7.156042645424808 6.3239181918903 2.3882163046616856 0.7465735389354303 -0.03897406727035223 0.37456422207340007
P 8.660632567553789 1.8780624567406117 3.4096349567670328 0.7178136931939186 0.48380191075600554 1.8544516067208772
P 1.9636151952058851 3.8189850043408065 1.614641067437589 0.46293432327837686 -1.2185576311209014 -0.9197890160215773
P 4.8784183942851245 1.064405374532082 8.174898813165694 -0.4280727355145014 -0.5966368298715661 -0.7679463481842516
P 8.936195251821767 1.7143967442939523 12.504821709151027 -0.20075456304668007 -0.4059453074878428 -1.010670313684182
P 6.521804999723068 8.003083052722609 1.05017784940402 0.5152678425747707 0.1144490576802158 1.2847231712043812
P 1.9012013080913577 3.384391662855422 5.825107025292519 0.16322417020138985 -0.7735338695743582 0.789153578389486
P 6.7170327974832595 3.8098332744677252 5.7662108628048285 1.3744325600460714 1.0778372984489824 0.18099743502441087
P 2.668143590052218 8.63037266867991 10.08680445803895 1.4641206087315235 0.07428945474219463 0.09093323394646274
