# total energy = -340857.67433315027 ev
CRYSTAL
PRIMVEC
9.38920833973770 0.00000000000000 0.00000000000000
0.00000000000000 9.38920833973770 0.00000000000000
0.00000000000000 0.00000000000000 13.74205548093020
PRIMCOORD
 96 1
Ni 0.09415310140120886 4.52995491677465 8.293714770212977 -0.21233301191289886 0.8425309655693619 -0.129737351297854
Ni 5.837993670589705 0.2022181925056598 6.577304614254506 -0.22622082563858462 -0.26945958172256174 0.3751635462202958
Ni 8.604035610655655 0.5243835190188231 5.342635949619477 0.4648369396177285 -0.05888751836482761 1.0393370854912551
Ni 3.601136890586135 4.958196700107897 13.501445638334745 1.8485694369084873 -1.827400773250672 1.990693591906468
Ni 5.020681880289496 5.4746500939304195 8.491820489552666 1.7591076453012287 -1.1223569781279121 -2.273291510783201
Ni 2.7819754262820537 2.882853078554196 5.64046820431316 1.7215633684988674 0.23376341387253288 -0.1466760360347216
Ni 8.404120590907102 7.614591467497554 12.667288669707895 2.1728073999235096 -0.17290257383141835 0.10971025744364975
Ni 3.348764364951091 2.4041161338360286 9.885402440903185 -1.4869520048037423 -1.5193975269269575 -0.6480033572690002
Ni 4.117186548458574 7.177608331384583 0.5325089397444664 0.7905617715909224 2.9085529950055005 -2.7858450397506025
Ni 1.7516506708759174 4.725588457610684 2.657754324728545 0.47472128861097596 0.43335301007683436 -0.5623624820697282
Ni 2.3265706637954833 7.226685722340139 2.417639410322213 1.112846981754948 1.4591218699653514 1.258818278413161
Ni 0.0003614845134472707 2.144851929425133 8.198798326189866 -1.7972095943792725 -2.0501092148606244 1.9667797614033482
Ni 6.591909527518588 6.048875285447514 10.408026422316293 0.13336312097589934 -0.45140678225475156 1.3670982311681874
Ni 7.08064597890744 4.631621262530677 5.137357814180505 0.9655065726633502 -0.3031744574765037 -0.016957453789944992
Ni 1.5870766305719235 2.4854172871331697 3.7928485591814702 0.7862793421654846 0.8650607712407618 -0.20104638325548602
Ni 2.486102699327498 4.020468315393111 11.331314204909473 -0.537898435490093 0.6890240226557359 1.6187197562680637
Ni 7.5606504667247085 2.334335538928493 11.432427526305965 2.39351758015651 0.1693264264443858 1.4296200038514928
Ni 2.271221281801414 8.52895950235632 0.126306444681733 -1.1730478196145604 0.24169758111794504 -0.783601024002373
Ni 9.423666535366811 5.792155556442962 4.640816114063636 -1.3293266688463687 -1.219864265747467 1.4291307229199
Ni 3.6695278826887305 7.921787579470744 4.37931821703588 1.030385532724922 -2.5679101082698934 -0.6464817784181511
Ni 5.173125063674688 2.9609525118750897 0.7536304250013832 1.0624813848182024 0.4532155533287162 -0.8968959134734875
Ni 7.089039930985931 5.154797329382505 7.479457289321195 0.07032327100559502 0.3533891306576817 -0.9572543599568868
Ni 3.9209614875096257 6.721856168196777 9.806151890664145 0.1572206443197873 1.2224204565104173 1.7157627026566902
Ni 0.5945171481524786 2.685229025592166 10.833851423473922 -0.8639487691235057 -0.3434379329822408 -1.2620727807947167
P 4.353081013805307 3.243943245259524 12.355468372725023 0.7904072482909291 -1.0765139516518685 -0.0188739540863675
P 4.891476987054486 7.7336654051478995 12.031059025466044 -0.004788679637894979 0.19184054838650186 -0.23740332461796532
P 5.95813797796818 5.095767377796973 0.6816151985561736 -1.5348475429334405 -0.05782745253142944 1.0876131468888237
P 7.3348118432975085 1.5044422097186918 9.55563467255786 0.029245270018362537 -1.421776596547674 -2.5296868031226367
P 1.7822688786253083 4.012656494219393 0.18473079234213927 -1.601607264957493 -0.0654829121941582 0.20740729247650733
P 5.133155204616376 8.027613344433451 8.337703210355848 -0.0035527503482648496 0.05111610194952487 -0.5388327743789043
P 8.590421258850498 4.351832249122489 10.864290297347809 -1.1679374949711885 0.3987991833613648 -0.8369642701148617
P 0.57032679229675 8.438597763202644 1.5560406030602365 0.9528143219076624 1.9102892825157873 0.12117686332235258
Ni 3.0692570277871485 0.8524189784620444 6.99786696424883 0.7554695558734795 1.2300080390496881 0.6971854754206057
Ni 6.389675373359088 -0.04779200836098578 1.254172866707341 -0.39772163402646993 0.5392922305138261 1.4456611164747555
Ni 7.714962102530056 8.517964739622638 3.724111105298454 0.1756096883499363 0.5381902556988989 -0.5240329903619104
Ni 1.8856534494712278 2.854985908790261 7.618031673360595 2.1463643752406325 2.099897599137661 1.3786913353224255
Ni 0.41099474689814874 5.055337447539727 12.44569866296472 0.1820580150784413 0.7413927660654394 0.3075401906443671
Ni 5.999009201008075 4.045800398958844 2.978659619509121 0.47280170299075985 -0.29246452725816724 -1.4746891282759895
Ni 7.349806408699464 4.352470715276111 12.789991536304925 -0.9130180158463309 -0.7914421173133466 -1.1674320160896798
Ni 4.147814145416106 5.857166433614623 2.075860966922297 1.0408913173522525 -3.621542013117266 2.8728722537744393
Ni 3.744040638499576 5.0972133158507615 6.498741354051422 2.952548426749844 -1.4125820745325997 0.7099916260463386
Ni 3.0154005298875757 6.397374524035109 12.08506575069588 -0.7480686354237182 2.5540611182019437 -1.6453481574888698
Ni 1.0866975610876275 8.72078102468691 7.5312650620042945 -1.4463172620015154 0.7650970516609146 -0.3585179672438148
Ni 4.6452731711684 4.570506906737735 10.633107336646477 2.5552250566030574 -0.2859930606012107 1.6396001992614988
Ni 8.072446813309053 5.2723032692732215 0.9451674543252867 1.2691957649927432 0.9692411000051179 1.6319066872719832
Ni 8.478952579794758 8.336950195862899 10.48969563257258 0.5103220685337211 0.3687450442884617 -0.5541511499035295
Ni 5.018897930742614 1.9714989795088484 8.222875072627081 0.7068430531150279 -0.24882339352944885 -0.338555665189275
Ni 6.494703055629769 7.0140764931842945 13.407683127992224 -2.301131930034237 -1.1500145919441809 0.22937402655558564
Ni 9.400850759582994 6.658169169373067 2.614288863479157 -1.3694317643973704 -0.2446669481589141 -0.7104017170005636
Ni 3.302747855849661 0.5768297578555442 4.57615921003891 -1.432571373170333 2.164256425029705 0.3014109378181777
Ni 0.003381053851749667 1.5342435563597732 13.637725299904368 -0.7567525363509612 0.36075534121476577 0.6140395987290457
Ni 2.505106456605869 0.8402796712559151 2.1044586170796395 -1.9831558887685266 -3.988434063357389 1.665883301327744
Ni 2.8922047298631175 2.743808295186907 1.5173974391123162 0.7440317463501831 3.419964182838343 -0.1873310905519225
Ni 5.291626259628403 7.299714983264628 6.121796570478378 0.09864088700336561 -0.8372478627935516 0.7365050989558347
Ni 7.156191547613849 3.8259427011177713 9.26191113534689 -0.10005473663175671 -0.9343645998429069 1.2791001685906487
Ni 4.194919802661949 0.7776602253978923 0.5839768230928446 0.31319353227540253 -0.3175325259703886 -1.9353907055691055
P 7.188941105611358 6.969074018562144 5.1500416954588415 -0.504755373079221 -0.3444548042825294 -0.8679974852715826
P 2.134486243636931 1.975705344756235 12.124875993215788 0.5874543920413496 -0.9698977597525102 0.6871843983438358
P 1.7808323297796607 7.0205832144263445 4.976245574918278 0.2448078446121526 1.009432841732655 0.7721372463371476
P 1.296058124226517 1.2824156047969357 5.806141720890522 -0.5491102450455124 -0.9137268689878973 -0.861995759162193
P 4.218561828762215 8.680426208094797 2.213995936020676 0.03740697989354848 -0.24835108187872068 0.5041071979722608
P 7.050581734438397 1.878048190876623 13.515544473280004 0.4521156353963181 1.2198717219466346 1.2902050202545585
P 5.750777316163427 3.5043529330636813 6.874366953880588 -0.8478642048568172 1.5373391990070429 0.06894644526272642
P 8.344987358032013 4.42353763169903 3.068642034653881 -0.013476180109563887 0.651803961962013 -0.4623812789883843
Ni 1.0361178968294342 8.767755233018772 3.7928072466656477 0.46320146089683456 -1.0304454394285802 1.416053835131284
Ni 6.850178475866487 9.382626306580368 12.708034077358695 -0.6270668642266491 -0.6672876594199089 -1.8747813194171647
Ni 7.4527872435953 2.186202002080244 7.123730238306284 -1.1856883911967064 0.9052406858937571 -1.074327485523511
Ni 8.036655151873703 9.409301046910334 7.714501092410309 -0.07835076929576183 -0.5189846293047256 0.9986228956013448
Ni 2.6796424467479807 8.547681583390446 9.688602760415979 -0.7246790528551842 1.0066727624890148 0.12884826382468131
Ni 3.595606646990799 0.16334123727501648 11.863915158893724 -1.2000153493423398 0.6383172403294878 0.8707722198032423
Ni 1.946317123273379 6.084873509461978 7.14195187454647 -2.552647011463236 0.28992453444513294 0.6436504796169431
Ni 4.826541223547958 1.3897154754378553 2.840208234096374 1.0551303437697699 0.7635970700766204 0.46568206122684314
Ni 5.005349303394447 5.469523586285167 4.412697790899682 -0.5603912172759703 2.5957348437916457 1.0368639413604144
Ni 5.149135636873187 -0.0893007586336881 10.276294893170409 1.0302996578793353 -1.6712569069348315 -1.371863770877631
Ni 7.5660210937816395 2.5374898354858595 1.8649483676776193 -1.2763886831967566 -1.3117369807890633 -0.03479422486104976
Ni 1.4482571882000301 6.148992411860197 0.7285903458088501 -0.20418852842889348 -0.5540524195421361 -2.2842698641715757
Ni 1.5194649427450717 5.8933993878326225 10.056353631376878 -0.33437325167681126 0.3154769289929406 -0.0053386386040940315
Ni 8.539588085972483 2.629973535679512 4.365919817017978 -0.1977538285471433 1.3729469766394804 -0.06884694357038465
Ni 3.098739141351419 8.08164823728771 6.843268957595167 2.365500269007978 -1.801784872454781 -0.5388785400151752
Ni 0.30432676996515107 3.2241977405379756 1.6583501095739557 0.8536579287204588 0.5782539564890041 -0.39091309574506866
Ni 0.7321676341107567 0.3836608841566501 11.810856743686179 0.48210112601481486 -1.8439681906910501 -0.5642427298115767
Ni 4.97885295801917 2.1922768197477867 5.281539433322002 1.4836735911627867 -0.21572275432073815 -0.38329517418849474
Ni 6.44996347883558 6.927292042332525 2.5525867432565574 -1.3138946505620146 -1.308344924388379 0.4517932190598929
Ni 0.14781712053388094 1.1662429324623103 2.889047139165135 -2.0272724194717666 -1.3706779780996456 -2.367794978579425
Ni 5.499033867473862 2.168306171362569 10.62023097660124 -0.893901606731854 0.574144819416637 0.40669941204504795
Ni 8.588083346023268 6.7556385390898495 6.77861205357044 0.803917624072538 0.44740100352946816 -0.8621783074866441
Ni 2.290994954147387 4.982608641275764 4.841147075732857 -0.020821307620725434 0.1273439113650129 -0.7655899321369332
Ni 7.338914927255339 7.339459501327545 8.739507800325107 -1.0339807062753483 0.11586702107366496 -1.1280637987047026
P 1.0503894932044953 7.361880930369417 12.085560561964936 0.20789477363588715 0.4635112788277695 -0.28837878722456783
P 3.1619848473924796 4.496867347284048 9.236021332817554 -1.9837927510215774 0.405913682918959 -2.1727156115406516
P 7.828928310951432 7.802122121707486 1.2568262569281254 1.1724284408630068 -0.03327881665778785 -0.5632628823968107
P 0.3690437649219823 6.98905425348723 8.527096683461048 -0.4317820660452886 -0.15381084730728994 1.7506487159005977
P 3.963663606137111 3.725797407080665 3.907017574498702 -1.0442008413414596 -0.8369059060731007 -0.9133815698333367
P 6.886636771079883 1.3277185340796132 3.892313135628319 -0.5466576697399617 -1.1605296325428915 -0.25003618289062746
P 9.108780661925742 3.6947566849649074 6.183320295746289 -0.12092103855780466 0.9343278330677006 1.4116029984487817
P 1.8012350790711134 0.8951455090306977 8.869053521815653 -0.21747624667673518 1.4807103947694047 0.332555224631466
