# total energy = -340891.0196154645 ev
CRYSTAL
PRIMVEC
9.02626909740960 0.00000000000000 0.00000000000000

0.00000000000000 9.02626909740960 0.00000000000000

0.00000000000000 0.00000000000000 13.21085721332027

PRIMCOORD
 96 1
Ni 6.094455799832941 2.04619206806893 11.075468025627409 -0.3458833091989398 0.35212877588801933 0.8625912266543467
Ni 4.5534640248909195 0.3880465385342193 5.992392162268118 0.46236739503131336 0.45844260605561044 0.48444751475980435
Ni 2.82364269604118 1.4901016685877349 4.609413355191922 -0.3992676383573511 -0.00159305551873274 1.4924575080030038
Ni 3.400845539432038 4.447640043532694 4.98867101530167 -1.1974385897540991 0.7035396997734077 -0.9439468442147034
Ni 5.246148957798762 4.394529474928822 2.799538946483093 -0.6488505357606439 -0.5409040550856361 -1.2687471074910988
Ni 7.355245096669933 6.04916198044915 2.442396548803044 -0.3507000138612928 -0.5325425704948182 0.8755773545013695
Ni 4.874537450419188 4.469962007529529 10.837117650419312 0.4526730505616849 1.0239346348932559 2.1549282056502435
Ni 5.531144384905944 7.626674041008315 12.430518652840034 0.9659449457523491 1.2272114501411575 0.07806203441074944
Ni 1.8797386357738917 6.494788896148193 0.338283813216407 -0.01983014735204972 0.07379708848680838 1.0685743850898177
Ni 2.586459417454513 1.5763657243571443 0.4177673354822087 0.6524953316020826 -0.5286329510277671 -0.09363443492770972
Ni 0.6841749662049661 0.1131325516163073 4.6582933113714855 -0.7231662157550836 -0.2059008831343099 0.43730993784205335
Ni 8.42743049633189 2.2658553579302203 1.4669601193378015 1.3072956571882584 -0.08298775384714094 -1.0127320813092173
Ni 6.859432123622568 0.9191720823654166 4.856350420392006 -0.10931559310839238 -0.08417971727271309 0.16215896216166914
Ni 1.0909058822051974 7.464156062131239 2.681341755158486 -0.08236606110274201 -0.5104177135713209 -0.20758109905021024
Ni 7.3511110653272125 3.682013828352945 3.816669519132395 1.3944347141996114 0.2115863635548614 -0.024285354909925914
Ni 7.515930742877638 3.5620095779130265 12.539389000089457 0.7514784324362155 -0.2351448676010918 -0.3061857334990017
Ni 8.012285292083437 8.76728758828855 7.001186072585242 0.23330267218603049 -0.24240412026666638 -0.4445923304360795
Ni 6.676568933726945 0.6922381325771345 13.558171380021987 0.1603638179344593 0.7071875809386401 -1.1487892041775118
Ni 1.8369721717961307 6.268536429692608 9.324553208033551 0.6339365947632889 1.174918297164396 -0.12052200334717308
Ni 9.134042962780825 4.75042624744447 1.3528310675899735 -0.6734490510356145 -0.1309938494127744 -0.27439481424065
Ni 6.31790109653397 2.2311403261745286 6.839828871941078 0.5829282220362219 -0.3497325077417009 0.4039596445163818
Ni 3.202348851096254 4.434172849726274 0.492456103491998 0.9044379874868036 -0.6733071261411113 0.6029481168015745
Ni 5.954765256033906 5.646102950803109 4.665903359024429 0.16172958793373435 1.6657318633515439 0.3054858792184997
Ni 5.451821530233811 3.2160417016353557 8.907328351336707 -0.04263248995854593 -0.07711715399897687 -0.0179090190699369
P 0.24304674312865793 5.459981277687567 12.39879943986742 -0.002992506969420653 -0.034038577641947836 -0.012986899177971183
P 4.203091329191309 5.98605933172215 12.642869761935518 -2.198643130039691 -0.1336045475627441 -1.0603324567959995
P 2.736764853958877 8.623453986877486 1.2875160802557655 -1.2262136050042622 -1.3897105692510645 1.3134017700859961
P 6.340900030728849 7.971910789472099 5.7988400642588465 0.09293792308131736 -0.7603641649616195 0.22291284431127414
P 4.501987211031659 1.0400879860053673 12.599920967317752 1.3147140611395165 0.4348362794905802 -0.21399625854793466
P 3.957892723459802 6.132293920768943 8.341982415307855 -0.3413985339547088 0.20815059840043507 -0.41365810275106824
P 4.8254525979263505 0.9774817820902659 3.8370670825129234 -0.004288600073024872 0.9494518331933325 0.29149702113857545
P 0.18704957360032654 5.411067924311568 3.675841665400646 -0.30660636597618807 0.9543323012140854 -0.36467370243256547
Ni 1.3695377894507665 1.0056888736754293 2.580952490550158 0.42501055164941004 0.6561583822759668 -0.6055192199628604
Ni 2.0267224051731874 6.380561458064915 4.904966809507797 0.5028964654936113 0.7248603156280548 -2.7608423470586776
Ni 6.061816810017918 5.750708385804855 9.067747722599849 -0.46137212099757957 0.08078431843791893 0.5306219564333378
Ni 8.565261628653632 2.311961541551665 10.467477480256443 -0.821822529377417 0.4976485868311107 -0.6035204443652767
Ni 2.3689985373041917 5.290422808750835 6.993511035793285 0.7337614747724266 -0.6518299301039419 0.923087741377507
Ni 0.666955552247521 0.11730268803625783 9.170475693585685 -0.562731949594005 -1.089377437878098 -0.3418083677986178
Ni 1.492692207878916 1.1971270194129418 11.077594614676196 0.524802007317451 -0.6945500946802877 2.1423773655684264
Ni 4.737699207721244 6.654833677235081 1.63744648875932 -0.9395242896669754 0.6501008632279771 -0.19059047802948467
Ni 5.323937346688662 7.930534370967655 8.000469002933315 0.6952561196083769 0.6353707561066542 0.6367990039127485
Ni 5.008577549631883 3.054119456532558 4.884107101138737 2.258385025985014 -2.2117976651437776 -0.5292957814227465
Ni 1.133329347949283 7.259864508900199 6.685116810760913 -2.566401384934851 1.5358633857924646 1.5317015411052912
Ni 4.874600634304339 4.803374343200812 6.849842615110543 1.1899458809214798 -0.4549075963191585 0.6224604758028893
Ni 8.118262720019887 7.292819418140977 9.234151510413696 0.6219709377609804 -0.434144138519562 -0.24187318746386086
Ni 4.477751677941687 0.2621084186517132 10.527943555718794 0.04566613457854715 0.502313853517264 -0.8697934008297407
Ni 8.288940446350718 7.19534473589196 4.697238955551486 -0.4443922986101314 -0.35394397471988726 0.414349472391138
Ni 7.215410132561981 6.361516029826613 7.0907826269828895 0.22785707569042696 -0.5494830550038988 -1.2329067007537218
Ni 2.0764300702482252 5.298754055321429 2.6360416173861796 1.6658426778977957 -0.6999846354322977 0.09847325107724976
Ni 2.242802266119498 5.108263667861177 11.589066359717782 0.6531144532433203 0.3849026278849307 -1.2399633504901872
Ni 1.1833078011035385 3.1958950685415686 3.855139478919904 -1.0849173452242156 0.6365838025781488 -0.3312768721396746
Ni 3.498437563182049 2.664076307227574 2.764292267465204 0.02363743691328187 0.7008076455542253 -0.7165723645876497
Ni 1.1331217437552163 3.4352265992233617 8.05308763985994 -0.5690874594983877 -0.44825486688933125 0.4221905657021116
Ni 3.7933348077192868 2.683771626855999 7.027965208365997 -1.074409760824672 -0.06171958849698403 -0.5791129620551898
Ni 4.224294035794045 6.999429560578051 6.112835089396369 -0.48995790305507236 -0.0721559533389596 -1.1255888548016486
Ni 0.6078037015963049 7.546990135563893 11.392607802991577 0.5708818323946491 -0.28927275979374695 -0.10570550715963085
P 0.2223422865916828 5.637744625424593 7.998711588299193 -0.5309088915461373 0.5102631902713276 0.5388196617527817
P 8.381757573637193 1.4756776902347455 8.195593477055908 0.5035333277466618 2.820652120127458 -1.3662862767898534
P 1.7467816888780663 3.2396634484124345 10.347391090765829 -1.3199138601729008 -0.06185122897884187 -0.7588950366152607
P 4.077192924893755 6.026722674951321 3.6172783275082625 -1.3046669613161594 1.2226104610340363 0.6584433216554015
P 6.951761832366452 4.102249848490687 10.328565903498623 0.6468864700557375 -0.5261523506977583 0.3273117168443395
P 6.13276328677292 7.699173036084165 10.117284407316047 -0.39194462233337657 -1.0924221382416928 0.7035098749767368
P 2.4601367784995176 8.713960389221304 5.787570767028742 1.1407719902999902 -1.394209999783315 -0.09884246149121041
P 6.841939213705113 3.8497850959668423 1.4328760238066862 0.3948268289771781 0.056702337788050734 0.13865830793656764
Ni 4.97045058807805 2.743218636513562 0.8313582161559517 -0.1272194699720067 0.13895784145485746 -1.6815986551804716
Ni 1.226191606582294 1.0489698350037036 6.899739831841035 0.6626025952394137 0.5475375012417538 0.6908222522067392
Ni 6.822180710191538 0.5222689683869214 9.232487066353439 -0.7505278955974881 0.7937131727357105 -0.639395303885015
Ni 2.7707848629779104 1.577141983517568 8.948123478097765 0.5225024126499969 -0.09527171342081657 0.575472537089125
Ni 6.337524206007937 1.7966879318778641 2.434364974373451 1.0412672126344327 0.6578023456372929 2.125811233679629
Ni 3.907932322844161 6.935857545847073 10.577880488034237 1.2592227129404312 -2.0068270071332215 -1.5215048030779472
Ni 8.247536949038354 7.032005366507923 0.3949516345542672 -0.3202887485592871 -0.7681296678396513 -0.627920470476196
Ni 7.61992239156649 3.9729575669336064 8.05735525998841 0.7199975882191149 -0.15183418319689335 0.3104609638355879
Ni 3.141899925545586 8.116421361081207 12.390040348131661 -0.5415566010679707 1.3618902046046868 0.7275342629157922
Ni 0.17345781727746615 4.8847732398136126 10.113307433059273 -1.279025092378339 -1.172165417009607 0.5661754280579152
Ni 8.673784464534725 2.66333615314438 6.053967566228331 -0.9010441313139063 -0.39513638979779686 -0.7965149038505638
Ni 3.4300003892944626 2.729227919087321 11.485360843765969 1.127121232285775 -0.4106329427714992 0.7298320578110334
Ni 1.173938533562611 3.2403404186104785 12.7243679475107 -1.5821386147099203 0.043442387454350986 -0.8738313183445401
Ni 2.8470568386241917 8.137786540531472 8.052599318690419 0.5962825318559407 0.8119816320275951 0.22232868967303002
Ni 5.9341673094747565 7.972930757903818 3.6013984119160134 -0.5766087075760973 -0.4068500786902993 -0.1271958158229229
Ni 3.2848038212180035 8.21404046363914 3.472209932455966 0.3037367577378769 -0.2706068079531275 0.5874461645112334
Ni 3.277185649922682 4.2046528737814635 9.226146112165095 -0.003996008533270537 -0.040819605119523254 -0.9590451333087225
Ni 7.406053966600457 6.161286297783836 11.411486245247694 -0.25632355856123595 -0.6431213465863506 -0.5796261542461825
Ni 0.7130761778998571 -0.392820532370825 0.5073765266568859 0.6126581450004868 2.0964538635634344 -0.2230455132343965
Ni 4.705466400025046 0.33987965762992917 1.7925150875771214 -0.7282870819214167 -0.9700468837358649 -1.4955094074554502
Ni 6.068767037384501 5.403016492089499 0.08692207080190827 0.9404174909052061 -0.8292409333286751 0.6811675027257946
Ni 7.52269141858877 8.786811408800137 11.343093300079714 1.068267138262044 0.5226921600632998 1.033583985057562
Ni 9.235859280566629 5.074893550232265 5.911502347244246 -0.9118034267129393 -0.9702831681163872 -0.8111791907309578
Ni 8.212135920815308 -0.28702814295517515 2.6933503038448547 -1.2000806553626366 0.7068579655133633 -0.7548509484528743
P 8.428071361452705 1.7514031387633797 3.645668652360363 0.6921934215226532 -0.769068891824469 0.10779452847817564
P 1.719892432611762 3.270488158096701 1.624208562193304 -0.044380325887588085 -0.8970023571443649 0.4840124841049148
P 4.94443687993455 1.2224095997425553 8.26208368465392 -1.2683262179035963 -0.8864117261127121 0.08845931848467346
P 8.75155480088601 1.1771609117053 12.547421477145981 -0.33482833693635883 1.1241768049454706 -0.11550860929298173
P 6.5683078596557625 7.8494604200499145 1.348168096865847 -0.7224874445205042 0.01031140922833708 0.7311847151841859
P 1.8334880318435314 3.1870583508897687 5.911660306957123 0.3394984887185185 -0.24177265733025463 1.2530109277027646
P 6.886140854502727 4.258620937969525 5.891646360022153 0.3474894773437951 -1.087677681578172 1.7275578955194055
P 2.3765625509836688 8.402436756620109 10.255324046458787 -0.34532949357799875 0.03584477761275118 -0.2536840640558599
