# total energy = -381179.434832193 ev
CRYSTAL
PRIMVEC
9.15952316524669 0.00000000000000 0.00000000000000
0.00000000000000 9.15952316524669 0.00000000000000
0.00000000000000 0.00000000000000 13.40588801112845
PRIMCOORD
 96 1
Ni 0.39949900764342383 9.049288148222663 12.003350644122106 0.46846553750925124 -1.7860476642251821 0.1802101632364251
Ni 5.306752844924431 7.116418124585803 5.704285302978118 -0.9780625549514897 -0.034503175983192184 0.21196688682273174
Ni 7.916484140255339 8.558236960261182 3.1013448780050585 -1.516787085887304 1.301186716077043 -1.0944180856257992
Ni 4.553876691790149 4.428134759941551 6.185181327781052 -0.32939636728751015 1.3328735056573626 0.06595445251393803
Ni 2.2106508778889333 8.05987647293962 0.03808346476107979 0.44108303173124036 -1.0568326711728573 -0.19075965661749728
Ni 1.7643805979117027 6.892770051308761 11.445183051322294 -1.28554540999536 -1.3085141029763916 -1.5375351170679326
Ni 6.5227161622779315 -0.023238625822631087 4.707852853309734 -0.9747296339235147 -0.2534025282596991 1.3997918647464664
Ni 3.4302871639684893 0.7401663990089086 12.796898743219419 0.7006945170151287 0.8438908220313659 -0.9133334902042207
Ni 2.08592565309418 4.639655624756504 3.5009739508751907 -0.05376279554375257 1.1642068242841626 0.8833629119840594
Ni 9.077114779119812 6.905419352582284 12.912175920031812 -0.9707601077528057 0.10363885443858926 0.2902073557928744
Ni 5.663791051761432 2.3843062745903887 5.750120472060547 0.3345804825916109 -0.7966943668512214 -0.23376212832095225
Ni 0.032322124789287206 3.877739022413703 7.489654947861781 0.48699470666169037 -1.4842752293025276 0.37440404234645197
Ni 5.590359155809349 2.7266617660461776 3.227052003666228 -0.019855344163030322 -1.6888861899808205 -2.525628059672231
Ni 2.797281688434923 6.188732474851106 5.404288941623365 -0.6767567752526087 -1.5295307587062175 0.31257389641353267
Ni 7.940601164334401 5.027021012271735 0.5397358846515801 0.12192248323912552 -0.10518974386547691 -0.22748503706298884
Ni 8.54600899704601 4.819466220919081 3.446091004965836 0.17606888737454193 0.3125584697945649 -1.4897138838195958
Ni 7.522743724726806 5.092612356529298 8.879443113092378 -0.27907782153861616 0.49837800879796745 0.4243014413975273
Ni 5.832738453636972 1.6795267767691169 13.060739719406197 -0.47313826039457224 -0.8505628347349029 -0.7277003561800113
Ni 1.7074083648043101 1.7825072939437814 11.391693268862396 0.5119678316672602 0.8308378455021498 -0.7321517070831455
Ni 9.086631523524728 0.617536873078299 5.530652805084182 -0.5581918956318065 0.15260525703496297 0.31297447428606096
Ni 8.469142279966068 7.232322728724219 10.094419033865657 0.2538139047655048 -0.2832810609866863 -0.08034543112828743
Ni 3.0293473633559675 0.2559500471157124 1.8079854231417753 -0.11722636331503682 -1.1545374195151987 -0.2646025107405765
Ni 7.1572329591077555 0.13181561155495103 9.775264614188169 -0.4952160661302182 0.1394563783578308 -1.0185216914078008
Ni 6.927832705381928 5.418553982755432 6.424034209250743 -1.2767836046423302 -0.11530523503292399 0.9382384809760164
P 7.143127293676022 3.342951112090839 12.21340690120814 0.22462262791352927 0.7045971945036446 0.6653493047466155
Ni 6.861554396898795 6.453680837369504 4.090055849778019 -0.3561080722507416 -0.44046468142095113 -1.1540867051310253
P 5.187330983951089 5.9797121598172325 7.894620358836152 -0.062413529240215086 -0.7092922859864688 0.27358465963452877
Ni 0.47938928326818064 8.46732869441056 1.4555581201868082 1.0173569816757382 -1.3670300969344136 1.2653020863652917
P 4.202398315418772 2.0217265563337765 1.3866116426515551 2.0774780937918806 -0.007868604114799352 -0.6910330826659647
P 3.842859558800688 6.728429889506055 0.7092704119519077 -0.6660301328637239 -0.8398192230651537 -0.7421314440036767
P 2.303152900742881 -0.2464287229492921 10.738009254186828 0.6445735056518447 0.0963492627557115 -0.43084207072952246
Ni 0.8357222068335968 2.707545841529276 3.9456880278934263 -1.4339777665995563 -0.6907731441363587 1.8520818209371201
Ni 7.627482870318933 1.6327765713382276 3.594400169600607 1.314855214703071 1.117072075579889 -0.5052549384234589
Ni 0.19523431695510596 7.220616858320481 3.748446859447351 1.4604053646634656 -2.763662590116292 0.9647439834657126
Ni 2.18623158955062 4.744797789360967 7.4841583181049085 1.8472612596200253 0.8621749650525344 -1.0503334366017587
Ni 2.4091194224180295 2.4788966686900737 2.3586046530310085 0.5569017160654731 -0.21526586928897765 -0.2518012452108502
Ni 1.4055929221802448 9.295725114742662 3.775969394180646 -0.47551807348065855 0.9601689625005204 -1.7116167988091169
Ni 2.1323461156967953 3.1882742470611705 9.290977733967814 1.3702182648544081 -0.5773558701547671 0.07121570091287735
Ni 2.307045698021119 0.5411079811981214 8.282814683183572 -0.12231046270616355 1.085698446364614 -1.1267939308533432
Ni 6.493946100510999 2.699293111299411 10.221869216755177 0.3118449886673081 -0.5002767684825771 -0.9158750256791517
Ni 7.0890677888850515 0.840076644071419 6.9002387263691745 -0.5466694968145036 -0.17902514178938844 -0.449598011180787
Ni 3.5831138053506186 4.661382013330577 1.5958096524317766 0.4455097000440263 0.42119092079300363 0.4261235822079306
Ni 4.761458961711827 0.1801430868477523 6.647470697546308 -0.8504147391928129 0.8248790568155535 0.1416490151337754
Ni 6.024758693968704 0.5899941873943876 1.728689600560213 -0.48596009474958884 -0.004188327049734723 1.0448361609326133
Ni 7.142531924680526 2.9409762853784556 7.761915357597161 -0.7037487304604202 0.02014407904804273 0.4242235369717404
Ni 3.463746901515323 2.557723523693646 7.183651771318631 -0.07175871790054093 -0.6858931903362381 -0.2540712721919495
Ni 4.902827039811425 3.930726863012781 8.674882569810915 0.0015632307220618238 0.7155698914650643 0.2359748197015549
Ni 1.4829176154105672 7.621171958966683 8.991811225397552 -0.08464328717269294 -0.5199937872955303 0.557409251829511
Ni 6.180809487449515 4.900848582841777 2.1403835971359815 -0.2577214673500271 0.4397028635542621 0.6645152388810942
Ni 7.21923377034633 7.296650058806729 1.2470800489149854 0.9298489713607406 -0.09103479252133355 -0.2760642315232729
Ni 3.938594893276326 7.461265006299664 11.545418459451573 0.0659901908478799 1.1977538070016729 0.24097792934310114
Ni 7.797282107834181 3.60430894159025 5.2661944770466915 -0.17778998383070668 -1.9965690768506388 -0.08405167633528104
Ni 3.5448086801327547 6.0008523389188175 9.7194025152693 -0.11494888013476977 -1.0990751247818362 -0.09463536538839831
Ni 8.064538670150498 7.448927128808401 5.788715954157753 -0.543096948971897 1.7903285509887232 -0.06081661706674042
Ni 2.916831782730371 3.1061499637748557 13.335345882983827 -0.2882633446926261 -0.014986446106503225 -0.9411091176555921
Ni 3.415457896219154 7.259187609705567 7.716790967500124 0.6079980205206561 -0.4168233878529273 -1.6683520745832108
P 0.012928666725254731 1.5580898207340994 7.610267546826113 0.10468606475618099 0.8106156049180041 0.15530183003051964
Ni 5.360500925933141 0.2383600991318802 11.26183046761267 0.2598732235857073 0.718978145815665 -0.4492920499045939
P 0.2284238485732147 1.6627098925271278 2.062911435585236 -1.6077630001462442 -0.3806531085799574 1.6370869459213417
Ni 4.515296780882056 0.5090679697174689 3.590230754727539 -0.8208084862906058 -0.5279685779708908 1.1973614566592605
P 3.4335387946361946 8.131897802348531 5.099747624952233 0.13144790623105748 1.1180429241335907 -0.27140642103628737
P 0.44218146890662935 6.148082511743292 1.7481682421882163 -0.575982386846008 -0.09061595981636007 0.020999227959486416
P -0.44226848437520166 6.500650871352576 7.617507233811335 0.799540578050765 -1.0579467301726426 0.8674750371092091
Ni 8.193742901695977 5.06324692576687 11.354988312313965 -0.1051843445488382 0.7727946774154885 0.17870143990138257
Ni 5.157837319866554 7.370338421403027 2.1723842226677013 -0.358476315372602 0.45488368505975846 1.4268516970777363
Ni 1.1715029926745166 1.329687955016103 0.2909027869127879 0.8117090950924989 0.1600059203744083 -0.4608581574756386
Ni 5.156014574788038 8.342896574352052 -0.08102514052540088 0.8124907104535297 0.06974425857367343 1.2172242570214586
Ni 3.6608781556853067 2.5916045992988304 4.4468540771122225 -1.788838853817074 1.0116992691693287 1.0704281504691049
Ni 3.9948893216811543 5.227440535201454 12.351367636748902 -1.2354034990336467 0.1583313608854628 -0.6809888110560852
Ni 1.0199953226054845 5.292024331928179 9.337468724897589 -0.836792777534004 1.4756653761463296 0.9983344178266483
Ni 7.9966574451410315 1.4065821506650675 11.586695849885409 -0.2907488301186412 0.9840074596810151 0.20924871656062027
Ni 5.804362251359367 4.9401520960674725 10.801807163839499 -0.23668290151217306 -0.8513768459957659 -0.5288653787535472
Ni 2.4522332972148937 7.325933053862088 3.2219043517359456 1.2084359693058673 -0.47973031178979314 -0.8223030685582612
Ni 0.6937413566447898 3.810004349772358 1.601105688634782 -0.26822493798451225 0.34579409191924315 -0.23685310854145017
Ni 8.546329580351278 8.618479143082295 7.895812928731744 0.9748905849814112 -0.7540973581163013 0.38937146228956165
Ni 8.022102600056197 0.4281747263233778 0.5053775978976991 -1.347676632108466 0.5801311189070589 -0.7386565980811988
Ni 4.212373035974069 8.763263723263734 9.21853231864365 0.4973128007582468 1.3163618811555846 0.8184333011902097
Ni 1.872920945551992 5.45353420112153 13.495840877027934 -0.5530414617791185 0.4671604455445825 0.3988868579791647
Ni 7.308465843486558 2.7793748209550273 1.1358431377012528 1.2498415288358473 -0.093708996919387 0.7149898505918783
Ni 2.391817083456637 0.788908800693955 5.66775437736683 0.6929704088979937 0.6662250224833494 1.0102309121539181
Ni 6.245933696033689 6.367269897315623 12.527050951844245 0.6051749492495642 0.3432353300531315 0.5373988701458552
Ni 0.007222283891507868 5.373910467616295 5.726593321263175 2.7041963164298592 0.9405617297925544 -0.6849902189059944
Ni 0.38108012282740206 0.5998104482016532 9.679667588509947 -0.35612169909749636 1.2001765575105523 0.06415210919787662
Ni 9.186909981412146 3.3822546253165338 10.08676442048819 -1.406300355288946 -1.9971614590189992 0.27076107414280465
Ni 6.249505910006661 7.8421546110485085 7.857405216856195 0.5480501792121142 0.15724404135855502 -0.4311004665972317
Ni 4.270645921348543 2.8684695012501407 10.985923651767957 -1.0912862248650366 -0.14438955399339004 0.34309109116578335
Ni 5.7108801595436045 7.163928570426324 10.050943357909992 1.3714454523932895 -0.5404805943949724 0.32475552608138913
Ni 1.4536529394012234 7.819741258248864 6.52491353184746 -1.006093750057093 0.21026250253711531 -0.3032762731616906
P 5.867059186346522 4.289019924501828 4.450996013416267 0.7917015416223204 2.229407407805741 0.7561987207300203
Ni 0.4866903390575541 3.5079873976421245 12.640129843134812 -0.6138354531380397 -0.07509292448009647 -0.28041968027849123
P 2.075960092061891 4.280409972874666 11.304621927199667 0.34074135998668414 -0.08085502377485429 -0.35604533733360616
Ni 5.353219105142084 3.8711350063252095 0.10612589737548099 0.8986324365486201 0.3056599429025187 0.34925968187034045
P 1.847585704912917 3.652533830225366 5.694539570498011 0.3218764047613812 0.16860291801479993 -0.5340476942854351
P 4.821032499353382 1.7728989543087887 8.842041116843065 -0.2251767006447864 -0.7808620278046552 0.24924531155821592
P 7.324146946875603 8.124579343465443 11.716772983973515 -0.2692826898250653 0.41501281700674975 0.283542285067873
Ni 4.323606283378599 5.703836486350745 3.662730211237448 0.7433478329092811 -0.5739656135262954 0.5122246848730726
