# total energy = -381169.10931244626 ev
CRYSTAL
PRIMVEC
9.24786885007751 0.00000000000000 0.00000000000000

0.00000000000000 9.24786885007751 0.00000000000000

0.00000000000000 0.00000000000000 13.53519085099407

PRIMCOORD
 96 1
Ni 6.133352926026521 2.668084077908108 2.2336173608779437 -0.7087559538670245 2.005077885652599 1.7207033344914173
Ni 0.15422670486528456 5.8678651138737 12.797549231837511 -0.0030339017303173555 0.22209909016072718 -0.4762631791767991
Ni 8.55334443264357 2.0383874561546693 4.997814537284877 0.01688417734984834 0.9639171166890432 0.5837005814258722
Ni 0.7193186412725341 6.452607846297514 9.57084117683035 0.042343497963217396 1.5456438622179962 2.5599152629898754
Ni 5.887211655012885 2.61178305378987 12.418388468262785 0.5988279239856139 -0.18510888608962314 0.2959128908180839
Ni 3.274707267471171 0.299215713772667 4.558949533942191 -0.692879134735768 0.14017654435330698 0.07823944052887816
Ni 2.682973146375644 3.429461100847418 7.929983525677156 0.5808286591947157 1.2668195514510827 -1.0073386782077876
Ni 8.02412590337447 4.218701951918833 3.4732784271244586 -0.12698498536369743 1.2994602203042396 0.8971576517753066
Ni 7.155455108782762 8.062892968601746 0.4312909989483302 0.5108442595857783 0.10456985089329086 0.3848946574651307
Ni 1.8290249586164327 1.1473923067302703 7.305646043785169 0.15250986910767927 -0.8224035986918675 -0.875312273765441
Ni 5.467321428491125 4.916916032228779 11.640534517815022 -1.0531179413254315 -0.19209560182010144 -0.7854200794889828
Ni 6.3792352567189825 9.48840567601071 7.7021863268450135 -0.2779642767594633 0.4313375223087023 1.122570379690299
Ni 7.529716351566121 7.808382376493003 9.488574912006333 1.5967491655342436 0.35649913704157316 -0.2790850206274677
Ni 2.8171874635615817 9.393892458781998 2.1065220529505844 0.15049206734670212 0.1764021023442446 -0.6623084610377625
Ni 2.542969663437733 5.816030810295723 12.152056325705564 -0.4654815151802629 -0.48781565990108894 1.2043623134571257
Ni 1.431514574139045 2.2993715562927757 1.320477265271953 0.9721711291677194 -2.1669139172572103 -0.06981213569713139
Ni 0.6037249075396309 1.208844393666159 11.257313015132164 -0.6193746377887139 0.7417825453046902 -0.6725681910925578
Ni 8.700755458340796 6.088260318667696 1.538856434708232 -1.2435837208515939 0.5920391831985545 2.074072924765073
Ni 5.247222155492757 5.439587070519608 4.304258608395488 -0.650022701691874 -1.2658972967471294 2.0305341209421743
Ni 1.2541681977403185 9.427647179220823 13.089354628490279 0.7169336045818104 -0.6677489153270435 1.2498800953832667
Ni 6.3404681914917065 0.9752432324922615 5.260993156644937 -1.2264331772142363 0.3986994245587069 -0.10135288661788998
Ni 2.4753030087936554 8.348559630068953 8.329570056658246 -0.17657770869016043 0.19112783859019342 0.19637931679711984
Ni 5.668675271810178 7.853733924173003 4.89888638758014 -1.2944833359149384 1.2812395835311547 -0.37203528500395927
Ni 1.7282971736795327 5.809085660967077 7.546856351254154 0.5609596881849307 0.25037993938329134 -0.9914502891123054
P 6.801307980233499 6.656403126930498 6.781902252735189 -0.39909845976933844 0.2752761884043389 0.13806155489283317
Ni 1.8578043257412613 6.136793133150697 2.5276422459979226 -1.736718736083067 -1.461901746703334 1.7526127816055042
P 3.360804924261709 2.3429567610676205 10.07214408990311 -0.04867046862250973 -0.6601399926315341 -1.7589798614741126
Ni 7.005445432005177 5.782498038703619 13.156909383924136 0.4347488619830965 -0.7499997910081599 0.5278441365778844
P 1.9892165387373453 7.6487364206202795 10.940900889672923 -1.1990110764475415 -1.0210097479369769 -0.0720417963585985
P 0.17112533518250794 7.764630710083118 14.141025946350933 0.8312949876442265 0.21132693924588766 -1.2033246162212308
P 3.7795391672067957 6.926246685200218 5.354047984993318 0.15675193221348488 0.17715157891575942 0.2716959272522482
Ni 3.922612942524348 2.4237276455368533 1.5864459665926691 -0.6341322557138628 -0.2730400999849685 -1.149231433921253
Ni 7.840731420902595 9.417567002432245 3.8061905997636867 -0.21352368978689032 -1.5562236946163714 -1.728729033009371
Ni 2.7954827159259863 0.24165143080184193 10.48012213686398 -0.8650687416605618 0.5203180034041683 -0.5941156061116091
Ni 1.2817360940767948 2.2237887261156475 9.24284332157227 -0.9069694956594059 -1.0131884521203454 1.1011286648767553
Ni 0.42439116417588973 -0.3820747669748003 9.462506095172087 0.7894374281784919 1.0111454535483877 0.6594373101375546
Ni 7.775663417338877 8.6249876707914 6.020642677727268 -0.19349505327078934 -1.4636007316723116 0.6173547791452078
Ni 8.389296491310878 2.1321515960256967 2.6144029749680393 0.8228468568768732 1.1138042034618947 0.40827781227576143
Ni 8.714201859304646 1.014916588843648 7.366419337164836 0.648636877087941 -0.7349099865545731 -0.23467024195751843
Ni 4.020723580643662 4.970599909529431 2.2993983751117546 -1.6858947114526643 -1.0824084627594326 0.4334656243952986
Ni 2.7224985368292165 5.05601322404258 5.481671346218502 0.08331685505178553 -0.565471202902039 -0.35138881239820124
Ni 0.20633659492794001 7.779741727397375 7.510027639288241 -0.5528558281308737 0.8610840459812009 0.06700037727994912
Ni 8.257033474402364 5.697648844175887 8.134121902235696 -1.2931803008327987 -0.4287335090269519 2.048174973952389
Ni 0.6488452585042963 0.035799424189242854 5.280727183479022 0.35886429483964005 1.359275135579343 -0.12120823078092027
Ni 2.44861365997545 4.106358844003531 10.3285958096338 -0.9184183609262958 2.1101195339759853 0.637696061805721
Ni 1.7000356871970532 7.3536184374302005 5.789935174642496 1.1591715758531005 0.10646629658505537 -1.2894609429996824
Ni 0.7183115483805372 4.258846949569501 1.7212299524851902 1.9104101243643679 0.869795971932902 0.4324412968958424
Ni 2.717717388756101 7.286016517866416 0.9081434721941838 -1.2637226576933138 -0.0503429712289262 0.0978556720979089
Ni 2.650966273104747 2.67633317671124 5.751981921853198 0.33828389958512706 -0.9247437889236914 0.1273747646029484
Ni 8.91252240171851 8.009088869009119 11.733683674423261 0.13476668619164534 -0.050701383009609455 0.04690540630228696
Ni 6.890771861199306 3.453782995300599 10.115457407340722 0.021299532808724604 0.18525312497697127 1.0024432977886995
Ni 3.332182770903308 8.18581563821075 12.574489716096002 1.5353705053164461 -0.11020930856725535 -1.9318790928714211
Ni 4.111241718631394 2.844838590715578 3.999418340932165 0.2411972444427588 0.1000339106961503 -0.4708738898404278
Ni 4.717347027552108 3.9088706097648704 9.182922681678757 0.17273468079498638 0.22353453705567308 -0.27001365445381886
Ni -0.0343058934081825 4.2120804779916545 10.529958900821466 -1.1501315771380192 -1.2518511030667083 2.4086444084956193
Ni 8.89400816875453 2.01442622857741 13.180338859056125 -1.5667611038125857 -1.384838585870744 0.49897784716549554
P 3.331646394523732 0.9357918249875963 13.215543645293527 0.32098346063346656 0.8442253225526493 1.3281264778906805
Ni 1.35873384815177 3.424115832788886 3.984949125699676 -0.36972026371753747 -0.4526689367966269 -0.47557180953672934
P 0.8604337180177729 4.534220733270021 8.821235765849007 1.0873305826513984 -2.486954297251117 -2.4213047775721073
Ni 8.039431125929609 1.3290851813772842 9.665249893143729 -0.8967473037107653 -0.7665250423566927 0.29436534382530594
P 6.1669596805675315 3.2338039445942055 4.501682107553855 1.4758826343634583 0.5208682194806836 -0.8639297429601122
P 1.3924053377730747 1.165499633475262 3.4010682946306283 -0.2982631362178153 0.5022752869698447 0.4993216036581594
P 0.17632171255636434 6.3334675549513815 4.076961719255329 2.612600509198733 -0.4725762172435151 -1.8832680167319371
Ni 0.43745840252659113 3.7257350676141696 6.367468268695322 1.460246470488098 0.10102481385450987 -1.1376894947199245
Ni 7.982464255271208 3.8843452622021952 0.9708199769344834 -2.312696494943385 -0.2540329627548463 -0.45501532554161633
Ni 3.3110143996472883 2.8731740601469644 12.232847555485746 0.6691257410699121 0.22895802206408952 0.9870896981507645
Ni 5.787898793973831 7.390794869255975 11.919941297017836 -0.1504092778249087 0.012024535264701871 -1.5743553712200757
Ni 3.6700351549558015 6.108300449952883 10.24804779879815 0.21305626323216853 1.1105463586462294 -0.9843129067365757
Ni 5.116743977226625 4.282299544373025 0.5052915188057098 0.7086438537691925 -0.13886451041010278 -1.1056293809605864
Ni 5.34343698054633 2.654850377922366 6.3658304711638936 -1.1459877301729746 0.5639761064137513 0.9231764444365714
Ni 4.330388461162584 8.845595576563502 6.630186344198436 -0.7132152751899588 -0.4598268879976468 -0.31105257467299974
Ni 7.506374731185958 5.735750062863 10.676016963340556 0.2964265972297088 1.0576621090526883 0.9676652708775656
Ni 4.212496632079257 1.3939497318315086 7.9847336822289305 -0.4616338592993985 0.47856945871247264 1.7113537749557173
Ni 4.954240429952368 6.8731546714908225 0.4768275040005974 0.0519599380070589 -1.064288356119954 0.8308440161497368
Ni 6.246306393270305 5.847547546530111 2.4252896105456525 1.5008418754119572 -1.6767161302771898 -2.501202322529699
Ni 4.847751222869334 1.1149507836345447 10.793786720558185 1.1111143153345575 0.1135579133245141 0.11304009314783113
Ni 0.670937491834792 8.26543053910331 3.0054620463007353 0.5994439603030579 -1.0289729686481117 0.33377495597118
Ni 3.81518045284275 6.658715094083842 7.727159271248576 0.7941037233059098 -0.08951501344269745 -0.4319293902564303
Ni 5.7176889754610745 6.321297359856176 9.170863461006913 0.050417276110287366 -0.056293018164774014 -0.6227085872579533
Ni 9.029803871473355 5.961786467511154 6.102449323481199 1.7245368493048945 0.40371256150258217 -1.3815982245565754
Ni 8.620372984353324 3.105794947247844 8.15932419378087 -2.2734203230515817 0.94153694922163 0.9101813177284841
Ni 5.1656282107169345 0.6186047281385542 3.0598062214203825 0.3848496631598082 -0.5100598160112699 0.23326461985924343
Ni 5.076700706130703 4.975778715952923 6.709272267006312 -1.0909193284439211 0.7599000808410075 0.5628368506029855
Ni -0.3109512590430421 0.4173831293406728 1.4559529917367546 0.9394029335977627 -1.3365833504087818 -1.083145083815141
Ni 0.945899745382017 3.641311275042653 12.625815386900243 1.9144693820354062 1.04822076113413 0.08523721200294997
Ni 3.8165491373975295 7.109872364387429 3.086659257513045 1.3758075860167274 2.032902364064034 0.9754482572570943
Ni 7.2471384782157795 4.5973189408190915 6.168473556659541 -0.08938363007115575 -2.2929434806861737 -0.9265846987871719
Ni 6.681344628580774 0.31372931877450055 11.851359103381034 1.3366815665495433 -0.09534961784660352 0.5044283287571055
P 5.65501616986822 8.54063786116879 9.870632108030769 -0.4948422277305672 0.4117529153085554 0.4165225687830568
Ni 6.945047602091214 1.261196577886485 0.8202582024006801 0.24022742433032176 0.018607587798858276 -1.293052774115999
P 6.364031760718592 2.5030003752907186 8.275984206764896 0.2886055585233933 -0.5631600382703592 -0.13528913435401863
Ni 7.502509122105566 6.744711024319633 4.544304609206047 -0.6785678603194185 -0.8393787930936253 -1.5823826123999265
P 6.084857103017972 7.826998336011731 2.5529666094087937 -0.294397482614822 2.578261883817863 -0.01675716485368082
P 2.869336194672413 4.57444896173821 0.3722655527365915 -0.4943094951555487 -0.5499101152389884 0.8414683286328024
P 7.795379873222595 3.7004698905624247 12.349413240209916 -0.4599628993548788 0.8299207330045191 -0.886025289307571
Ni 5.073944841283916 9.261740416296846 0.738891755192746 -1.3046124539291402 0.055557168440013995 -0.6521927127599993
