# total energy = -340860.2259035262 ev
CRYSTAL
PRIMVEC
9.36143772184848 0.00000000000000 0.00000000000000

0.00000000000000 9.36143772184848 0.00000000000000

0.00000000000000 0.00000000000000 13.70141037455469

PRIMCOORD
 96 1
Ni 2.2744454816017172 7.083462707249708 2.666404186946747 1.5023336294661354 -0.19164720142877317 -1.0684247468858308
Ni 2.1566692370335754 4.40824472694306 5.121874592965246 1.5490883691231707 1.319439491639644 -1.096141238964493
Ni 7.767755700588669 5.234513280660406 11.176184865633278 0.34593164593837195 -0.21799998039068905 -0.5194690251403118
Ni 4.999007598711375 8.310428868172377 4.054945949838477 -1.8069394200725266 0.8740784013583397 3.561279725892099
Ni 7.132404302242335 3.3968163018869286 7.202666571029092 1.079079912606832 -0.8199988459051167 2.8452313521287196
Ni 4.232474377367396 0.790168042475939 5.718653124439426 0.3982109149580626 -1.2844184954797686 -0.6511272476099625
Ni 1.9836979572556912 1.8202847051150437 1.619780501650699 -0.018444065637800492 0.4016559360838695 0.15868823000424928
Ni 6.350649383603404 8.564236160337662 2.264418445948197 1.227706901720337 0.09560312861830632 -1.0531061142508895
Ni 5.459243948103598 7.967116872540275 7.180210354872185 1.428630900465346 2.218120779148328 0.2464044996753111
Ni 5.420656102931524 2.7307500272646172 10.089800347052572 0.4761392520044251 1.6179764503441358 2.4093697166974186
Ni 8.6072238811116 7.773934249306177 11.676561186526914 -0.4247004766081589 -1.708376180384632 0.00794753698185083
Ni 7.9221351655893235 3.1697920822682963 12.612531745011113 -0.3346496452666494 0.13487827206884512 0.7136449065282097
Ni 8.749227525802336 5.446428140233494 7.875446868591096 -0.8862065520804414 -0.5464093011745815 0.1889524282054294
Ni 9.181342117092445 2.585048614780827 10.580845187095282 -0.9026464428040195 -0.2690780300134269 -0.17883873681019524
Ni 4.918602212446708 2.1240446275176406 8.09842413879976 -0.26014833162396483 -1.3036480331333418 -1.7986147022569154
Ni 3.740549562204315 0.9712491355174254 10.176105311198716 0.12800339932588278 0.33547316960920937 -0.8326910966608045
Ni 1.0317146600119511 8.390637664250578 6.777237918366323 -1.3068403148183945 -0.7918786906301329 -0.1371989497822218
Ni 5.6285642672756815 2.4098212285773073 5.763169567949074 1.0829918460667285 1.8844126718593417 -1.065573393479965
Ni 8.966993283782156 1.7621689014206612 1.1748781868028373 0.9612745368598735 -1.6896858030639803 -0.640433258231226
Ni 6.501340442248455 5.787090849067027 2.5729330424320405 -0.4980579064543874 3.6801551947747844 -1.596645550076844
Ni 0.9949242108304237 2.406160906534056 12.597911988144244 0.5808636261977094 -1.0071934108791751 0.22698752860128005
Ni 8.933900602393683 8.871852994969977 2.6464409215829794 -0.15242682247556974 -0.11319384511687601 0.17424057591655154
Ni 7.810237903740266 7.578869977144476 9.191180051709459 2.1045633800444468 0.074870009836013 0.5484492144227459
Ni 7.312415382983199 1.6494197487635829 9.283540929742506 0.18535956864784853 -1.0349160736054241 -1.037079142695014
P 2.0871980097114085 4.831063410844554 2.6173259149673385 0.3572475851718234 -0.15850388190758508 0.9733738912265687
P 3.914325925602965 6.339836923347764 8.403869119943497 0.16859289071247094 -0.4496054673799547 1.3991532027212032
P 9.587516165206468 6.193283620055953 12.873721466750077 -1.6207306160505053 1.1668352630459453 2.7749147659913436
P 7.451395283377336 0.30463147222926357 0.564288726657536 -0.04680024818299037 1.0606597582284314 1.0583169690278678
P 4.077514503244794 2.4541757192190574 1.2633128779690297 0.0005656426954828968 0.8405684425263523 0.08906275639662727
P 7.681696006103737 3.842270941544386 9.444464039521248 0.2712274722562619 0.46468678719310935 0.17789771305316457
P 9.628051189368307 1.6189014626740716 7.603830377819464 -1.425213647253681 -0.5777623615645662 -0.19490684601665142
P 0.7662907601140041 5.782719057777517 6.203943488881146 -1.387789698079268 -0.31040028580098156 0.04287931586202938
Ni 5.737737350826566 7.2591300810134145 9.6662074722739 -2.515754766422577 -1.3782707028452392 0.3616308018411836
Ni 0.9763323960531937 9.577031355261608 11.209630473213645 1.3919384301403188 1.7370455232948663 1.4555194973260739
Ni 0.6221695582719042 3.4340467386286426 3.536717367726221 -0.7360361297392163 0.6582733717364405 -1.7134898474621134
Ni 1.715342991291908 6.935149453717153 4.769844290635242 -0.210383858606328 0.5049746881788787 0.4509072169105138
Ni 5.720624643166557 5.792894940286505 7.34446239180842 1.855317040044966 -0.7729445727297914 1.9102530299612137
Ni 8.552506279211848 5.0903565053559925 4.416663467642539 1.267707096262359 -1.1858763388377964 1.425243729160668
Ni 5.409122811992174 0.8799713757974341 0.25629837067093614 0.12607584328586674 -0.518377848958662 0.45346726432820617
Ni 5.03211900297475 1.1477871229640528 2.7610118099679775 -1.3585858228218022 0.7542660224836816 -0.19887328686356717
Ni 2.28869358940179 2.1742593780035726 4.43448858069255 0.014301504224336658 -1.2918566969253689 0.6109141657261865
Ni 3.740118936081579 6.8815271399991405 6.343273507035942 -0.44677519702001117 -2.3517800912084077 -1.7194324381987935
Ni 3.352892437367914 3.554519077182606 12.493561917167998 0.29005026138971984 1.2070707135272245 -0.4303669308653169
Ni 8.057173900816686 7.807878821502671 5.281441230457372 0.5202403560886976 2.097856914558548 -2.8237315303837303
Ni 3.005564385069432 8.799264408976704 1.0727083946088747 1.3680618806330374 0.16850135943992917 -0.7920023606921908
Ni 0.43874342514899983 3.904889596652589 0.4895825835128984 0.7497210834254765 0.4783012926527505 0.010643595756775218
Ni 6.15774760349283 5.364730875600621 0.289435050815428 2.2544057296222917 -0.13112291879147098 -1.6179553672982134
Ni 8.566333122326636 5.645489746186675 1.415287389688581 0.7172665624411969 0.6923970528930269 0.009723655045667124
Ni 2.6194893431622113 0.20147779295922488 3.1792340280811437 -0.05883455363970513 -0.88760728908271 1.637119341821174
Ni 7.713234688875383 7.662963769764747 14.126838803191472 0.16786963939320124 -1.7062884446176678 -0.9199713072357123
Ni 1.754810811584356 1.9781466248473845 9.196509518050183 0.36992132398475003 -3.6314016795201653 -3.2729425905387437
Ni 2.1217510753422015 5.6237805727383385 0.6499018805760662 -1.4491943264389946 0.3971274520858967 -1.798366076581219
Ni 4.262833519020244 5.0204546519110895 1.231391312405648 -0.7290589270904347 -1.0552599273690988 1.4613227342714123
Ni 0.8320595389243913 4.713156106152103 11.695482523902413 0.5341739354506542 -1.2611973201682989 -1.318674588449161
Ni 8.205281202725324 0.6647079300482047 12.204256990333135 0.4500556675434959 2.40024255758517 2.7450143788874857
Ni 1.0009623379861705 7.748658368189098 0.905612352975094 -2.3224528029992 0.25279137703826143 -0.43216464619568795
P 3.7186437985695124 5.795244661086649 12.791335200320827 0.9775665891516776 0.7102690480774414 -0.7230836833436063
P 7.793480930703387 3.6025713356174105 1.2628401253777657 -1.0827735594083352 1.2929108492214958 -1.193121964656616
P 4.675654187724316 7.17463374658276 2.4455369847394866 -1.3029306953513433 -1.6197034603375717 -2.8549894599567476
P 2.1427300566693783 8.478597730538015 9.992725985263064 1.2961342412548 0.023813557479829953 -1.4530458389746008
P 3.4901966404583633 2.9099092171974603 6.52687189060794 0.26901555220660767 1.207769539366462 -0.2781275418102049
P 2.0838466151040325 3.0856514824607726 10.72549156557837 1.2220733575836435 1.9808791769192078 2.9644161247217076
P 6.035009797075779 9.196722958824061 8.932018017322333 -0.2864620298178292 1.578044904256521 -0.5519952799027913
P 6.903283120634731 4.569486125595129 5.59658746923134 0.12659366346254974 -0.46222392747491364 -0.09433351787726335
Ni 4.919809837877858 5.116025566846004 10.864628738121679 0.2604401518327708 -0.4077368521706269 0.543471044481864
Ni 2.1406705404302087 1.2917566695194505 6.582773714345215 -1.01610896820125 -0.44660524710105015 0.9808809982368913
Ni 3.525021187775229 4.001827281455316 8.892900314790545 0.7836298203577795 -0.6661334912108076 1.4447887411721312
Ni 7.92354874264439 2.5293948691359973 4.846736329424635 0.5024436942269088 0.9311548346563576 1.2531757354154032
Ni 3.2317647981923963 1.3590092361657846 13.210652706615733 -0.3212559975685628 -0.5295670328062622 -0.3204309305641062
Ni 9.136622530390115 0.7356835403687104 5.555578756334496 0.351288282264595 -0.3083986819899205 0.557839140278078
Ni 4.912330049354693 7.673439218272158 -0.11430876813637662 -0.06278299676449188 -1.0807287610641645 1.567374054806236
Ni 3.391564535477046 6.881255658313068 10.481674799460546 0.2348003397774795 -0.9711483443301597 0.1323940721944107
Ni 6.426336605392882 4.0071633008022545 3.5270030040835567 -1.4024290452589976 -1.7788665730957105 1.9776467860248392
Ni 0.9539585605458525 4.172186720184435 9.11602736799842 -0.3932857097423033 0.1852783217879519 0.2671121645363077
Ni 6.222472582027455 6.818047232645466 11.916459254927846 0.1425123915753352 -0.40451783101269684 0.379744737833075
Ni 6.6745270350877055 0.5501997632941267 6.634455402079683 0.9239829994982667 0.10522805330258006 -0.1991630501898441
Ni 3.920167462572246 5.493282134674599 3.7834389878850194 0.05464288415586072 1.7919084938813332 -1.0439866684481245
Ni 3.1056287899807167 8.734904526502657 7.8461399525077145 0.5365632616184373 0.05955677651771034 1.6249636802952467
Ni 3.9344342932472203 8.81780005512923 11.822645481802441 -0.23404726366153886 -0.42387489538306994 0.5826896236628545
Ni 1.7985755316667071 7.574647968854178 12.399570276731028 1.2338924617057587 -0.30691258436269725 -0.6004286928138305
Ni 4.832420819274917 4.654843712271253 5.719009795206301 -2.472864137706638 -0.9945888347412871 0.3144132636151166
Ni 7.339891201901209 2.1761691112435297 2.7458855993350224 -0.567224695258036 -2.472648679261722 -1.0138458831986863
Ni 2.3119005928422496 5.13589989855399 7.423122806132264 0.2870760092527443 0.45332508232338703 0.05523089544884682
Ni 0.7053665251843906 3.4602774863657006 6.566195544763646 -1.5062936425551476 -0.6003718714339661 0.6680947287022365
Ni 4.179235882584865 3.251788912899594 4.003346642753575 0.35715579678896553 -1.214465720439715 -1.5613569020778788
Ni 1.0292245176500463 6.4616479474571875 9.708339557664837 -0.3025561071662144 0.8859075327827839 0.18559945257279648
Ni 6.294218638650159 9.073591972034079 11.404012296585186 -0.8534098172653947 0.6582790281633953 -0.930277831368043
Ni 6.254310830797526 6.465504859686905 4.961595550083117 -0.4346177357218708 -0.06040215523714113 -0.26800382311264165
P 1.1856915832022221 0.4149925221926503 -0.13896398595047052 0.2987292772209565 -0.1649403815615482 0.21525172822159055
P 0.4683761192556683 1.3125577835350621 3.5759305569200084 -0.19058122205810404 -0.780631656961404 -0.9815502563897741
P 8.54365972082087 0.05556013127032212 10.254984783158905 -1.3177693030260724 0.20274176868003793 -2.422950540705646
P 5.261661449267639 1.735966237995955 12.01826020648625 -0.854893858010089 -0.24384676625046395 -0.8074217805710546
P 8.233833586950173 7.444617602662978 7.171619363723613 0.5423071060807498 0.05532499782454989 2.214374938952651
P 2.9263666242359148 8.572867405667273 5.553620343619795 -1.643405174829886 1.292288899366781 -1.01650877474283
P 8.40295731593579 6.74420421403379 3.3428700824331194 -0.32277911908130863 3.070965210828556 -2.102864909296101
P 6.380428116134304 0.6086759823303637 4.340524088424188 1.14137568532226 0.581105052784554 1.2676934694156037
