# total energy = -340867.5958009902 ev
CRYSTAL
PRIMVEC
9.26088117726594 0.00000000000000 0.00000000000000
0.00000000000000 9.26088117726594 0.00000000000000
0.00000000000000 0.00000000000000 13.55423570714649
PRIMCOORD
 96 1
Ni 5.112663879230212 0.3407689367825559 7.927954132158937 0.4270234683143807 -0.650268499154093 -1.6680021474429596
Ni 4.843866805856213 8.864885805909617 0.23725729067667486 -0.7290172752192219 1.373683597695189 1.2891254140371349
Ni 8.508601188964072 2.530952495012817 2.724415079057773 0.852340495460616 1.653442761571546 -0.07086834487578762
Ni 6.6405518226053175 4.408355351263309 10.09531702722957 -0.964029216786875 -0.0889910226184274 -0.3841953174052609
Ni 5.844051223477755 8.245425470406197 2.4700288627338094 1.247825012626451 0.8070186315953649 -0.17863407699855688
Ni 6.9183319506278185 0.14187021554309387 9.697282506194973 0.8517812805230364 -0.8360970370185601 0.23841428238098292
Ni 1.920669692660598 4.491230976056554 5.241409574105411 -0.008112601804805384 1.2587156913970259 -1.3492455192574828
Ni 4.2017358334666755 3.2083303807963746 11.089614302747965 1.3425544803905523 -1.374005756921298 0.7803701757699012
Ni 0.9464898291143085 2.3684703364478965 8.826843958605371 -0.9806398287603627 -0.5879233612579682 0.535609125235284
Ni 6.006913078166993 2.2887434112221685 8.701263632883634 0.8026523842068692 1.3487230710951095 -0.3649110152543522
Ni 2.2450876178066634 6.464465429732511 3.6552521669690927 0.11474473454376367 -1.0520545330579236 0.496335524446642
Ni 2.2794454866169147 5.305438379810855 1.1026301363150075 -0.09285667622142073 -1.9978186329870238 1.2437387583722193
Ni 8.600209824616632 1.9771425454921103 10.70505436368612 -0.2569570783801768 -0.973294187028569 -0.8624107352124244
Ni 0.1813502776792074 1.4322600853334206 5.850807962314402 0.6009873935307778 0.7753737509965742 -1.0326470750655894
Ni 5.412225599555061 3.396956006652761 2.7895162947923877 1.236202083675542 -1.5068148051659405 2.0608775091207217
Ni 7.711952415739212 8.361973658809703 4.619310813582034 0.4005801865211875 0.48869137763782294 -0.45054212026161117
Ni 2.1811227121806787 5.287750096946278 12.313643476976669 -2.1166102839066516 1.0012073684990692 -0.2562844777931844
Ni 3.211562428293619 1.2730933221954734 12.215185493676652 -0.11039545643613245 0.5696222489559352 0.7216104412321894
Ni 1.2367165813095795 6.090779617235897 9.892477801090171 0.20247643083379321 -0.195601815201147 -1.2143793313734956
Ni 5.426265095273751 4.879104458369152 4.771362441785502 -0.5116423300070414 0.4721090477991095 0.389088126721188
Ni 2.6795896363617464 8.219698742763372 5.659530020116437 -2.1775698543091595 -0.20370593236552015 1.136440967024804
Ni 8.882305523222847 4.498371115369951 10.382286727548678 0.48588090477222123 -0.1803124931422443 0.00864173483539802
Ni 3.5589751211636345 7.998798946339944 2.101706026471162 -0.7795605353844122 0.2025633341206447 0.5869005764204086
Ni 5.498583315634735 0.6736290811219975 4.4780481118378495 -0.41666500789819205 2.400597884042059 -1.1467441487230252
P 2.4548002698843274 1.2853362069844632 5.743458607088583 0.33515846658226794 -1.515751445533938 0.1292347006298226
P 9.124403476440524 8.714748401825576 9.021672522609764 0.6308044768922104 1.5873394421845697 -0.09327705158829096
P 8.204371984574433 3.0922452364469146 8.716376464719604 -1.242432637966286 0.19726351917428606 1.0667260190271692
P 6.19903005619089 8.69954203509069 6.030415342174178 -0.43188388173047554 0.2061104280419547 2.469706823024579
P 6.2330267506389845 6.417105283884634 3.2587632869869045 0.07545493580520553 -1.5759764517632664 1.6197330280239266
P 5.713722844025824 7.024878387463921 13.073670095966987 0.15125851319908143 -0.4834375854380513 -0.43260250506405495
P 4.133057139370497 8.270189066416604 9.269823387701939 -0.7507952903262618 -2.024016374428314 -0.10231216520736572
P 2.485472308024369 3.8885328353096162 3.274065966885033 1.8458808343327306 1.9014446876409643 -1.96409527259265
Ni 8.511166453023488 6.991057649756363 9.970197893385661 -2.8562868386119327 -0.10755027367785348 1.126661261930221
Ni 2.1763996628294042 8.816794050456346 0.13385121861511642 -0.4017515811214694 -0.06907448620015846 0.27214252787136356
Ni 5.497110835542867 1.930764053038812 13.178810731055005 -0.03250645726813757 0.06292595010025936 0.21836276304674654
Ni 3.0607211972474286 0.3838598164521241 3.9150865596329676 1.3545435344316286 1.0671237686862203 -1.4326279374398811
Ni 4.009415116058999 8.221449049287669 11.627176036412179 -0.5912832788691366 0.7978457068468453 -1.0049264692218696
Ni 0.6507398874423703 3.2567740497307205 12.065804703576923 0.7406116649250407 0.4422935070995737 -0.1598663094727505
Ni 4.6816254301993965 7.987056149129325 4.692964452994888 -0.09863471635577852 -4.207363497540883 -1.2139646124335803
Ni 7.157355291326627 5.6123347179518 6.409540070129623 0.14232495815487747 0.3058918564076667 0.640459226373155
Ni 8.04614983130674 8.54791362915262 0.7133036217608104 -0.8205236080603352 2.12157071323572 1.5631564171804628
Ni 1.472832005348976 2.179761362661782 3.852141277013993 -0.3759927269898105 0.5849347109432894 1.8391558569040714
Ni 4.01083203086438 4.704490545588214 6.970713346197776 -0.05121020432522793 -0.39425218742063073 -1.2087110773441248
Ni 0.7396461979955165 3.201495850558648 0.7497387061975141 -0.041401445764922246 1.1248887434108303 1.1679423800671949
Ni 5.111219181781587 5.179425570942637 11.968470991240132 0.15610967064379566 0.20291120437836666 1.0683933794272633
Ni 0.3105719818419668 4.779114725338349 6.988780399098563 -0.19449032730452312 -0.7330042848914279 -0.048224639334342755
Ni 6.775631034051765 5.985798269302472 1.2463321541359096 0.013650500903899071 -0.36509767734386156 -0.9275581184440348
Ni 0.16612816744648243 6.879880772379797 7.748780161533748 1.0123939812435079 1.3604192764861152 -0.9065709746694064
Ni 2.02791069557777 2.9969229874809002 6.848616037850576 0.7629910610615053 -0.5794906571095826 0.7353707282410755
Ni 7.086537333700754 3.480359501667618 12.150192630250682 0.5029126634435275 1.1850191330438238 1.410501794964803
Ni 8.221439788406586 0.9367844257414935 7.664581156834038 -0.811477438697667 -0.13185285497896002 1.2657713126922265
Ni 6.764758759662753 1.2093691994775928 2.0122616587272137 -2.8273238757206793 0.31198125713485625 -1.0971177439451492
Ni 1.120075784095264 1.2669533580388168 1.9231423479092062 0.16014527416575 -1.949312200746204 -1.653811971985507
Ni 7.85409767945041 3.3129968587730474 6.676206214766899 -1.0163362537207077 -1.0566861182926641 -1.2367227320657024
Ni 3.4896111218674672 6.93487188423836 13.436015959580004 0.5820249934956622 -1.3663438695006662 0.3046875516869204
Ni 1.8047975485759995 0.5113719619673438 10.2925987986323 0.1484542109810669 -0.46715427489699546 -0.04536994349436702
P 3.456762776673408 6.174266460180482 5.533367184974709 0.42348922990887716 0.41419417776019635 0.11687566484383743
P 1.9020275390446857 7.420873662484495 11.374781835608722 0.09488039151966886 1.7461953081149346 1.4184009952072218
P 6.424338032008841 1.6929353659994437 11.12177919491825 -0.5780420975885142 0.09860463444879147 0.46382546763407867
P 5.70462865880435 3.055914799966426 6.355459302881314 -0.3673792742891866 0.29236065469045136 -0.5263662664807773
P 8.72005488668495 5.185908187699289 12.558460424879707 -0.09644953577900163 -0.9399438937028973 -0.9864260964248368
P 7.069210225198334 3.2109882536666015 1.1413100583257287 -0.18387347102062526 0.9452066847637335 -0.851362704928379
P 1.6184037950601176 7.203289261488041 1.6646906047907146 -0.8358296422897863 0.8331071011523007 -0.20689358606488237
P 3.1642022824457423 3.6220602430869313 12.955667023145669 1.3265889582002315 -1.3097202074693508 0.9148136742941729
Ni 7.838983921526332 5.028695470469418 3.9102477492681817 -2.509106407868124 -1.050185855280301 0.28986025686610084
Ni 6.622381973924532 9.07289445586839 12.4161540218377 -0.5524755619733196 1.8279314489431615 -1.7729689766643528
Ni 3.4300914391603294 6.015979480745224 10.484038806249183 1.9685283686633388 1.2940051107269392 -0.8270773500184531
Ni -0.030626659822744238 4.972213356756824 2.230525808395009 1.2815229190995285 -0.5333491255565137 -0.8866166430346665
Ni 0.0590742343271456 6.226933090887732 5.005673846190334 1.0257873718312787 1.893250581865946 1.0980937347051731
Ni 9.119634122683845 6.6580363660861135 0.5002051915599581 2.760312185586821 -1.7921758886101071 1.0652854299259007
Ni 4.458160369716552 4.345492490485955 9.14021735697432 -0.19508322369351563 0.1421123279234391 -0.21316759199905225
Ni 1.8227914405162469 -0.017853126547817223 7.862350976669735 -0.6873934290308485 0.355011239642137 -0.40404114848659456
Ni 7.853764287731496 7.29806511847028 12.441391774959452 -0.719324216301174 -2.6346006676189075 -2.885274484093534
Ni 7.256141109816909 7.683262206150491 7.7325421326464445 -0.04610167945406899 1.203840636625701 0.23097145294969254
Ni 5.00810853182651 4.126704174948979 0.7914617537314288 1.106089094205824 1.7021497398589462 -3.4178419942890166
Ni 1.1153527347439895 8.550691893476898 3.4307804487127505 -1.2749869177532236 0.37943414857119173 0.36294926354229107
Ni 4.267608480595332 5.549416291887961 2.502179863582475 0.3933317324888903 0.23132060875899516 0.7356424938452234
Ni 4.555473708114966 0.8800068899224186 10.175598679232044 -0.7466889814673721 1.1735003337709466 0.21099038184207533
Ni 0.24088848214850758 9.081544118797979 12.117567472290675 -0.07745859649879563 -0.7301524172649295 -0.7229165616381227
Ni 8.182497783461276 1.5940291560551092 13.219147424691105 0.06303162244018821 0.22184943604376633 0.7025721936538157
Ni 2.7056590166045646 6.948670597048946 7.748061517161868 0.0001491239833545819 -0.6296798763694639 0.8270611520685368
Ni 7.1518728497267166 2.061046128085338 4.533118867273709 0.7246062906357198 1.4342875845304912 0.9600879727509402
Ni 8.494922867607537 7.148974193948385 2.799762533620329 -0.2588926048399928 0.20436619165733838 -0.5689545334649492
Ni 4.984095067183658 7.225061592909308 7.181034438162458 -0.24910775753908712 -0.8312487077873232 0.04162204641616058
Ni 2.1502469346568573 3.949756520135646 10.363080586274936 -0.1287006825032235 -0.8719379579765693 -1.3883581689882283
Ni 5.901366816487632 7.121061898370462 10.687216980636142 0.6172856164701691 -0.19512564689567685 -1.1094371847424507
Ni 3.9768538581784476 2.809427189116388 4.891818722005161 -0.2720548532535637 -0.15931917872002885 0.21208515756815088
Ni 3.4760717137271477 2.75708468924697 1.5641859667718119 -2.0460610129331793 -1.3989040628248746 0.3194145734844499
P 6.439646268435618 5.881261443660932 8.656168698548152 -0.48802546191904983 0.808637912366343 -0.8144136385078554
P 9.14448106662398 3.583081194617296 4.790297239243573 -0.19010531086295002 -0.4616459434842566 0.6326201899447105
P 2.014417591842854 4.7342735391444855 8.286029803505535 0.7576128274687275 1.3059129179081186 0.09814697808608258
P 8.461185477829709 0.2992607416897187 2.6171194369422235 1.9344239707804622 -1.6750436276707734 1.010340184038273
P 1.2442086341040521 1.4489018886358522 13.160295451509901 -0.39699658293498724 -0.5872957549762982 0.2180362329452632
P 3.033716468015436 2.374582517961311 8.772437208343014 2.0980502615162773 -0.914862011033605 1.439981806701791
P 4.533775463742346 0.8009995351566789 2.274129740876461 -0.10562965961637293 0.5798590961925949 -0.27923800126556425
P 0.24193588779876077 8.532392392460979 5.879949176811764 0.9386945946768285 -1.5104068933925732 0.6131430550567053
