# total energy = -340859.5572104348 ev
CRYSTAL
PRIMVEC
9.35924146247298 0.00000000000000 0.00000000000000

0.00000000000000 9.35924146247298 0.00000000000000

0.00000000000000 0.00000000000000 13.69819592695557

PRIMCOORD
 96 1
Ni 1.0119586133877194 0.8627442282998534 7.955063152221743 -0.9374956892727209 -0.9601530216609205 1.0079107486611738
Ni 6.046771865122182 7.682748537303627 0.6188255516842264 -0.6730109350569313 -0.13280622003116482 1.7230792909227615
Ni 4.942549850354786 3.4266803226149505 10.691345932583319 1.725257272410687 0.8193882089043115 0.06407626165461869
Ni 8.458040014285597 1.3390266621414395 2.5742471705273093 -0.2770695328593357 -0.6096365845653436 -0.4603979300097684
Ni 4.30102065096648 4.305587960752773 3.329537948711514 -0.6107843250165417 1.2301805600718103 1.782858210753607
Ni 6.994554160467657 8.395866573895539 10.459983614183454 -1.6285539687496662 1.0979381829639154 -0.7484419596027367
Ni 0.28365427175638125 8.66894115921252 6.261815410277413 0.9377309452119785 -0.05235717344547757 -0.1124230283891225
Ni 5.2276136238607895 6.232936535120471 6.618789978889991 -0.2381486874244221 -0.1989211093823671 -0.5658974918061803
Ni 3.1587907570143745 2.8760667938497093 1.9448288294657734 1.2439806991796964 1.5437235052668317 -1.5322479005270644
Ni 2.678371538489301 6.102927313314315 4.7217269736564464 0.5942716720734991 -0.9323285432494847 1.5501420071986658
Ni 8.341648488666033 1.8898460942167183 5.235203968608094 -2.190264933278325 0.39388143434477324 0.43889373738940535
Ni 7.507730723771475 7.749517365204075 6.73123845612233 0.21373991956275448 -0.8678712441063633 0.37949405527484964
Ni 6.966757213612551 5.868712298146289 10.61696429775629 -1.8072926896468873 -1.0177629588649053 -0.8287238844829405
Ni 3.7243416349987233 5.132467576140584 1.0015165077963921 1.4253082638500163 -0.01914674813177993 0.09905252061948747
Ni 5.474341944734297 3.6207067553601395 1.531814867253992 -0.27429531254830825 0.832547886214721 0.29287076155765046
Ni 0.040845601166685334 5.942088750450678 4.785204156368699 1.820044075775285 -0.4496023820561611 2.421436160943649
Ni 0.6867820673139376 8.575535930386271 12.153615085023763 -1.474572657302783 -0.06715104392520048 0.38935886388407137
Ni 3.7727382720989775 5.41996475240158 10.212210801973573 -0.28061405567748443 -1.0373905032878457 1.2461118865900862
Ni 2.128469312067827 3.12038978969232 13.194732414885246 -0.23043640638182894 0.2649084720167696 -0.49371582743560777
Ni 2.6314255838006773 9.28773676132438 2.479716024964807 -1.2925377821527932 0.19436922834562653 -2.2768136650038464
Ni 8.929446283375832 3.0475936103525836 7.858586220379383 -0.029713982124664952 -0.9733728627853043 0.5712618414418872
Ni 6.912183477211162 4.704684731054271 7.9202832753839445 0.49961548074949436 1.826910720988131 -1.801277336690743
Ni 0.9145223593054108 2.8519573880925533 10.155472273044378 1.713894796210016 -0.6883892172852144 -1.0397618317334996
Ni 4.555105335553156 1.9292110633994044 0.31292717097480427 -0.3801633134277324 -0.895653042205322 -0.584703825879406
P 1.6187182311037291 4.662090823600537 2.421991967919839 -0.0033020677900394745 -0.4411385675595241 0.20131300665331134
P 1.6068039168456314 4.782263482731704 11.278067414536103 0.5219719940678237 0.9879255637884985 -0.015554659905147403
P 2.813013584771308 8.120190119478988 4.504789118048867 -0.09154438516790041 0.15014651108182528 -1.2367327593680313
P 9.153450366214255 3.845974335782886 5.890347120486446 -0.31595129752619777 1.3682498282741276 -1.1656355863108894
P 1.8286740926527536 2.664501142785844 7.7050984056840965 0.6913922657775964 2.045948398614715 0.11425982448754515
P 7.705538290028269 6.831675282986372 9.019933300744365 1.826910463877815 1.166110983285411 -2.851865055395153
P 8.905383673825503 7.586591691515962 0.2827979011714512 -0.29647621952072173 -0.3802067650711581 -0.22886417679870263
P 5.987743129830884 7.405574604268618 4.651181691865078 0.2378332130665323 -0.6309248045201585 0.06833812225476618
Ni 4.681164957503132 8.425076766196813 2.8135274071222662 1.544862246856965 -1.356486259980296 0.5908934996298856
Ni 4.651112433478975 6.042569565749138 12.698844242231516 0.5849622217471151 -0.04485777974463887 0.27513709172331324
Ni 2.664894230923189 6.927298652016211 11.951607091242199 -1.2213565340222772 -0.6027974501563231 -0.020254379373661893
Ni 6.475621663724144 5.318482498277028 0.3226458072085896 2.296690349323115 0.9296401977840442 0.4220021038403894
Ni 9.161424439857539 6.182546379609397 11.904554441202007 0.7291432592741249 -0.7903640537578195 1.303772217416032
Ni 6.6154487297225595 2.568756103618255 3.335496977688836 -0.21306011988691045 0.08427124854525486 0.9890046557852902
Ni 2.6419547303367024 6.614232028345063 2.4983315560404997 0.9641330893545912 0.14811276848124816 -0.8178128939973915
Ni 6.850262736337969 2.2161466851784795 0.4403541780882586 1.7773460226861262 -0.23221406710754203 -0.8726043879159746
Ni 8.890277858261818 2.4118390628867012 12.621024022126853 0.5986541174119109 -1.939704502453111 -1.4245225347239272
Ni 2.773199372003085 0.8561478349855507 4.44768089908574 -0.904408419800449 0.32594851794822577 3.1637910338120414
Ni 1.7003214565682656 5.293362294452413 0.24973076550351297 -2.4088385267842964 0.8771480414225991 -0.7839902890209918
Ni 9.040418808244855 3.9515652968668284 3.50845014257579 -0.13386011521697594 -1.056884350346399 -0.422963182202078
Ni 7.150703743407251 4.993670026692358 4.860626538835555 -0.5287571353104571 0.002233260205892928 0.14801815188491282
Ni 7.929308391832557 1.43376090324157 9.989327020326582 0.01664737874869391 0.7569070596509545 0.8313127282560393
Ni 8.816714221130123 4.441577737791391 10.06320138427161 0.593611669891997 1.8553003278744173 -1.7921645757561973
Ni 1.8244717932797088 3.9531282901748432 4.611812978985847 0.8588777823585015 -0.15903507182070675 0.48166069604328665
Ni 0.6329102740149503 6.58638828528313 9.626420564536641 0.9903958797058621 -0.45978575034706626 0.10752739085971803
Ni 5.38248099073333 8.942521143563233 12.665885673763414 -0.8558073709632938 0.11435161287040306 -0.6327412889036071
Ni 5.996035417680588 2.6021217990857486 6.160092623649772 1.915706596876617 1.303460599712884 -0.35704446802208184
Ni 3.4332317915706994 2.4014503049711564 9.114670349616905 -1.5514553266934508 -1.3173841517725118 0.8270544672003176
Ni 3.524933638468455 2.206665773675374 11.838103827507984 -0.8380191937419373 0.29363900718224273 -1.2051182177865438
Ni 0.3893678389022104 3.0527879893103558 0.9853493542618765 -1.8765921473736582 1.6170814493336925 1.2885613140035486
Ni 8.481363243768063 6.164632791636106 2.7498031404379693 0.09080210768523717 0.22605756058784293 -1.7491579902876844
Ni 8.176439160084774 7.811746961042324 4.460790388466194 -0.9792941133657457 1.0041137435125869 0.8307216316392596
P 1.1420146314007023 1.327299532710649 11.513690059605478 0.506194933739225 -1.2373655078560237 1.2184522158912887
P 8.443392801548814 4.354190501163066 13.383712344686236 1.510697170939482 1.5050458861909757 1.1515374563466105
P 6.21446139266526 0.6540509284110156 1.818161792751186 0.12576602535493178 0.14343541761023684 0.6066631037593165
P 3.861828890655798 7.744304267763572 0.7683759335371084 0.44968028648194813 -0.38718885281594606 -0.2569686483444026
P 0.054306062098339894 0.35720106225361936 4.257741647044802 0.8983591282825754 -0.8148219296898678 -0.7027071765697833
P 5.521737143008457 3.865347965409172 12.899549429615021 -2.217286713282807 -1.3743582551647104 -0.71138619240102
P 7.183348777289613 4.567319145534945 2.537248217561785 -1.4816462763201128 -0.45656621496850397 0.13840454005454872
P 3.818224185134606 0.2595383145302692 8.796173494105577 0.7845693014529133 -0.8669276492461714 -0.18620443314664706
Ni 1.7657519129534671 8.017257182942805 0.6044506928711766 -1.1006211291127175 -0.6189025832483018 -0.717026935626565
Ni 5.57233320182957 8.395305019413618 7.667428395112676 -1.847207009343322 1.2343542318335257 0.9741688763240385
Ni 1.6676951411686356 6.399961556526609 6.948574079487938 0.9755104779535974 1.6502875037720157 -0.8744861783197199
Ni 7.519654397270939 8.206603995005315 2.3073244145597744 0.38521321714681395 1.299691105368123 -1.0902616402552643
Ni 4.8520179086277 0.7290072206578763 10.798055323010422 0.9547465059333685 -0.18683178231800082 -1.4683966103990582
Ni 9.155865050486517 5.449343411047432 7.606073888342086 -1.1946911089159489 0.050534004193809746 -0.4064723836359064
Ni 7.379902205203447 3.9008475679079666 11.636877330380427 -2.2173995847115875 -1.5299115390844038 1.6116952453211146
Ni 2.566098079070494 9.048215056302196 11.01793853187568 0.8468511902112705 0.30370461894836087 -3.6152654360799352
Ni 4.770498916335452 3.9512658011431374 8.204766775925297 -0.5802074806709491 1.4872510241013999 -1.1712765866467505
Ni 3.3420634214307694 7.144498566382021 8.917457095186812 -0.00963340932470599 1.8866089081797122 -0.6665137573683618
Ni 3.123759116583848 8.57638762135052 6.60906479118725 0.07110077260156787 0.26505913866202097 0.7318295478570364
Ni 3.0470975705602195 0.3602942915248694 13.031874127734966 -0.6482864357270578 -0.8082573890984724 2.455307616880113
Ni 4.420313541409303 1.325437043678943 3.2051863883107155 2.9453807053568113 0.6102708757152329 -3.2995709917595497
Ni 1.3928329407508695 2.207012065605892 2.9141401877239765 -2.222888632850617 -1.5861371943463525 2.935940128769202
Ni 1.2244040331399282 1.8942917338652623 5.747160086837869 0.011794935752399042 0.04270653772959097 0.8614226602675422
Ni 2.145203635629083 4.721559443236007 8.448253055589843 -0.5077710199770932 -0.8847451370435667 1.694527704537314
Ni 5.551312345722982 6.191259833320543 2.477263903727084 0.605730307532402 -0.4276870700403086 1.0364901029607634
Ni 7.055520258721584 7.202722406915899 12.30922651158485 0.8124811973718331 0.5165477377284587 2.8713074803904806
Ni 5.729137931664741 0.31515092672321277 4.999293994828801 0.3432168181103702 -0.6405918952962774 0.8219397716815716
Ni 7.9573954751699905 9.550544258863567 -0.3157040578879053 1.6338324435397862 -2.2080803641931905 2.818919710817384
Ni 8.98174572412544 8.722335631201876 9.433906585196096 0.7698960157114547 0.1117123754753431 -0.44467511995787284
Ni 0.7481318944638441 7.8457584441640265 3.0518211796773147 -0.3076075535471928 1.039410876151984 0.3923989362619758
Ni 5.774698718631292 1.8039844139309453 8.759119321615998 0.24126949244159093 -0.646965402922789 -0.4148999455779693
Ni 3.986568859573259 1.8058749806867471 6.565093203404536 -2.550003146082486 -0.975783786219642 1.5799156389166726
P 1.8058094659971895 1.4922468025336777 0.9267857732664364 0.8470368238595154 -1.893537002758113 -0.5394056161632388
P 5.0641357549321215 7.162580620699887 10.924201985905096 -0.6576393376968674 0.572037286155331 -0.5880498595335033
P 6.878443412089054 3.569146694678395 9.563587297630326 -0.4302180639922784 -1.656358135446128 0.31195014678660465
P 3.211932529486864 4.736618462592865 6.6258037943691885 0.9935166847230308 0.987316726559906 -1.0494286653993024
P 4.295798194284611 2.7121864775423314 4.6910707785642245 0.19189942664889534 0.6288288412230784 0.8940247625732797
P 6.855344804399357 1.0951809876084622 12.081931719482368 -1.2941717182117904 1.5298691158822424 -3.4539271700473484
P 1.452891192592357 8.175624906085988 8.271601118515301 -0.11349337863516584 -1.1449009248666993 -0.04842055739523274
P 6.772543596040054 0.8025118945689703 7.114459145295775 0.6059208262766532 -0.6649217302908936 -0.9900348968220176
