# total energy = -340862.6206352407 ev
CRYSTAL
PRIMVEC
9.30904462924315 0.00000000000000 0.00000000000000
0.00000000000000 9.30904462924315 0.00000000000000
0.00000000000000 0.00000000000000 13.62472778754880
PRIMCOORD
 96 1
Ni 6.958091986599641 6.046047643736039 0.17965432225376488 -0.35645337140530226 -0.0314078248873201 -0.6717284688000817
Ni 1.1785157466489995 7.225345350137632 3.026487717391113 1.5896485499337203 2.658775207982582 0.9366364265962193
Ni 8.285245249554018 8.092091881618884 7.48418519909951 0.5876166286508268 0.18484380535369455 -0.8821195264952614
Ni 3.007500989874582 4.08719191826731 10.954267513283 1.5708059633059204 -2.1175366523756627 -0.7773193047587195
Ni 3.3565529289606006 5.715734811578232 3.530098656099467 1.282074163617308 -2.0878676645563203 -0.3759346200583655
Ni 6.821072158047073 6.476553723717158 11.362341588313843 -0.174883351706873 -0.7701618677783316 0.10669152522198398
Ni 4.90391164367196 9.345443038399965 4.380759158384522 -0.4498296675756188 0.120301916916567 0.45511328457206135
Ni 7.3545362721195975 3.0905376683642154 2.183213011150193 -0.7503263211096433 0.724504732060849 1.2765810017132209
Ni 1.9893521558198553 7.145632000596519 0.7197306507580371 -0.1826236577739242 0.8414719281772283 -0.15051006506883113
Ni 5.835495671305711 1.754857320488705 9.1227092501096 -0.05719778936723053 -0.2536706943194212 0.42534993726669973
Ni 0.37728813339036354 6.0267593031720805 9.043944492220739 -0.8686824271537492 -1.3397236958099765 -1.8582488689797803
Ni 7.783292251702055 4.467643265037806 12.093621970798571 1.3039269978263415 -0.9769765209761626 -0.47942357918265177
Ni 4.246264873651935 1.2667189449325507 11.12498515264999 -0.9970972029854377 -0.0921568219409187 -0.1870454409907037
Ni 6.086234789592513 2.53735699767274 4.356111600801898 1.150731158395231 -1.6551093506406913 -0.5573352040584659
Ni 8.625462905244671 8.577763360336503 3.1350228001465488 -1.01623315248394 0.7018240026338816 1.4454798537018847
Ni 8.51206943207402 2.1161971985440418 13.051548733050032 -1.0810920579408543 -0.20012747098564243 0.09469244387857885
Ni 8.905572059477079 6.736974248464635 1.5539271766331402 0.3061070577422664 -1.6027156675303236 -1.0569077473851667
Ni 1.6627536324868628 8.307642811039003 11.797025567544528 -0.020719234825222383 -2.0856865977446017 -1.0544572289621452
Ni 0.7343756398387423 1.9201114815366835 5.682451253251792 0.6267639882742496 -0.7988456088662694 -1.3245400460910028
Ni 5.7048339202652985 7.125040393778238 3.062743653681873 0.6373744168002443 0.795399816409514 0.19167471223259894
Ni 1.8312007958579295 5.955163440586456 10.782200993342789 -0.7155668061412709 1.3101788922733242 0.5345102357441505
Ni 7.190967048157564 7.050810071549948 4.9326281846814695 0.3066138221753558 0.35340892815202357 0.5837052094115625
Ni 2.1767804612806483 0.14017559469696156 4.157721895237793 -0.7339563643920521 0.8996557356068119 0.5462185253200141
Ni 5.585976037871168 0.6351765979865867 0.11960539868142989 0.03701282977892335 0.43846179205830943 0.950876224344685
P 2.7450510933882333 3.3127352556813743 2.90336163801408 0.8246913662847797 0.8372218946516227 0.4755805512874777
P 0.06551147098687722 6.319482212937384 12.302162258674906 0.9744270150814314 -1.6459960754855136 1.0875226440575465
P 0.16780483928857942 8.199499639064332 5.663935563395752 0.006126167502395901 -0.7254866363581441 -1.1706073284938678
P 0.8916742913085549 4.536753612695545 7.011271766107234 -0.4516222406996674 0.5871201486303823 -0.01974607227867567
P 8.698883340586347 4.958062356539023 3.112214709791453 -1.350105810375249 -0.008580542580159417 -0.6785619467821474
P 7.157612741091604 7.795878080100932 1.391370776731607 -0.9332623679176636 1.7881120029533786 0.5535466835503111
P 4.958192683164455 9.039389576661886 9.56920454522231 0.49633346756411295 0.2837770267864984 -0.05202935779241361
P 1.5774083109181456 7.972331021891404 9.486176244872883 -0.032814218316543485 -0.02468413301024136 0.9178820288068514
Ni 6.71954771683542 3.9238554204221185 8.189864777827026 1.8667610202158496 -0.2981633774151574 1.0622173325235382
Ni 4.202735780757593 7.253430737918263 7.94516443682007 -0.9469560633546723 -0.381212323517537 1.7616975175155916
Ni 0.3841935827293333 2.605350259969632 8.006230838975243 0.2944980127484283 -0.1599807235634277 0.16202166525285644
Ni 6.382243792127643 6.835119506459725 7.330389541140421 -1.5896837740470298 -0.1728742916966442 -0.5453114401247126
Ni 8.181589037112083 5.641644125020048 6.927247397977718 1.5312341145505695 -1.5069312761391465 -0.3379188029362245
Ni 2.815818450997896 5.4051106089053516 12.847273849443198 0.6321360512194403 0.13851535460080014 0.4068387658363896
Ni 6.42606146540687 1.851475895157304 11.879495325213533 -0.6452533053276888 1.370024917896679 -1.1324562713454431
Ni 1.479151344386971 7.336337089782464 7.432439012471671 0.6131931915683504 -1.3279264460647322 -0.9031478079204704
Ni 2.5390233166693363 2.6752332583352914 7.010290592798623 0.6030964694539807 0.6353815547399315 1.8428327915350262
Ni 2.944385666986722 0.12154633449590169 8.656920029006125 0.6573853127045324 0.7345824280118252 1.4705468239728416
Ni 8.59202481677665 4.259083428167655 0.7330090720806394 0.30485878715746206 1.6327168418781044 0.09456440294114682
Ni 5.69189434816882 0.16299206319226325 7.4756562523694425 0.23761106975339727 -1.8931395102093782 -0.2543543506500071
Ni 3.899084052545335 2.757571758474395 13.331427953878997 0.8028619291145142 0.7463218279359404 -0.9159236195288999
Ni 5.353156830581289 4.39412043020472 12.13337903879112 -0.3886826637526532 0.4998047139421651 0.25131684937526394
Ni 2.9614863820523563 1.66482024040443 1.461878411994873 -1.4615515624527669 -2.846839577156103 1.3527103378776315
Ni 0.6979232827053672 0.2850448097184156 13.246164551903409 -2.326906982115812 0.5510555416973413 2.177388591536289
Ni 2.6953687219645595 5.283646194002579 8.48982640073062 -0.3557961974372776 -0.39374876542165094 3.3920137203720033
Ni 3.286632694416247 8.74926389036055 6.537158397256515 0.9791151645857203 0.2842423964586911 -1.820184200897575
Ni 8.304850097636885 3.1336385452035653 5.232944482187132 -1.196518649042991 2.1552179689765207 0.4666346549480996
Ni 6.846485850006343 7.915601703649719 9.42978298314392 -0.48946836501316343 -0.04066611026079448 -0.18405319113159915
Ni 6.081719902925757 8.663090063815872 11.747690423487184 -1.0128992030147006 0.6069400115697869 -0.6602330665659726
Ni 1.9771573072972746 3.8470371837745345 4.996133556541158 -1.6221961448524385 -0.7050386529164374 -2.113836577816256
Ni 9.005523272138872 7.556067780261086 10.624767360725208 -0.8286418662920955 1.4211783008420427 -1.0033472976602076
Ni 8.44828385796965 0.41191964138555787 9.15311910634526 0.5285794720820123 0.4779418524308027 0.6547615019284401
P 5.138257534288331 0.12255543493853356 2.15257042879769 -0.9792601748040167 -0.020052804885817076 0.7363773151287188
P 7.636609634778161 5.592082771177132 9.502158012768735 -0.16926549129946333 0.07786585923954331 -0.4068912163408799
P 2.376524632844781 2.4819681818640715 9.450969437916852 2.0726981559047335 1.8117939199513504 -2.575976430217796
P 5.374744505179659 3.503700998118183 10.14467293067162 -0.4409807018254212 0.5822360810652036 0.765693547594333
P 8.19017197630126 1.570203110340682 3.765152965015508 -1.336925564239549 -0.9469912874679819 -0.30037221214101817
P 6.421509342561419 2.9805792326781675 0.12316424646019522 -0.2461167932315632 0.3792832248156242 0.6388564006624095
P 0.943890584692417 0.05123512007525149 1.8726511790766278 0.577538161368902 -0.31810536775472315 0.44450105627385383
P 4.760301011490394 6.774471080410402 12.351865109996863 0.7620104423157908 -1.0250690056080154 0.2664501054722766
Ni 4.756847355916442 4.55713111148633 7.322037466259154 -0.9203490022901053 1.0792712026820317 0.5466142180965361
Ni 1.2284308441895166 0.26740510096617276 7.053725664341759 -1.463999252662311 0.6353010792109832 0.4382519900403485
Ni 0.6071051737729667 5.845214313945082 4.682110621657902 -0.7320203237116037 -0.35473664582451164 1.7986931209033348
Ni 2.8658452570744983 5.238097038414039 6.41442609046918 0.2934978536186881 2.0905992045548705 -2.912714068361726
Ni 3.544577013280513 8.757614103432882 12.965345117562396 1.887044453055234 -0.9884860642776588 0.7348343961216313
Ni 4.849155842901106 2.6405477578809893 2.1336190756509192 1.3573164691910753 0.5646469072285308 0.38571252538073575
Ni 4.708179670362203 7.072016075316696 0.9048903420318433 -0.10427006026468495 2.5657812348523485 -1.2180920043383925
Ni 4.277822535095865 3.6681918175029162 4.937696959506313 -0.7440170910621638 0.34538631495786326 0.07396112486849843
Ni 3.7403089865902692 7.633109433980839 10.69673279238438 -0.019123351093012223 -0.06421561544596038 -1.1112169023506926
Ni 7.768723596787675 0.9350097560736829 1.533163352488395 0.2542805599892782 -1.4328673071441969 -0.3183588785264259
Ni 5.457492603284407 5.13607921783468 1.769456695250509 0.4290631244522288 -2.091538428539688 -1.1443805335868549
Ni 8.236679963491193 7.9964973018643954 12.824411766628995 -1.0121396991408569 0.9563537025194884 1.4897460226091117
Ni 5.41819912571661 2.3691797965972112 6.816138364369999 -0.07687855562560954 -0.7642892110476386 -0.9718014045331265
Ni 6.234257908949426 4.7941952431474295 3.741172865935991 1.4137128457029329 0.2618632574325426 2.1578016705432965
Ni 1.6062291132280004 1.0442793224538751 10.50899821935382 -1.772849420367353 -1.6491449055271405 2.0404657782335893
Ni 3.4906031722622513 8.002631962304381 2.921563613064616 0.20686633237137278 0.5044725517314796 -1.5604007088121965
Ni 6.9759932795072155 0.4982293799824731 5.441961393150763 1.6446837844319935 -0.013985772756130752 0.25327063066752514
Ni 0.708381994396298 3.6559783508909884 10.032840584292751 -0.06506279393760409 1.2430939256993687 0.7538559315294564
Ni 2.6425771296198612 7.184506571153998 4.9839796678151425 -0.772692090399353 0.8151664575134799 0.824402117179135
Ni 1.458382865719889 5.199371412571341 2.27869495146413 -0.1835356280652323 -3.131538344425923 -1.2349049621306731
Ni 0.8616898584144844 2.275456334822141 3.1484427189481914 -0.1644755261099877 -0.5612900749411559 -0.3082688412802756
Ni 7.9163371181789435 2.6244338015507696 9.891538595190267 0.2838826991264272 0.38021782081475164 0.8740053820285593
Ni 5.383895296093931 5.713621658437295 9.44167714952354 -0.26159534848313654 -0.5771123866853932 0.6691123713334733
Ni 1.092881844695397 2.9080431565804967 0.7293273449121809 0.8042706365365826 -0.12886549021586197 -1.0558651650532653
P 6.348303015247239 4.299140247398697 5.985452279241358 1.1388799154836 0.3483160870101485 -1.6265392523124826
P 8.054222687886169 0.4996127040209887 11.490059819428424 0.6385941481399582 -0.5209358394938254 -0.7466637846563915
P 3.5876871991645367 1.3616432734705317 5.813494675123829 1.1912766839177613 0.3199910148132102 -1.4264166664228466
P 2.4585931706883466 1.177854804477165 12.969732470317123 1.477761853664042 2.103589703277268 -1.5911058512055372
P 4.66244433388019 7.0508473077286435 5.866494790069218 0.7712818403153879 0.043148510363016014 -0.7459701010234766
P 0.5468002514721043 3.412751631655883 12.108908353057295 0.5533211978030664 0.938395575379171 0.6471680058518984
P 7.865910023181372 1.781741841506425 7.451091545284415 -2.3056133628443582 -0.9001933532778368 -0.17257887194341245
P 3.476081062571239 5.391975546870725 1.2471383003658358 -1.7013748093661343 -0.19308239121340295 0.378419077043116
