# total energy = -381178.08459788334 ev
CRYSTAL
PRIMVEC
9.13833360046389 0.00000000000000 0.00000000000000
0.00000000000000 9.13833360046389 0.00000000000000
0.00000000000000 0.00000000000000 13.37487494119932
PRIMCOORD
 96 1
Ni 8.628487780395613 7.752039334152874 9.92819642833605 0.08031329233877137 -0.873795065789966 -0.5109293631004168
Ni 5.237480604953017 7.953164920420653 7.5000680592125555 1.5938846995022549 -0.889328899759507 0.21347715281967106
Ni 7.057982890105538 2.661567103332701 8.292382608636194 0.6949630138479902 0.9107217636129864 0.2315507224919303
Ni 3.4473450026651338 5.470307070804735 10.891829147184893 1.0525304442530778 0.0944985827002179 0.27119533346674585
Ni 5.711604771990646 8.411022853483242 2.7710333749845013 -1.564654598992544 -0.45114067307755845 2.8355244092536007
Ni 8.29660177730264 7.835362660773329 12.745493531479 0.8975178633282026 -0.08303634769688925 0.5894613951690493
Ni 5.645424959379839 6.522430843977901 11.97334911218441 0.16860034691163864 -1.027413851691108 0.6905024069734753
Ni 4.38838319145595 7.038920326020183 4.840982927311102 -0.12568837803946095 0.917823407654774 -0.779503971114864
Ni 2.1287200039784406 7.311854938454176 5.0690638564756085 -1.0376779526212774 1.508095728760893 0.226599549134242
Ni 8.342019295761038 1.7236268096640976 1.4420391090554052 1.136850543758397 0.6854959548978193 -0.028390892437867236
Ni 2.7757597211709566 3.3159083491465973 3.198146298167527 0.3959884533854471 -1.4117037856927042 0.9711437163444696
Ni 1.151155895413336 0.46436442665260513 0.3239137207784627 -1.5688470398073369 -1.9237919449879126 1.158473264234495
Ni 7.940161071574315 4.984083749956459 9.313795183764462 1.0138026886655764 -0.6990176435333382 -0.5517083447899918
Ni 0.9371361203035454 0.12032443974682382 6.08496601638649 0.8930282029879651 0.44796073268768016 1.0982585424178117
Ni 3.3876077153084854 2.349026952669595 5.7498989593346925 0.694160829661669 0.2608453576909895 -0.12612546557687956
Ni 4.224468899989498 0.8927201632179934 8.204295468661138 2.203664237403366 -1.5625324104432186 1.5696479384420774
Ni 3.6657237629468873 9.041193206676924 6.21237540624615 -0.4203982496883792 0.3694829508957508 -0.4063852232387388
Ni 2.576077991626805 7.544781925976527 2.780516223858602 0.23237270417259334 1.070746195930156 -0.9744031038220315
Ni 4.327165494040899 4.98470515664764 6.421946640513778 -0.47534838067201357 0.8607888833382853 -0.9272233608124354
Ni 2.085413440603321 4.948645291891737 1.6164871577707496 0.24704059059741326 1.926101566957696 0.2995432884818196
Ni 5.988258686238033 5.635875400669773 3.2992208379882717 -1.1225408120039442 -0.8540765043151161 0.7416514190434647
Ni 2.703045999969052 4.095134063220545 12.726515040063626 0.47811334501166036 -0.4312637316479734 -0.49907606330625665
Ni 7.5817739007692015 1.2526462294171505 3.588225210222887 -0.693556877529083 -2.3673257522524906 0.8850102177794952
Ni 6.334409628227092 6.398058122404705 5.696452500892886 -0.23355335474425581 0.9531953593961648 1.3969731643507488
P 7.966534302614744 5.490767799945249 4.881481280742104 0.27721557151889675 -1.8412538770836806 -2.5321265229123813
Ni 8.21750036084874 8.50557719221343 1.7971017540626992 0.31788785242727835 -0.032045458471319004 0.14836833613547995
P 3.3312516114185593 0.8110974804979618 10.421221410952654 1.2391038307033693 -0.18660629657075606 0.8223781447705708
Ni 6.014878652288195 8.381487758984743 0.6794159196364306 0.5216071545292371 -0.7264114621652585 -3.278736571512702
P 4.3963518184369805 7.03965139271569 1.716999690069323 0.2750013374763974 -0.12570997530601577 -0.19915816509383766
P 7.859972193410848 0.7384824532999508 12.90865391041571 -0.5137182386994636 1.1589985406103458 -0.23386857199182948
P 8.524383882955359 2.9864622811498824 9.939458510780343 0.8671955581955775 -0.5474914784951667 0.4606046467039358
Ni 5.355767196286114 1.7698393631538591 10.080229058333769 -0.16551708000062462 -0.24504310055141024 0.7637778186288587
Ni 4.919155889061708 5.1019773929407215 0.8187426104662305 1.16668485351101 -0.36622176364597575 0.12293215545056246
Ni 0.3090511348587973 2.3155806513501314 12.497523019029845 -0.47790585698654464 0.15177556204481604 -0.942964682807092
Ni 4.534084783870575 3.175031796922322 7.807275992165305 1.4355883056197858 -0.25005880859844676 0.487827744085947
Ni 7.931452239564083 3.419500499899996 3.5711182495480136 -2.0878272982366877 1.1478070427699008 -0.6711612834427021
Ni 0.8011869576069898 1.8694106470819665 3.8973448825843877 -0.0005234766036378082 0.23869710372872438 -0.35194159957787774
Ni 1.4985313741173698 1.9192054273797143 10.167633564781896 -1.4752293170501753 0.1592541298100483 0.48676202182559386
Ni 3.299404518495518 0.5732284821139811 4.085074585490363 -0.8266634024094861 -0.4139398956575452 -1.7003594807277427
Ni 1.136022814816333 4.551648661230139 10.457641326056095 -0.17558500575958794 -0.2591396878537924 0.1028667521592551
Ni 0.35210822172407485 6.560345790473653 2.92035009220841 -1.0329558645552597 -0.777716540197138 1.6375520584832186
Ni 5.902733021197362 1.3799797711071515 6.834574390958695 0.18054569219897293 -0.5867699643798153 -2.0858591187667237
Ni 0.7267844723384631 4.390850541553287 3.958200701985162 0.13660219673848734 0.3216051533778655 0.30475542881037837
Ni 7.377102641028212 7.5265235352562305 3.9942596529076955 0.6241836291415831 -0.5968252917332882 -0.5181827022287205
Ni 5.452688363443007 1.3467893431311158 12.650304992390458 -0.7775643308899899 0.29819088821898326 1.009088828129675
Ni 2.1034525113149662 6.776832915680781 9.630739097434631 -0.5169948525682064 -0.1572972631939936 0.9871341782354549
Ni 6.551463330123238 8.756323930438773 11.381055324484965 -0.7328219936772927 -0.22610178356221705 -0.26073505736537034
Ni 5.024045683199632 3.8833623181994397 12.030017747086665 0.2622262971989161 -0.0652168030169651 0.4753622646290845
Ni -0.08786233696618721 0.9624767196365706 8.227393520905695 -0.3651580982681518 -0.22305656897799006 -0.07192172584096646
Ni 8.128045212319718 2.167740688851148 5.881106240677513 0.532829762717934 -0.2847782143575031 0.009597156770131858
Ni 2.764647507399244 4.656044985348596 8.279917007644423 0.1450107325171567 0.2173111818537806 1.2623733427542712
Ni 0.39724884867154847 4.7193279461784545 12.943080754940521 -0.16079010683860048 0.21239446127845357 1.2387325634068795
Ni 0.7377367652705332 5.890396270710673 8.113293200237747 -0.0876144539858749 -0.9562094636321403 -0.4944393358651936
Ni 7.055890211689649 2.702799264959318 11.516716629670166 1.0073857293956392 0.4437369244143196 0.0807210693001513
Ni 7.2670314116858785 6.217877596963213 1.5346862775436882 0.8922872110568826 -0.23161448585033015 -1.4820957051527055
Ni 1.3885515281119758 -0.4895103794779515 11.10070495425842 0.729501413944492 1.0131462860285003 0.7287570795792998
P 4.432393406525495 4.280176182187161 4.366468553424746 0.04766131063170502 -0.3028499842575494 0.09918261843944855
Ni 3.1267265650166705 6.922708136435589 7.118937403510206 -1.453434589772587 -0.048422614277761775 0.46239901960019725
P 1.196938947219487 6.798481628201493 12.037146561201233 -0.031131945518114126 -1.6017779862074029 0.11459612478104136
Ni 4.364541278848715 7.728261389881497 9.921335367398715 -0.2422421407675054 2.30886349435054 1.347022543464235
P 3.7398447875376437 2.628330983688196 0.7398294436864232 1.6281693317167378 0.10232836315728183 -0.20324364801712091
P 7.026766342207372 4.953424640413617 12.87642026597742 -1.2906408222403967 -0.37330875239974415 0.7532470943008641
P 1.656834728695803 0.5312076822895853 2.3951992974911036 -0.1251247922265071 -0.4747958506026533 0.686858639573301
Ni 6.6766219483941045 0.2325934383425255 8.9900157964913 0.4567371933287295 -1.0351796116794558 -0.7604197007899033
Ni 5.281710140031214 1.9374181264315422 4.169202999309246 0.52612766810741 -0.7014298525192566 1.717465801390726
Ni 4.293307967705212 8.38009873226328 12.378527293002106 -1.270844613450076 0.8754652544035374 -0.6787501515335537
Ni 9.22889458074845 6.756399601541349 5.947887355645376 0.5711620826392293 1.0922061655761448 -0.4994884682533269
Ni 7.705360725644727 6.8535218120395065 7.706710457531307 -0.30718666395969035 1.5069996674832367 0.6807723241699051
Ni 1.6327917727473036 2.8647488146815947 1.1099730807886656 -1.39484789047763 -2.7082663727341747 -0.12445553407362438
Ni 0.6961792789644152 3.2746487725188986 8.166885872018655 -1.0576477108749849 0.7040570057294584 0.4171429759758752
Ni 5.036364157018932 3.33396569652563 2.4750208146400787 0.2837009221329243 1.1693089213974184 -1.4256900726694672
Ni 5.7495836868222545 4.166193746023864 9.758991041660863 -0.5887612837782312 0.8284402918042506 0.025105793928692246
Ni 2.668192395260737 1.4446608969921686 12.500866735328422 1.9591412710214842 0.8679306365893892 -1.4332012934448477
Ni 3.606818063956379 0.2834345578482181 1.3279013212193127 0.3094947432675767 0.2937421084190102 -0.19402650029422713
Ni 8.188303384696914 5.935000477470319 11.477207957778207 0.13069842965954265 0.04031515467927896 -1.3064029701706599
Ni 2.3355661871385647 8.86257533629708 8.81643680331024 -0.2632367407413015 0.6953939307378217 -1.0730807576006036
Ni 6.300552101891405 3.9049744773853767 5.681646572642122 0.05063890520279021 -2.1113518637211897 -2.599706426844884
Ni 1.0523339548481234 6.964954653102222 0.8888930290670123 -0.2723099066871633 0.9137906323462972 -1.8504072614481744
Ni 3.2536306050230612 6.425792965165517 13.316506881505592 -0.9477852441241869 0.6325967929059428 -1.0135741175945383
Ni 6.717077351656745 3.120119549756023 0.6206811074859969 -0.30812923037861767 1.2955266895777882 -0.47886462135538826
Ni 5.940702797695277 1.3171354502945969 1.8827544419417153 -0.13415759185273668 0.38213252133896125 -0.7410405249323431
Ni 7.585639415921697 8.869383394898993 6.08794876850416 0.0032894693845491735 -0.17282415518499913 0.3703005617010397
Ni 3.4813852956746967 3.1784038420553498 10.125810152965286 -0.1452698997158143 0.1831515052529362 0.46819737144952916
Ni 2.0647151147867677 4.408423557246547 6.008622549041391 -0.9185741697778695 0.7975610857268909 0.41036374827051264
Ni 8.607213739556347 4.479126845035806 6.669194310767749 -0.3447970181132965 -0.12124036957043635 -0.6410855471032443
Ni 8.475905022709524 0.7457081337516721 10.584086621711053 -0.22464859605545828 1.8795998238517306 1.0666123762674404
Ni 2.50234077705119 2.038478958751746 7.9991654645687165 -1.7177923314922094 0.7834367305103669 -1.2135257251239489
Ni 0.098837475732492 8.69233731791449 4.083282558253001 1.880608467621903 0.34310446090222196 -1.024348839612539
P 1.2126294661718144 2.440666162951447 5.919291681850603 -0.3777932705336591 -0.05909989148594983 1.3050562263347782
Ni 2.6402839241597422 5.555969810850814 3.8920620118759772 1.4416928758556267 -0.705859606155836 0.04891138098872221
P 4.391645576584652 6.118927719726286 8.663923496960225 0.9675097191363078 -1.805792193841961 0.08173536949727858
Ni 6.394229160586984 5.004973980780583 7.469452813671444 -0.6687621870829062 0.3000600802172381 3.8408139182418433
P 9.092715132042809 4.223308331610379 1.7883006248821596 -0.35918156896974274 0.44887321719962053 0.23452394618764125
P 0.5532045653240335 8.006852630871977 8.028749906069162 -0.6257489167461739 0.07905628000321868 -1.1004918026237045
P 5.703279749995556 8.922467975326525 4.967923520652268 -0.520249097839446 0.3119352343882692 0.5143322181343787
Ni 6.461185731561768 6.7531372164126475 9.808264023104693 -0.42088624506839134 -0.30841590838110106 -0.9641441450981847
