# total energy = -381171.61313473474 ev
CRYSTAL
PRIMVEC
9.28232776915134 0.00000000000000 0.00000000000000
0.00000000000000 9.28232776915134 0.00000000000000
0.00000000000000 0.00000000000000 13.58562496222009
PRIMCOORD
 96 1
Ni 7.141405131333599 0.1463080472344759 11.557929165575816 0.9499609116192672 0.9828885155852234 -0.9546804285821235
Ni 5.421686866199932 7.510312676140082 2.217690077238864 2.8279224285366267 1.2860604019585657 0.584558044330161
Ni 5.169606696250264 2.8186344620626826 1.9987710225502777 0.04578286266206954 -0.03430108727471512 0.23696623708054673
Ni 2.7179212078757735 2.0267590966539064 6.636523554581699 -1.3956986685136994 -0.6026493546142331 0.6546542869266144
Ni 8.576044551989078 4.623406694764522 5.2566721442038995 -1.6282819460352023 -0.3051989441057002 -0.41508480789526575
Ni 4.928925224562487 8.780218629325047 12.658528248494148 -0.012453652382320489 -0.9436825348097231 -0.44659136314397924
Ni 1.7982746033994572 0.12509328756220114 2.4462135562691274 -0.2498186675631827 0.619146838048624 -0.5513972413074762
Ni 3.5520125990948785 5.563650784129387 10.039491676273043 0.6056300345091118 0.4157283550165357 -1.9149866879914572
Ni 8.600930472217197 6.486323427395098 6.854980349357059 1.9278681719398152 -0.002945455781569121 -0.1349471776335676
Ni 6.055437781371473 0.17177411293602293 8.582731540773985 -0.0817371692694915 -0.35479629541785346 -0.3286700306444469
Ni 4.474527442791818 0.7403556626701958 5.773035031933107 -1.2612685397258665 -0.2521437161519335 0.6240185643186286
Ni 1.4141440413702533 2.0270190018260017 9.201666004670583 2.9861781989891476 -1.610084449190569 0.5297349258426941
Ni 1.343357011284597 0.2612139802833007 7.633409335040937 0.11812496386990623 -1.0081195222378703 -0.6179767289999228
Ni 1.2701287290467604 8.672979898853031 4.791187550377852 0.6443549618831355 -0.0447716477887358 0.6104457107302003
Ni 1.7272462327968554 4.133281234158329 10.515205395086554 -0.5919867326940643 -0.37681085201573167 0.2068125963153019
Ni 7.489761602889407 2.092329458642508 7.558430405822486 1.1545610736642824 0.44673457359006286 0.4280115432592628
Ni 0.5948458956071553 7.237013105354351 9.079436315165216 -0.4873762583708252 2.0853024749323055 -2.433554798584054
Ni 4.9581552740956285 7.367216314246497 9.980883059965564 1.1499834815959293 1.142265287016065 -1.2601087150898105
Ni 5.980148822412024 8.551529924863951 4.900171358433935 -1.2040740927927456 -0.6577156994607576 -0.8265021942412734
Ni 3.864724932763338 4.117529124263842 11.635856162032033 0.6020921965591824 -2.662242340595576 0.9129617086870987
Ni 8.156409086986148 6.312539690539124 1.2042242032654649 1.1411046910490603 -0.2795408772179637 -0.8490736517838859
Ni 8.943773241193556 5.62147968492058 10.187601423289792 -1.4280074079487342 -1.8082044028278792 0.7550664068977899
Ni 6.752224983103687 4.5093083242147065 1.6116896085850352 -0.1327393713489714 0.3493962074482047 0.9490283725026688
Ni 3.2038232094354173 3.839959682793691 8.398456917292938 -2.4785077091456604 -0.39237142545815 -2.226529572037314
P 7.338719568591768 8.342612578137244 2.7999704860079717 -0.11509928966970501 0.5768617041271679 -0.9873182692218029
Ni 1.109628002950369 6.242402423383705 4.915605084492606 -1.7737217956699776 0.3271289114095721 -1.7135957769123584
P 4.968904209427282 7.857183975283916 7.341196093588732 1.6836146571692359 0.6639400831039146 1.0410561250648909
Ni 2.9263280265858644 7.8490897856386646 8.638011514413131 0.40768697276929783 -0.21170823384470636 -0.041781969032792556
P 2.7138091367601236 1.2318855394384594 -0.08010184580699845 -0.9722387491808611 -0.3300653683300767 0.9840462833387503
P 8.013609759574956 1.559579549812695 13.26931097231453 0.2511255593000643 -1.2134493633600585 -0.1769083525567018
P 1.0517898198316011 1.5689082890253996 4.401321438140161 4.641301176476594 1.5311400121748662 -4.49685942908903
Ni 4.6312131322549535 6.5983425565681495 4.0765300115985745 -0.5249369902334184 -0.6932347183029739 1.6271452613275976
Ni 8.95288848687204 0.06577457319524782 1.0490561743608136 -0.5988991435431815 -0.09192593687703524 0.1402981575328358
Ni 3.192600875397448 3.112754293598757 0.9484645186651346 -0.3475789517338079 0.3682686188726755 0.5219169724601721
Ni 1.091685263748222 5.158653549711963 8.338068878789365 -0.2711608806843846 0.21781794628687004 1.882345762027984
Ni 4.99551664258432 1.0711156258423977 10.620466989785129 1.1259567796640284 0.696132351565743 1.0774336352526603
Ni 8.359348614754664 3.576341579668509 0.19587196355303998 0.9161339357674931 -0.032225435692609015 0.1862311726195244
Ni 7.3089140147489875 4.835758502693915 12.110184957571379 0.17555029586691057 0.9054180920118858 -0.03555218607299684
Ni 2.6432448825362633 1.4874558645562632 11.384427611478118 0.9443438225428059 0.6828793432105789 -0.9712403898233337
Ni 8.956471465315923 2.8863954533589444 11.226535219430255 0.18274475673282076 0.38232329719352864 0.24257921239194996
Ni 6.959555051815098 2.6514504601124136 9.888147038096463 -0.5456014605613055 0.3171967398975247 -1.9734638582917434
Ni 0.688367202389086 1.0201463651290044 12.550644396255683 -0.3528075471225989 -0.9631082476345025 0.2969477598405015
Ni 4.23966599049346 0.4046370801075193 1.2887936333342291 -1.4439392486876423 -0.8128928309879548 1.17958150696802
Ni 6.089968039949842 4.623044683989103 3.9098751023200706 -1.0489105881123033 -1.199763381232534 0.737191326389582
Ni 2.4204690207403354 6.548023058784994 3.028412280555576 0.3847339635175503 0.07622755230517195 -0.7831793630839222
Ni 6.976820181104282 7.021440329756492 8.349113920370655 -0.5892837319406045 0.4793613584861487 0.7197481912124701
Ni 7.208256454527528 7.105835252066849 10.978231100338027 -0.680456335591383 0.19615254549829444 -1.4068032630672933
Ni 7.681636596188725 4.606976974957072 7.850697484774625 -0.5893217842673915 -0.6473502970660335 0.2618642858738071
Ni 0.43552959450931217 2.4068796931707834 2.152071447146873 0.3100238762981693 -0.2126885954801047 0.5252061847344052
Ni 6.517456354081078 1.668897521661472 5.474558075833407 0.8873203539699105 0.8824879655782736 -0.3109062789031226
Ni 9.115431325034894 1.4150629918001614 5.805884260987673 -3.0663901898633643 -0.36745075095707036 4.0586619464357
Ni 4.13872067811718 3.5440762090183986 5.898796647080696 0.9482760677176766 1.446264040166077 -1.4476804608976293
Ni 3.9059663141783094 7.152766700285191 0.8048316382377249 -2.0824678336969877 1.056242345887026 -1.4469106726111403
Ni 0.003944989219302896 7.610153391534956 11.780149944182769 -0.841951438916808 0.8859085612240485 0.9611166711257707
Ni 0.25451956563633304 7.635299216935173 2.676218494780333 0.22544075293945046 -0.16783878615526576 0.39392360043661834
Ni 3.332169952812597 7.443284988722231 6.1409605064821715 0.7404756535678086 0.3587285405927242 -1.819492317036873
P 3.431973538897173 4.603997347805551 3.9392202527151388 0.0689911824577328 -0.061233135778868734 0.2709032561476237
Ni 5.149259834206235 2.3693512427857444 7.826025986313484 0.1427777294215799 0.3446011000524065 -0.6369782098030901
P 8.383204196621978 8.790030049571643 9.591138546219103 -0.8388990252437295 -0.5474616536984959 2.2109273467236825
Ni 1.6086552157008231 3.2466147395553855 12.895773402513722 -0.22731688691624077 -0.3306379530040951 -0.6662396777713687
P 5.832866130782191 6.114751854574639 0.3038347155758917 0.9774976835869553 0.6894030032617094 0.345503814372334
P 1.427779780577679 6.895822590686312 0.9249282488663947 0.12353816446567757 -0.009453174993099849 0.11441126246374489
P 9.116470945723275 3.045643065232734 8.965860539657866 -4.258438204729511 2.7494613589152457 -0.26374041985059743
Ni 0.47465738993549456 5.200433306126276 12.444092558024204 -0.6647039578531327 0.5626866981783664 0.24586148268764754
Ni 8.029324740159145 8.179410694716577 5.404293640790214 1.7125084573854505 0.10088366029095529 -0.5970003838585718
Ni 5.373010340397521 0.9881223349958398 3.38821386201115 1.451873158822738 0.044284680849988246 0.37312517563402836
Ni 2.8665869663142565 5.579560693592646 13.106093308936986 -1.7311029325581864 -1.1080739858463369 0.5262505668385195
Ni 7.319273092322498 2.554348031352113 3.1239868381970597 0.30964746679535704 0.5015144975444201 0.08899282239064028
Ni 6.428262468414533 6.328338212071484 5.779813915761006 -0.3011535703917329 -0.434985917694567 0.805145068721736
Ni 7.564493622194366 6.363471821942218 3.531067026922274 0.13062463899881374 -0.36666116517623953 0.9038995984848305
Ni 2.2342098356237896 5.145936760934446 6.499077345482914 2.2240183755796856 -0.4205008367045145 -0.786932145258135
Ni 6.432662291685003 5.159637476434896 9.974008568163644 -1.487839035394386 -0.5901774473994674 -0.7216369235947507
Ni 1.1195415288002877 4.695456121400355 1.258986223025934 -0.23567502907294896 0.46758262068366563 0.5997002992882381
Ni 3.5398991616097253 1.048791628024931 8.901097740168273 -1.009188844042649 -0.6911050735544808 -0.8446043031586228
Ni 6.5527013518827095 1.0393607832089033 1.241264403220068 0.5050590203625689 -0.5254378411292371 -0.14964154642094873
Ni 4.739018084709034 6.378286416751647 12.027842357887817 1.039496750997571 -0.06317020490058153 0.4210646796277845
Ni 4.363752145513792 5.212212579818734 2.0684655226803765 0.10298476579435813 -1.1295987472919902 -0.35780062946181607
Ni 1.310200537187303 9.016676641966274 10.39586900708626 0.16595905263404967 0.8540731618810063 -0.31052472719398777
Ni 1.3180812332983338 3.9315576913021166 4.2609550087863335 0.7664905895743315 -0.935380185591615 -0.6033438095780963
Ni 8.565666909760417 0.5028561728750717 3.690847444398859 -0.3774996505526402 0.4349594353320057 -0.8026775810178498
Ni 8.255479369192312 9.092643210838686 7.578741066788973 -0.06647690067631132 0.04774692836697583 -1.150016905937026
Ni 5.514148131172816 3.9992351416502046 13.390928956432715 -1.501421144954195 0.48691345980179374 0.07346670173058314
Ni 0.6610455994053304 3.4766400991872564 6.976693941449264 -0.5871481736548404 -1.9210786598218075 -0.8763240028594069
Ni 3.6888526722030273 8.814646782300091 3.6464361481170826 -0.39181683850626065 -1.2165809670105048 0.6839990586373188
Ni 4.751883390727749 1.7651552586124626 13.135560057823286 -0.3288497507554208 0.814024887709869 -0.39656232361104604
Ni 1.793197170216025 6.587556491926197 10.9345391844433 0.8824763956140479 -0.9416534201948364 -0.30194675571698965
Ni 7.280621480300904 7.741804643528775 13.123673109130957 -1.1352777999546384 -0.013645101587260372 1.649453180796179
Ni 2.2716918743709544 7.998386742352236 12.660524877155494 0.338977583218042 1.337199386726226 1.0332235163943497
P 1.3524722569630805 7.267709762644316 6.679182347417347 -1.0488882195148002 1.3669555349427363 2.5145915993524115
Ni 3.220967668466129 1.919046967475575 3.466902009328502 -0.8570211887657369 1.0545011948262033 0.4627808284196482
P 8.614055683408008 4.4399043609377005 2.7950109383847397 0.7431089774255976 -0.4023768734102941 0.3920904038826215
Ni 6.5415996881032115 2.4599560422436637 12.030124882238466 0.8770050880868315 0.5737606966043409 0.39481423057168774
P 3.515625875001544 8.696445622962202 10.840690211497979 -0.20581320851651008 0.05189591753834288 -0.3027178295550593
P 4.6722874317735785 3.5478077047034806 9.654094076529875 3.07575594734898 -0.6344238188123527 1.988826713901059
P 6.3274842379346 4.049498945467911 6.025116130115531 0.5351039034640913 -0.5661764564991798 0.8787719501792672
Ni 4.869592586704171 5.727298219273645 7.785215304897984 -0.10094022456050358 -0.6713587441654889 0.03312943556411714
