# total energy = -340885.79794464575 ev
CRYSTAL
PRIMVEC
9.10747481801999 0.00000000000000 0.00000000000000

0.00000000000000 9.10747481801999 0.00000000000000

0.00000000000000 0.00000000000000 13.32970999383752

PRIMCOORD
 96 1
Ni 6.503766098249175 2.217533483401367 11.751178826880057 1.2095582558357687 0.05623696811585798 0.0754204830228443
Ni 4.622389506945246 0.40721158840645316 6.008740238544876 0.114919312448415 0.2180251772016697 -0.3841487804380416
Ni 3.115840145420836 2.137305738549394 4.937550937559283 -0.15041544847249577 -0.7966203190801765 -0.5682333390282085
Ni 3.6662048430487992 4.802198380439683 5.424299013486087 -0.5932445163605654 -0.5380043649403379 -1.0527456455876774
Ni 4.1271432463526025 2.7614500889240747 2.470528202290456 0.9957052077339175 0.6232248647727395 0.7209892627084229
Ni 5.614876565095291 4.799329525901328 2.7216868542749983 -0.9821182130781022 0.49016384841829125 -0.4818504434565895
Ni 5.450532183683797 3.185922163429229 0.4794229340055363 0.087110774876579 0.16493395380364498 -0.38762311213988726
Ni 5.8440206291747145 8.465561691374301 12.640043769852184 0.9273467737641771 -1.3824214917888191 0.4363491165906807
Ni 2.3928796942805857 5.695641650956035 11.45124691550106 0.6937612802304052 -0.46606284160502964 0.695524285668099
Ni 1.3067860109076335 7.974049495418884 11.843086908066763 -0.13252494134532014 -0.667187900617251 -0.6044478412755526
Ni 0.5206215066712628 0.5110805161494185 5.371966552969125 -0.0004337451033089304 -1.2278573112552724 -1.4977159281884658
Ni 8.936372597279938 2.736504715652471 2.12258259490906 0.5267287920265186 -0.5047839123243113 -1.185617942970087
Ni 1.721367367861506 1.5242360774402375 2.7667542822038778 0.4091584151085018 -0.9142991965515995 0.9815055191947676
Ni 1.7641907140181612 6.975706331020702 0.8130297331799909 0.5792690280170799 -2.0863620265450713 -2.231114620304835
Ni 7.70568864517388 4.473628014788118 3.840436299021685 0.501716072032265 -1.0441877287153372 1.3971505704688778
Ni 7.972728911583768 4.116023019713454 12.540311457129285 -0.9116453038685203 -0.08624225622869663 0.9886706694846392
Ni 7.869486578101878 0.21065862263021803 7.114186394960848 1.0158878533293794 0.2277730006170529 1.4488670250065627
Ni 7.303393271623948 1.3567131873497398 0.7242555340461367 -0.3426899990726227 0.0386022857532303 -1.278580805752069
Ni 1.6732890087885617 7.053037898910145 9.42191848654305 1.375035226627077 -0.7056171511277267 0.5271095724047051
Ni -0.05321861780769883 5.050158487300827 1.652963857444919 0.8064403904943918 1.1782738439001903 -1.0966179214905953
Ni 6.114467091131728 2.13718734137797 7.0334076478880165 1.4028139394022423 0.6036343442353218 -0.5981998034833117
Ni 3.5667603265272083 4.734320371314724 0.7050378516290464 -0.14671177436866348 0.614541992286761 -0.24768825148374116
Ni 5.7827091093264364 5.862955069127859 5.152426320987148 2.9643937561242044 -0.06684971063469777 -0.8424841714918264
Ni 5.697781907516395 3.0922608933579734 9.735646400635384 -0.39891102634888076 0.7214757154265381 -0.31752918353627896
P 0.672693565890904 5.437053121090889 12.672994613407006 -0.8934951153220547 0.8571474299309562 0.9199167998486932
P 4.297443916234205 6.698165146252962 13.002399223743375 -0.04469580024547786 -1.7613416768380696 0.7332755362749436
P 2.4136720590776175 8.827975433103733 1.666493921896286 2.0548783541144933 1.8755901884717052 0.3013127216774166
P 6.498165001293338 8.125342865549543 6.013151899301636 -2.958432653444763 -0.18035363079282488 0.07950108085012114
P 4.949557321489169 1.227796882618252 12.843855392984194 -1.2027060088006254 2.3769205950297776 0.161203026006303
P 4.087043035138704 6.662682424724607 8.569297649986282 -1.316116597913998 -0.034461781222295484 -0.9782080793904186
P 4.866788591188938 1.264117491821302 3.8015264347543356 0.8864289525038929 0.2412548371535716 1.3071879279658003
P 0.11378787846589457 6.017508915210046 3.714537300666569 1.8266566959957957 -0.1907645417135037 0.833799499233635
Ni 0.9441445823100787 7.870051241534824 2.7115165372496604 -1.2628248284693928 -0.39530479705486116 2.511066874028604
Ni 1.828443948202594 6.831680725720544 5.018822399014735 0.07913058488457984 0.36040207164040505 0.25164106548390214
Ni 5.919603561916969 5.999102708790947 9.545618940499564 0.817280161422373 1.3622972102351183 0.4264318574769688
Ni 8.866108429777045 2.8459310244725935 10.438149642048478 -0.6562807667864439 -1.4195412794592521 -0.1421130992543875
Ni 2.519837891946212 5.684931260679509 7.26430490085199 -0.6259042113771156 0.3917463902796415 1.0129624521524683
Ni 1.0006655704530398 0.21984260014284485 9.296379233439568 -1.8938637899699124 1.0550051310458153 -0.26366611496923625
Ni 1.737779037315843 1.7526606510163907 11.479932728642195 0.08828165525622861 -1.5408837218251914 -0.32413357622667405
Ni 4.0570156909705855 7.247118185298561 1.80686925132669 0.5055033069888392 -0.269298116444033 -0.21642440837345306
Ni 5.715304688887175 8.148557818623408 8.030843707803593 -0.8003818430051377 1.0068810218450788 1.0269749643814765
Ni 7.275761193308488 0.8172820131290641 4.897895171111962 -1.978414517428799 -0.34747867871051774 -1.046036608998618
Ni 0.9350097851609666 7.829450119211054 7.215598126023025 -0.4762873475465152 0.8362060517925987 -0.4251074822385905
Ni 5.217954601633072 4.870559085725063 7.392404265100651 -0.4640005597593622 -0.7412356716622848 0.13530481808330244
Ni 8.280078861126228 7.773448257127414 9.228024903386496 -0.3966579686486459 -1.0503151817693137 -2.1443817975929647
Ni 4.80488508548354 0.6792983065614285 10.604331001111994 -1.0284932007982157 0.08591392635500042 -0.07968337206425631
Ni 8.111126097503915 7.376708443159694 5.14194908206358 2.231558906931105 -0.21966836923204747 -0.8296507671725841
Ni 7.092792026084497 6.3001138559248515 7.470569166927426 1.4980257461194006 0.5321273373342706 -1.5450028861998877
Ni 2.296877803205021 5.783073408315434 2.915887359329782 0.3901456214514249 -0.19010916751769194 -1.1258230822996418
Ni 3.9168607624285245 4.702152770586246 9.609108057554577 -1.3435703232495766 -0.3021683848094925 -0.523590246397537
Ni 1.3987715056295005 3.9180083042438665 3.952138565775569 -1.763227323896557 -0.7412832370707685 0.8405285904273525
Ni 0.636142537577313 0.1328643950247483 0.5160641263189042 -0.1686808224405869 1.8628462585424757 -0.4729361716860952
Ni 1.133334154771202 3.857489134696658 8.071859220227347 -0.6586089006989884 0.04677376582042912 0.7018024053673269
Ni 5.4674265492985565 3.395639983920361 4.77464918014422 0.3193613516490113 -0.6691666216101766 1.0141847545953437
Ni 4.2241105297490105 7.085150854790275 6.181879708298243 -0.9189683198924947 1.4067009331614742 0.6919005728725826
Ni 8.513421471053848 7.306061761718354 0.2727807077290156 -0.39851096269698466 -0.6139285270724781 0.43893281815745694
P 0.1634864572924051 6.085906050394326 8.132962178904425 -0.09678506474154945 -1.362114404800351 0.30290526297551706
P 8.694851475049324 1.8696552713329355 8.442131801896927 0.21818252871514038 0.2213483280376317 -0.8441543601053978
P 1.9921963437569674 3.851560168650724 10.318275238223908 0.16401992662980783 -0.5057701874969806 0.6842857366398021
P 4.116915552236498 6.403966390213311 3.938902672757818 -0.3215825276700462 0.6117795990502755 -0.6374037273762829
P 7.200979718342028 4.507179951674788 10.537122391379318 -0.8788961344619572 -0.9839521809630475 -0.22630644337385541
P 6.330560143930317 8.174687163609253 10.283764284248702 -0.06741149667543873 -1.2404413185678702 0.5767382911754261
P 2.3932804231684828 8.82776596118506 5.961059876117412 1.583533438174918 0.14746227938144282 0.16143982460745745
P 7.238894135621942 3.885266932607717 1.4552041512676297 -0.7991834518216623 0.4286327217830295 -0.2510265718283548
Ni 2.7044828345195913 1.9086443706303924 0.4286633343735705 0.8042107298329246 0.7930323446186021 1.187487392078658
Ni 1.4164400065958789 1.550456497173332 7.213438743765742 0.5530666585900992 0.40794793974016835 -0.12497669668441702
Ni 6.971489570223056 1.0233705049423085 9.526543334688185 0.49694924677124097 -0.023062538246418345 -0.612010741224475
Ni 2.619938146647998 2.113453262244783 9.291993984359511 1.3640334761999346 -0.08511199927899536 -0.19857606733812252
Ni 6.685988452545722 2.401495365370376 2.987587775596796 -0.23433085634022868 -1.220994522697168 -0.2805361512516975
Ni 4.1241286722186485 7.360141946635032 11.043811283216371 0.05235537367326467 0.27210550398584105 -1.8287038083328118
Ni 7.427182068085297 6.272399810336867 11.745114159460723 -0.2570282979377444 1.0741109986373307 -1.2422575458410026
Ni 7.663429962450171 4.118454715465012 8.243879381337019 1.0407247098674013 -1.117851891168707 1.862297070907225
Ni 3.178444926680055 8.89729242323523 12.982258043389177 1.3445177747645103 -1.08028344599663 -0.8612233997725426
Ni 0.16998646200359288 5.080996396719464 10.31743552905427 0.6851449993163039 2.142572255188052 -0.3191934586125793
Ni 8.35037945852802 2.589592040864507 6.03137413473129 1.0792184950672252 0.552774581270977 1.6368905136398197
Ni 3.769510928853763 3.093135210931567 11.81493479294451 -0.030286309688367197 -0.2628168795950635 -0.4098436141009845
Ni 0.800066153656515 3.0434994736806584 13.018114171381255 0.16607089562156563 1.0722893720475597 1.618698416111825
Ni 3.2285633600913854 9.0509628442691 8.180656202543977 0.6277008982662222 -0.6968496893477418 -0.09023646498975427
Ni 5.626588777591561 8.342046119154702 3.472255704296424 1.375586985365489 -0.6292813553794647 0.6878814244108604
Ni 3.290867594684682 8.636053618225128 3.8511931374193087 -0.7951547902782434 0.09454717654996621 0.19272372232240356
Ni 3.7925801623320297 2.869920112898078 7.198856765983645 -0.8812692626798242 0.7391443363508947 -0.2985210178648923
Ni 5.23636080805217 4.902699364029367 11.644488403467307 0.4282308583589206 0.5212680260222635 1.0364841894234922
Ni 8.284022397682126 0.08311572508725061 2.480232216609877 -1.0262141749560518 0.9268922027252617 1.1067660656681906
Ni 4.797016227321193 0.6892919385771021 1.626810833024789 0.21226462056880865 -1.458070802993018 -0.6875402390213579
Ni 6.4055875207143504 5.938847656010762 0.48394752744888514 -0.7938746380142392 0.16184991556168254 0.7964897070395831
Ni 8.218184462895554 8.473503409334448 11.269963541848654 0.18307540059936211 1.5078481315264611 2.178538903090648
Ni 0.14808025304770112 5.2111331030640935 5.954660964375671 -0.17488643703066653 -0.5756211468518474 0.3978931266073276
Ni 7.3663896742963395 6.610815356166089 2.87873705917929 -0.6129255397292606 0.7906792710053931 -0.8706719467799521
P 8.92355838034195 2.055037919359035 4.0988991457356265 -0.04850180425512937 -0.2749162339617588 -1.5863169144573261
P 2.3113404730682214 3.5461865411235753 2.0934177285973936 -1.7605294653494197 0.8428209860059549 -1.944599368651567
P 4.818391470500621 1.5670047787485428 8.518138232213893 -0.7888365613696996 -1.4843441348672501 0.26584178246431633
P 8.684505383761795 1.3235346569267934 12.116879456237719 -0.2885775334989353 0.24037294876925053 0.705095988516934
P 6.711115975311823 8.12496945908582 1.413521971694009 -0.36889416827181626 0.241105713170217 -0.007808440300825262
P 1.945174451752116 3.6193468855889965 6.0206965313637735 -0.4327914811464094 0.09747669149193534 1.597681704650842
P 7.109294770286083 4.2590832326927694 6.255419834459694 -2.0167128987883656 1.1919618829102439 -2.0332178384219244
P 2.6439181275987584 9.047930055185693 10.489415617275151 0.8975070646949254 -0.15943976345829317 0.5908274222786406
