# total energy = -381173.65735225985 ev
CRYSTAL
PRIMVEC
9.08520842451804 0.00000000000000 0.00000000000000
0.00000000000000 9.08520842451804 0.00000000000000
0.00000000000000 0.00000000000000 13.29712087622321
PRIMCOORD
 96 1
Ni 8.207150386206967 6.721900494816653 6.493555589046915 1.5862310396117392 -0.34663921352835786 1.3573105556538045
Ni 4.92752638300454 5.182947935772753 9.033292928406798 -0.8021553899657926 1.5049291581074535 0.6552420411092844
Ni 4.743514569325685 7.115608006704342 2.548871608021516 -0.004444666034914926 0.17149335218871756 0.054255933130087204
Ni 4.82240143503979 5.613741268902522 6.336237935087187 0.6611458081882292 0.42798557511733387 0.49963347847162337
Ni 4.674739540711636 5.6506272155568205 11.422931720509293 1.1272587863049037 -0.7458677711176573 0.31268213985662274
Ni 1.50001335526057 0.3894565428139085 0.93356059679895 1.186079455987538 0.372030657018269 1.2665025344312963
Ni 6.850583388514062 8.037702161810584 3.35501033806779 1.9803564716465185 0.6254313855057552 -4.035453883750353
Ni -0.14718401235918557 1.7734872173889027 7.930988210872969 0.6681170972997398 0.16445135774027161 -0.29653226956963774
Ni 2.0680205929026205 0.8366541284754507 6.716163185626459 0.8110982009813772 1.4990331043379925 -0.6452201380969083
Ni 3.5616833873968474 0.7671041315733204 10.644877187088085 0.2881422457337296 2.0229547659330196 -1.105286652909187
Ni -0.005511087497659438 4.197266406126255 9.545325287740525 2.255191458748381 -0.21306706186544594 0.394068867765231
Ni 8.290661623065665 4.433472742841797 7.5243488131557905 -1.2823407870151335 -0.8115427447179636 -0.6172763604987885
Ni 8.393070093678288 6.622108564262266 9.072054062102833 -0.802921835818172 -2.6019612843173316 -2.3597273710799422
Ni 4.932268861860093 8.390480809245659 11.867999733290103 -0.6685379868872422 -2.522378185276365 -2.5081931520252354
Ni 7.228709767763297 8.7052651145851 7.444805086864565 0.8255125766344945 -0.38328051890047543 1.5403275922114052
Ni 2.3149747313157083 8.534499534951062 11.940336163650084 -0.10104435423853567 0.6043007741747269 0.2581115036995942
Ni 3.7936923577689687 1.4693689468701885 4.223524475835677 0.6630245132681807 3.448508055914306 -0.8214240083874176
Ni 1.1731093817347176 5.659739679717968 5.275260014139828 -0.8032643067592553 1.462823744296971 0.5974043041652098
Ni 5.37576331652255 0.12858840752863937 4.678113787161736 -1.067083659476904 -0.43922849502100486 -2.603233466161536
Ni 6.96783708987376 9.031015266626937 12.133715735849938 2.637212908430774 1.291915575187762 -1.052612976664555
Ni 2.081148719236478 7.136304111748306 0.6891966513393454 -0.4364889846026548 0.1792979358348009 0.3354299750760997
Ni 6.345427623520887 7.791592947791302 0.5181612410118028 -0.5422042619542985 -0.39385495198221204 1.4319787338916563
Ni 5.946150878800912 1.889423563510947 11.06110420537282 0.6301161925759342 0.4647109555628255 -0.5662651595582441
Ni 4.021476706172064 2.0704009175389326 1.543010921696727 -2.556481554717978 2.6011483014977332 1.6956152811745377
P 6.243418902083828 2.58062622889494 1.8575544690099748 -0.23575421905031654 -1.045181202976858 -0.5690352661042136
Ni 4.443739028486959 2.117235167539649 8.614606544171492 -0.19429518057458153 -1.0692302735062618 -0.5721738117331953
P 5.730731499214689 3.848430739195606 12.276061874663947 -1.6153978909836826 1.198322277910633 -1.28051067578493
Ni 7.257691582991674 2.362308667785879 6.224515308683927 3.023368949106832 -0.34812376849368437 0.2003521854019388
P 8.485657453863992 6.399920704317064 11.305478144561812 0.04439189585181387 0.32293415660193414 0.12260202580465339
P 0.8972679142620226 0.6153965938842886 10.551877358434869 1.6208789687029117 -0.8608300209888657 -0.16340954673931857
P 3.064740650919801 8.54243092200259 2.340798528057131 -0.685673103905632 -0.11935960760795572 0.9029917419585803
Ni 6.861512894382319 2.1047248353862082 8.651319871863615 -0.7247294464771454 -1.7458170988399093 0.083447724202695
Ni 4.124157733040754 3.3755819757548164 10.479368309112711 -0.47420372554460916 0.6683245853248555 0.842557447931923
Ni 1.9033602734044677 2.3015740487257847 8.958084663628732 0.35772503902887426 -0.7956461280923652 -0.16211088253255307
Ni 3.5730035572321315 7.159698523727324 9.920170998187574 0.5980802471863119 -0.06922592417635819 1.4870777317483292
Ni 1.039029874167197 3.347308806792211 6.426418623531825 -0.23950494434200045 -0.9172461949950653 -0.614636094662464
Ni 7.3202795845930195 3.894120252920844 3.1539837458435716 -0.25341332689297646 -0.08753140735376537 -0.8469190673347285
Ni 7.233170605154248 5.555132588639744 13.247735829790349 -0.8569047177925307 0.34327312526960235 -1.2114264193927586
Ni 4.03668534526056 8.732366291646619 0.4009929406123391 -2.0189011646889354 0.050582598043558046 2.9114591129087017
Ni 6.352468660135932 7.28706406218708 5.222882878411578 -1.3020058695442287 -3.041430434594233 2.700920988112697
Ni 7.1979109108278125 4.879011369424749 5.455635927362762 -0.4818725549437765 -1.1059404844431018 0.02583598722649744
Ni 9.039818833697877 4.776439365058487 1.2540713090783417 -0.5825687818142741 0.6215544190488522 0.003547351031626149
Ni 6.4795434719225495 6.665181537929268 10.543925983924561 0.17262386624873496 1.0263890099710193 -0.4304026691992588
Ni 5.174026260990852 4.525378712387335 1.4508887241880437 1.365659441839132 -1.5299321079096941 0.4114328129649753
Ni 1.194759433674913 7.2798049805671825 10.135105227638 0.03843464982711445 0.6100284206871236 0.0035074989326262175
Ni 0.32423383073725653 0.27512010191497305 2.989286176990422 -0.19121525609767714 -0.39005460439951534 -1.2417551522832873
Ni 2.6317941233671096 8.815259734324899 4.563053255142518 -2.225460764453167 -1.5995295564928582 -1.3639015786077608
Ni 5.425722878259491 5.1188427043459725 3.713926043868622 -0.5226618210459966 0.3968636569015488 0.5629445798254434
Ni 5.44273947384656 1.4005848330476043 13.32212006615424 1.214503772766502 0.2492987905039707 -1.551943836294095
Ni 3.534700318046289 4.2074690953116685 12.934069913621633 0.39787384333361797 -1.4046139687254584 -0.4493846096184002
Ni 8.484167479664162 2.005223631504958 10.561038882722107 -0.9001591576057917 0.9059156004735945 -0.14650994277050253
Ni 1.7889139014822522 2.0704190879560036 3.3295590348763238 -0.43221683958986207 0.25258928832978433 -0.4483772513998084
Ni 2.809219160857698 5.216599548188398 1.8583394310274455 1.5959919756532448 0.07012092518680181 -0.8398991843734698
Ni 9.064194448198734 2.5061729449461776 1.8975920745052524 -0.9967223361445222 -0.3638272952718702 0.5374734321375324
Ni 3.320961702039141 4.108349470188911 7.673488870912678 -0.20806060978979007 -1.2087360170447892 0.4601963555219236
Ni 3.6828255580097564 6.387782865713581 4.623581639968855 -1.6302835498462631 1.4359881121613656 -1.313689476529744
P 7.295495135708062 0.1704039883343224 5.395400086251269 2.232314554150207 1.0651992979699978 0.30158423017124836
Ni 1.8454874950330686 2.929171169152452 0.6418400018478356 0.1114992310232725 3.018285106826021 2.820628980199007
P 8.88635149111551 3.3073066336102226 4.411971688321585 1.0158878533293794 -0.050979062151028334 0.848939183088551
Ni 1.323951099050312 5.269757103329852 7.693448165544409 -1.5378284799386353 0.1009538514072584 1.0470953892804356
P 1.7325401825192175 7.658331108991981 6.174997288081812 -0.43566186071566904 -0.4162441183106896 0.5683351547133955
P 6.606436579538458 5.845677557606359 7.695257030563836 0.14133919720284044 0.7552070462407123 0.3142839371261039
P 2.61225183980716 5.058644112589475 9.783702080775207 -0.11905518899365947 -0.24268025674618846 -0.2625212027315156
Ni 7.295722265921451 2.970263567358706 -0.07804284984115455 1.3183169479994263 -0.5863092226933128 0.9015519241882601
Ni 8.743086837718558 4.191860707047608 11.769109055422442 0.5030641014197271 0.8360558993679795 1.397416936756387
Ni 0.5068465223016395 8.627450303478186 7.831804989290462 0.4119683737534711 -1.5438713436986056 0.5151395445270225
Ni 1.790122234217479 3.1245667491263416 11.118719872342663 -0.13132783571342543 0.6522487628089154 0.6165518236279381
Ni 2.990160174051542 4.284375385565027 5.35840693413625 1.0980772796449412 -1.3548582374585698 -0.8682646228900401
Ni 1.354268439933414 6.908029162084291 2.9997105452641026 0.9674171594225017 0.9630159450310125 0.5706409200284366
Ni 2.963095337824164 8.971343616965502 8.65104004744072 -0.23374413059882326 0.0348477038068045 -1.178251475302687
Ni 2.5265510676913974 6.263806110037583 11.878317804623919 -0.07863847573950973 -0.6826145195849663 -1.24280827613815
Ni 7.298366061605294 1.4781815991496638 3.4491403666628275 -0.07278870182695206 0.01540579303210895 1.229437768368515
Ni 5.802858969778352 3.835139079108109 7.431269034667461 0.42310999219258744 -1.4557205575932866 -0.775445227664458
Ni 0.28885784574156526 1.278388778244572 5.088036579243658 -0.5660576715331284 0.05673936167357325 0.9769479817310722
Ni 5.076887211328842 7.556113427758604 8.155935248650414 2.577958493644831 0.5620146118120063 1.56476644198006
Ni 8.72753296070571 7.5741112258675125 1.4334160511324903 -0.5618935128531097 -0.7928659942440668 1.0547629331280222
Ni -0.16044296569595476 7.918395203321854 4.653327521235071 0.9972224157093923 0.38214280575160636 1.1166213611957156
Ni 5.642159801201695 3.0076582856909946 4.945691348950502 -1.9920516485962596 0.4799131172245606 -0.7646951882368056
Ni 4.108885497492508 8.099363472141304 6.272477941584757 -1.1268864905671496 0.24830068825675947 -0.6941831982591722
Ni 9.48086936726427 1.839791069281284 12.836854548207926 -1.8323416621957154 -1.0605846820161218 -2.010446606163679
Ni 1.225839932075 4.592681937218625 3.1716690127788563 -0.9943736334066875 -2.3098430846549896 1.9542399770651246
Ni 5.397449709296886 0.4899843752596746 2.1736534040245075 0.4194963066994001 -1.6135304987576407 1.8869328671780343
Ni 7.614286018011676 0.7693418184356242 1.1461880918022012 0.7056714014044297 -0.4631621230184669 -0.7051921477751663
Ni 5.544293934856842 0.8788912629571829 6.698171747163526 -1.7203778328311985 1.5476578073242313 1.9645698982362232
Ni 6.803331218920711 4.021531217423277 9.78996542353961 -0.34973842127897187 0.7212188622207257 1.476006304425516
Ni 0.16617664080273495 8.367259016228815 12.754745159026262 -1.4053140801162765 -0.5025187704392184 -2.188990180330959
Ni 8.304316691494584 5.912517436802337 3.6909749900661373 0.18801860353725036 0.7283809271868036 -0.5646967866298598
Ni 8.112146360550812 8.578226643632622 9.987255269493158 -0.43415390871157483 2.1761133243682913 0.4377863632578396
P 3.323323856258382 3.603439005826196 3.234205228691549 0.814498742022494 0.1273912196631806 -0.12252386426855029
Ni 3.037039850094936 1.6759756741769365 12.73400090237706 1.0129830209777586 -0.8977793445197054 -1.8700384054155408
P 1.4899378589946544 5.052956772046225 13.178471108436234 -0.6014717893663641 -1.0378579298425674 0.310047273336937
Ni 3.0169433688143177 6.591627689625525 7.750665900380396 -0.15925181581720316 0.8841915785329417 -0.6134875828803177
P 3.8615406951123927 2.345228475739061 6.235724638975078 -0.17741743098263638 0.041572424125147764 1.1852312490546297
P 6.994211450252437 6.2325984187179975 2.009713541563223 -0.9721883555589 -0.6805365540100151 0.13748331379186
P 5.535208726321301 9.161251730983924 9.946193760995927 0.7127172525076177 -0.6774617717394332 -1.4945395873430132
Ni 4.3757816686411095 6.2531219047997855 0.3986544079352907 -0.059044098547349926 2.139438851765393 -1.6785153882694577
