# total energy = -340892.3329910023 ev
CRYSTAL
PRIMVEC
9.03382080251191 0.00000000000000 0.00000000000000

0.00000000000000 9.03382080251191 0.00000000000000

0.00000000000000 0.00000000000000 13.22190989708002

PRIMCOORD
 96 1
Ni 6.611907548380694 1.9428947768192741 11.336637312281832 -0.6412177018057345 0.34579974834619803 -0.16219598604719163
Ni 4.768872625203555 0.3893341827715337 6.190352437439683 -1.1066544797909907 0.2728956039873042 0.050585683367351586
Ni 2.9173188091383633 1.5458673923685615 4.9546594708746285 -0.9621348279776397 -0.0634856792584713 0.015545661044082903
Ni 3.4533134568943913 4.283277662943227 4.82406655932671 -0.22519881213197346 -0.05634521155894812 -0.4980815606034713
Ni 4.8448470570047455 4.490522542842287 2.412165625136112 -0.6052744509419059 -1.2234846361088736 0.08324049328789535
Ni 6.985916757774399 5.602486494801462 2.842049918731189 1.066901368262769 0.4699272096564423 -0.9254585556025288
Ni 4.869166102237659 4.623473281584037 11.149745630343304 0.11362810444081721 -0.708015219046258 1.1872567641250908
Ni 5.618024666347008 7.6782958750798205 12.298332691282505 -0.4326582980026549 0.22536027741050219 0.6400074835477172
Ni 2.105657123758874 6.501622665689977 0.5474106869316716 -0.34451651075840023 0.1873863692698902 -0.5944480497503634
Ni 2.97863134999861 1.5738541687918775 0.5109474765774336 -0.8533527387752142 -0.4433615433527719 0.07787948608629812
Ni 0.3776498391221093 -0.08627298736044742 4.890030614447888 0.03496468900064301 0.4405042764096349 -0.26459145499698306
Ni 8.370738229129904 2.12670592591069 1.2813408623904308 0.03370947643730324 1.287816465417724 0.14567664823592974
Ni 6.847383117861052 0.7783566987300898 5.124918082202888 0.33617173833813074 0.6712993516824632 -0.8052612825846261
Ni 0.8145579282850135 7.636776435298814 2.397621173863827 -0.8202952940996131 -1.3448386484390387 0.6784634735310703
Ni 7.388192792032068 3.532007068716051 4.059536123125956 1.2591345241019993 0.8345631168725369 0.17237395502145797
Ni 7.475215586507794 3.935737548100948 12.557428991658295 0.8555574597360169 -0.7896135487450402 0.04506192533564497
Ni 7.939834017181634 8.567142524229746 7.14308355619347 0.09590780434291869 2.5373615460590755 -0.17064797346928673
Ni 6.613660109589901 0.6042749744959723 0.12071984894203087 1.1035809830719896 0.21902636477267443 0.741130256432672
Ni 1.8356362240516726 6.698840004649761 9.289541930990401 0.2873349193410858 -1.1048660204320007 -0.4941565145174522
Ni 9.118919256689303 4.740379954822942 1.4211175560274212 -0.6418751328840752 0.0645737701163275 0.4098580122786877
Ni 6.336466356273884 2.2075315194095304 7.239405765662793 0.8991975650234707 -0.6646656484160295 -0.6321406792051307
Ni 3.201387299981219 4.117769034521158 0.3230096782057815 0.2361882212639416 0.3932821101978775 -0.23616071046011583
Ni 5.68138788449844 5.350695845198279 4.826803806988512 0.12474015519357873 0.46696401326306025 -0.0911674614444559
Ni 5.317460418968008 2.9363079001783277 9.384462091492361 -0.39035516635906964 -0.28086602378729053 -0.16262407472354573
P 0.3496151834492636 5.692472382455642 12.679996256926525 -0.6324016461760011 0.37173729414756623 -1.102057861559244
P 4.1491615613355615 5.978817396106333 12.763532900007236 0.2836168470595502 0.6056128081179312 -0.010811231682891057
P 2.5464714369777637 8.537258645466567 1.5755489135488219 0.39560201658030575 0.2941079763988612 -1.4411048645626405
P 6.316799728683969 7.909814631108464 5.8542121008958485 -0.4986680292345605 -1.2864306408137909 -0.24589722102158942
P 4.645687446601769 0.935172081525252 12.351973711633171 2.1229151430787567 0.8145038842288166 2.329958367347626
P 4.06035910418863 6.000200449622792 7.991137084743936 -0.5027892504917857 2.233880098865114 0.1510962765896043
P 4.651180009566706 1.1244577259402735 3.810514339556908 1.3405006831853172 -0.9240984420302085 -0.44859990893357576
P 0.11892663553982682 5.700602821055055 3.5901848738051907 0.19350945144849255 -1.259217570734109 -1.3721445353428434
Ni 1.1257676299368458 1.0655120460945227 2.3760700912829806 0.47902017309664596 0.2573651124518729 1.4083868055043292
Ni 1.8619607774724416 6.525074464138954 4.602335044607627 -0.04570187291248903 0.16068880537404584 0.47632411432172156
Ni 5.93876143527322 5.717785147961817 9.12678048743287 0.7251683337867769 -0.3353980933968998 -0.23473940463255702
Ni 8.639891882053167 2.518620167864438 10.172117301833978 0.459905306644066 0.41153102910573647 0.25333002315055086
Ni 2.2826567720681146 5.2084493049912 6.925848174019863 0.044917943558612956 0.5298136015994296 0.1460522864077936
Ni 0.668201903056964 -0.07305470096193363 9.299405056393557 -0.14516525581714998 1.1796118459853233 -0.9183916214534183
Ni 1.324457481665189 1.2405332876779058 11.319025878893434 0.9409877615863794 -0.39274115009274296 -0.7228003477752326
Ni 4.284406890526479 6.870292887070067 1.6063298507041364 0.15989562004878916 0.21756700661832856 -0.2511759529220255
Ni 5.676464452235463 7.801327478730285 7.9414492643167165 -1.3919895950932284 0.4393318533680886 0.6596039176224059
Ni 5.37592730631846 2.836610655308181 4.949754106252982 -1.1028171083227718 -0.3544162863706154 0.35044418909674485
Ni 0.9036530812215241 7.528135707969311 6.97193963043994 0.35070027097160894 -0.7371561022762724 -0.1979906271482977
Ni 5.111335732831534 4.3449515566301145 7.141034685666417 -0.36837737653639785 0.9286847758493102 0.06194250314106751
Ni 8.306453561270537 7.166286021192064 9.102809244295596 -0.9732170539337305 -0.3696431306226989 1.0051887217443203
Ni 4.669943255090019 0.6066047968457378 10.345668740795002 -0.17804400882304175 -1.87896630403279 -0.19662485714902267
Ni 7.889651143381918 7.15108210101116 4.544065997929761 0.5565289061070867 0.19268849820909395 0.4096140145886817
Ni 7.361660460735979 6.315968617182694 6.993279321617202 -0.4233902424371676 -2.0081364699732642 -0.42619814419960794
Ni 2.2908233459501925 5.057006335346117 2.4882448492570273 -0.16982702022988816 0.1780632920967514 0.45929672652578957
Ni 2.565713474996376 5.507260991160993 11.42998378122377 -1.7989486885575663 -0.7928670226853313 -0.09753402709243203
Ni 0.8437172946307782 3.3796607170043673 3.687881127397815 0.18484380535369455 -0.16318663209523507 0.2916420313568719
Ni 3.2226709814703507 2.400683639069606 2.751003460530819 1.1237502589310129 1.128031145694554 0.3076810870976056
Ni 1.2340379706190407 3.212815083123728 8.199924037830684 -0.602813133885607 0.6636505768879538 0.31765876713560776
Ni 3.683964966139097 2.5966452769568136 7.213887029045432 0.2006370636322093 -0.10302358945209354 -0.5476069210271085
Ni 4.142883055972681 7.026216631765495 5.710847173690317 -0.408285011364613 -0.07774990248696932 0.7372764299042207
Ni 0.941613195660121 7.486986654835611 11.491307162668814 0.16361523499222147 -0.22130359084262533 0.016893690431545098
P 0.25986146498620044 5.619054521902934 7.909425273437759 0.685399024308639 -0.5131505391214517 0.7264307454389682
P 8.477834173125517 1.6697662428029634 8.117036023073792 0.8533211142063305 -0.255059861357464 -0.7949524444594502
P 1.770863729876342 3.489701686537101 10.485013617804157 -0.07017774656666623 -0.41039228751560286 -1.0311458079297144
P 3.8753554907693 6.071901884248955 3.5836001219217324 0.2735376084466773 0.5033788044466685 1.4301339673734337
P 6.831718472826182 4.143099867668666 10.35250372951091 1.3039722492419803 -0.8495215379545821 0.6322944311741756
P 6.3907505846559705 7.666344130338683 10.230756735159153 0.047734329961485536 0.5349131276095239 -0.6217269400709745
P 2.3503291226772363 8.585941905035723 5.717655964326292 1.037930692062032 -1.0233743915144116 0.12634683755906628
P 6.673635644991578 3.692122506200509 1.4322101844232216 0.795399816409514 -0.20556432573049757 1.0624551595659573
Ni 5.167517063553484 2.7769242021678173 0.09630865873832396 0.5870399302117503 0.5025604223104312 0.5779865617602304
Ni 1.5806295342913892 1.0659005003831614 7.032205151484996 -1.2605121211758161 0.14013592092335866 -0.33745960391161883
Ni 6.950278335246969 0.5623851480676588 9.160258020056988 -0.6422538563797326 0.10319739602579646 0.4082557007885743
Ni 2.748702546407185 1.4427101941833314 9.001581670204628 0.11991856543521928 -0.011787993773863569 2.2380113474246683
Ni 6.450852593546971 1.8444713006630358 2.7165475651285695 -1.756713176927123 0.3924429021260338 -0.7390232373919983
Ni 4.197998395856041 6.88409656504774 10.344742774176735 -0.1424468284447224 1.2054617171688917 -0.42257931650009806
Ni 8.032810099476265 7.540602380488413 -0.02638146649096488 0.593955683494977 -0.6520610722781415 1.2161937588744152
Ni 7.732110344787275 3.8538730652255158 8.350230552835983 0.22811135779307812 1.051023520690248 -0.8981734946343306
Ni 3.274913566381918 8.432132074376145 12.517935837852674 -1.1878483749625026 -1.310926054851994 -0.27619252957102114
Ni 9.285322233357308 5.1346249225085225 10.239232265708008 -0.509264059582852 -0.7543680952791846 0.5337098513300421
Ni 8.797342342441151 2.591468897715186 6.011711343915429 -0.06941670003092561 -0.531652197470065 0.1375442489367825
Ni 3.3323957672797744 2.4991703519705064 11.606761197544627 0.585669532226785 1.4087305619969932 -1.3464023933817328
Ni 0.8701972297670025 3.4212885626333662 12.549945374618567 0.7280585108503784 0.6470181105375954 -0.0417292614179862
Ni 3.050043702363462 8.209764578682174 7.960752732315859 1.4071570468622863 -0.15203498635378979 -0.6634780558658315
Ni 5.735906992217843 7.642494843780402 3.657471480271874 -1.0174413138594283 0.6871165212203779 -0.2919269095871424
Ni 3.195894737016281 8.307094962537825 3.6151209289895934 0.6756015786022429 0.5741044530970048 0.40480605167707706
Ni 3.3466511362907467 4.337028895906019 9.1568604001045 -0.25766438885984655 -0.11419940356325495 0.39398453558154084
Ni 7.171859888542995 6.049055351784602 11.429653143387393 0.8598198345567966 -0.3465242852170484 -0.2642376712019901
Ni 0.9321547854228028 0.16622952731121685 0.137174953285178 -0.8307229171908402 -1.2181758223014503 0.5285051672006511
Ni 4.746306141179849 0.26002317037612216 1.5452449621246733 -0.3874621610819908 -0.056451912340141484 1.0241436655802685
Ni 6.183785753197557 5.551716422658455 0.5203670413858879 -0.6679630882203786 1.4611288730930512 -0.8128954020911162
Ni 8.084664230099193 8.914474861196707 11.225454467816913 -0.20843007731406685 0.252806546546913 0.071520890858122
Ni 0.05552276519539748 5.058153630570701 5.726898466249693 0.04940297591316008 -0.4910359666105994 -0.15612124060802146
Ni 7.84963131783147 8.998462291928654 2.50301333928183 0.5637130825603518 -1.334225648809883 -0.35535293925227185
P 8.3606384176253 1.546129373167876 3.811506253066036 1.6755660758331463 1.3053002240247842 0.213179161963278
P 1.6673632465058033 3.101012518561121 1.485468170777649 -1.234213335380287 0.20865916260573739 0.16751122761251797
P 4.84773787961787 1.0190149711265413 8.326047918295124 0.01600923094406275 -0.14041411428540979 -1.8385534474333818
P 8.57973567023817 1.6851237379351895 12.452699005295111 -1.6778515294332137 -0.7456859941241545 -0.8819714309531713
P 6.4392351001704755 7.696255110563859 1.5048122909697879 -0.2108991076798497 -0.6251886733673298 -0.4868368409275874
P 2.0304596005349618 3.219978902911878 6.015532650057152 -2.316947042689623 0.03940112750544182 -0.23147050407329814
P 6.91914778923188 4.196001921488852 6.145874421390556 1.7657814577769784 -0.744515113744505 -0.32770406718675177
P 2.6002317037612213 8.564387208926611 10.238134656497087 -0.31203525030124324 0.029176878674272332 0.5480622633969723
