# total energy = -340860.2077563903 ev
CRYSTAL
PRIMVEC
9.43404735993403 0.00000000000000 0.00000000000000
0.00000000000000 9.43404735993403 0.00000000000000
0.00000000000000 0.00000000000000 13.80768191938336
PRIMCOORD
 96 1
Ni 7.022686048519112 4.617645465764895 8.342656456943343 0.16669593080007422 -2.3936803309866197 -0.3262886748964639
Ni 0.0430947287198989 3.717175071372243 9.201246284522018 -0.7393932191369073 0.2797388521613828 1.2714292823089524
Ni 8.577832165222924 2.145802393066367 7.390672389892606 -0.6685161325103711 -0.10601635353183032 -0.9895803257831022
Ni 0.5089111986731827 3.100452521924513 2.4560136844938163 0.40505082069803144 -0.025080854228027773 -0.49558347677196596
Ni 0.8129630005250578 6.963959103186062 9.610049975562656 0.28862149936299325 -1.0861787284351423 -0.13782192807820134
Ni 8.24354612812553 1.7216287519314952 4.44784110243251 -2.238267429299532 -2.6211157457585954 -0.31739265795841465
Ni 2.7658551612614977 8.557737644169206 6.731645684900705 -1.9308869041614813 2.585226488061154 -0.9956936377696918
Ni 0.824259328933378 7.935665989821261 3.2190262340221034 -0.17072253546096403 0.020113225810107296 -0.007802269653238177
Ni 9.041874090852168 1.3078419970314328 9.684487440102632 0.33768586098981196 -0.552782551690777 -0.5700521374045021
Ni 2.0577261261379576 4.957657969660225 6.142706405172787 0.522298781279623 1.5193193653908543 -0.9189855462836753
Ni 2.665288215518476 0.017376571985372548 2.713278271456579 0.03897766681477803 0.8571751978450981 -1.267503979112617
Ni 0.22020104477321198 8.95549595246351 1.3055325422173718 -1.7758396133439287 0.22642497122959068 0.8731412342560511
Ni 5.771976642802852 2.540617278558436 6.966665731397476 1.686619248323515 -1.562167313794316 1.1895201062379708
Ni 6.783966912019917 5.823986546356442 4.6936036987526935 1.8582936061747868 0.40797802164715546 -0.08095786790130574
Ni 4.564324229616719 5.75258024125992 4.801856562947576 -1.4932728048154476 1.3252609834174274 -1.031474909134359
Ni 2.974451384275001 1.7552988672557772 12.272861753627328 -1.663432525794406 -0.9991245178281115 0.03819707989501163
Ni 1.6522318989403448 0.31774249150124406 13.67994709954552 1.9440797487026713 -0.4310356747975673 -0.843368888089625
Ni 3.7620622691063232 5.931572423397101 9.230463529453175 -0.7254053894982475 0.9458566596429065 0.37638584866317115
Ni 6.3893973117613685 9.120223854866783 4.10992578728377 0.26552605099611043 0.5734308240687478 -0.2539098069134208
Ni 6.120338278685292 6.599691663314623 8.833077866032871 -0.6903802795733143 1.168268395948046 -0.07491757524449678
Ni 5.795278739987211 3.592239981083797 4.949460725836951 2.542824368945859 0.048096855507226845 -1.4475603903799974
Ni 0.05260707875673649 4.825760552358802 7.13728708323843 -1.6732646813934795 -1.5029074996917342 -1.625672276326497
Ni 6.285924679405884 8.319207188618872 10.562476499438473 -0.49864540352674125 0.6430257015487506 -0.07899688752019299
Ni 1.9254607809862536 2.3919272568083643 10.102708197300935 -0.319518703162482 -1.392904136487698 -0.5145715878386944
P 9.205686890653466 2.923498094035033 0.31130375412135547 -1.1345121254332073 -0.29215985153355495 -0.05141383569560178
P 5.752306653884071 5.325953747789852 6.6446571636424805 -0.4454508217816328 0.34789442609169763 0.48044096470357256
P 6.828674862852579 2.756968288570135 9.603187649452572 1.0260812489226134 1.325042439648718 0.1809562973738303
P 1.7614215640463233 4.939101198339727 8.471523658206056 1.069200705819907 0.84129580761068 0.973982214234529
P 0.9139997618307437 0.627218870632879 11.347898685263004 1.8649432502808203 -0.5451468895223902 0.2989251952818465
P 1.0248771780242858 0.8294773005741346 7.6498285033677025 -0.7440831684134088 -0.6878462002975508 -0.24837473602780452
P 7.128620967257235 0.2387823446170633 6.125916630938374 -0.037158868438484385 1.0631251890497886 0.2051524350040596
P 3.6734199593313295 1.9695838208774459 8.176757789252385 0.05435723459464187 -1.449287143263117 0.14726199044517865
Ni 5.249207771840558 7.295452662240311 0.6887864076510338 -0.263031823819347 -0.07011218343605344 -0.8344425321342727
Ni 2.3249738221049663 9.240743810951876 9.183958392582609 -2.1450615972688087 0.7994955837454424 0.08953558226798775
Ni 1.9130361405037433 3.4457480923879586 13.656280848129859 -1.1375573400174346 0.34697319982900887 1.0428440702032493
Ni 4.507531264009495 9.24087588761608 8.052957614871339 -0.3864321771555796 0.8456448286079953 4.0549078787099075
Ni 0.12416904563606948 2.490645129252546 11.928401096362593 2.2928848595340967 1.4194718596738973 -0.8140752813318303
Ni 5.621890382031207 8.156743457601934 6.634784432993318 2.2884206531151556 -1.3521446951821487 -2.0289107264061377
Ni 1.988074553865844 4.541625911468715 10.978957618288272 -1.4168027974821664 1.3512664063422537 0.02501040600140854
Ni 4.399388778169697 9.285310251072893 13.089116293305269 0.4382273074500001 -0.32486608351732443 0.2111654739673589
Ni 8.320065686936191 6.467662169348996 7.840692490807229 -1.138474709625381 1.7627609257830996 1.6069849843296389
Ni 4.1532733484751425 1.3430121258991612 10.25205199853881 1.3072758596939162 -1.4196294682976842 -0.19456591773746493
Ni 4.493804724979843 1.635656277582888 3.926987343101157 -1.194855145297639 -0.1154265911021367 -0.5174231983548766
Ni 5.179348650524697 9.385999839432674 1.835109965219322 -0.6525493247684697 -0.32444030883381547 0.40036987028259435
Ni 3.7534112476010373 3.8620820400976474 12.394396813217295 1.1647120460553555 0.644166242911097 -0.9637057720091855
Ni 9.42132091305949 5.112876352240895 13.729282450649004 -0.7091588457323981 0.9113637680723594 -1.0122438288188889
Ni 6.285792602741681 1.8582903631916652 2.604377288202358 2.7447899215815053 -0.5354342902203166 -0.22113646913714174
Ni 0.5541616072338208 2.9361397176087336 5.046914435923762 3.009990728027713 1.0581105094440166 0.046328707863210535
Ni 1.343785717789492 5.364142771839361 1.807370092117748 0.09103042164595936 -0.10839745216949719 1.1822965919063382
Ni 3.9449129766477156 3.6576462320065337 9.862840937227919 0.9265121936780237 0.23008673635189408 1.6511958745188982
Ni 3.275246552949532 6.781212170166544 2.5274964053746274 0.2619694439931037 0.061923476977673995 -0.02557939113100111
Ni 0.5006064067090568 0.4225585322126199 5.409560163039741 1.568471658745789 -0.3554645251294717 0.5261541504699713
Ni 8.456274463919094 7.55669086998609 13.433811858351337 1.4072357226190215 -0.4045296580872388 0.6038999391918826
Ni 8.737918516284212 8.605907890413471 7.165358091405255 0.4236126428606188 2.5495688867585447 0.5756460865525118
Ni 4.887015822406592 2.44019184352706 0.730664144250778 -1.1587362880878946 -0.5452003684681449 -0.3415720834180956
Ni 1.5864671542147721 2.899507311387331 7.422692490319096 1.2209017058730458 -0.6514789745224264 -0.0026387231744277135
P 2.758732455441987 1.8395449109223045 1.1285035853530916 -0.01750664142519566 -0.1337701266063309 0.41074195754553783
P 3.128641455684377 7.959458657472658 0.6591068943951666 -0.6399336928869882 1.4879099978416375 0.017855283013866026
P 0.5287170378751432 6.258707452532656 11.670004423706663 -0.6797248567419971 -0.41833648206334406 0.8919185148635543
P 3.786892681976458 8.138630086511258 10.084081614029355 2.3619917416340868 -1.4323402309961333 0.6916380632398154
P 2.600891407672147 1.623108994483618 5.111865965759743 -0.08305563097059888 -0.5689504196998911 -0.3144996526813358
P 5.086272338451465 1.889017055713712 12.35312568586814 1.4869183233523295 0.18430310235887615 -0.1336325725872021
P 1.44585267707596 7.413227310519474 5.117306580920156 0.8354393488299032 0.0761938708537591 1.1607355779061106
P 8.118978965687363 3.7054013801633037 5.615418625485268 -1.2430155070529494 0.8402169727242045 1.6245960125431826
Ni 4.477691371947096 0.7049582517779276 6.005264598189076 -0.3400769869298078 0.9875424694174669 -0.7276005973773534
Ni 6.989081971526932 4.0210457395132115 1.3163184886590225 1.2797334312992734 -1.5738565772067863 -0.9921570853713431
Ni 6.68948492687767 1.2498226052566126 0.21916235614973106 0.8731276074092963 -1.070578302893724 -0.9970840903593151
Ni 3.689155950466354 4.141131729415925 1.5172986051717436 -1.760091863591369 1.2692183907005623 0.28277866742897106
Ni 3.68044832467641 3.6846559098360143 5.236798225833957 -2.343497539484641 -2.128743833945392 -0.35188837774243914
Ni 8.805834223826803 0.6985459297308797 13.004861758996043 -0.16083612958518753 -1.4486176279999181 1.4830326151446782
Ni 2.250954285866716 7.716664012478062 11.647124971847754 -0.14413398633915822 0.39747789344678 0.3572149321616751
Ni 4.139735490394352 3.913752317943288 7.636283098048956 -0.739940864110261 2.906471686996439 -1.1570622428195814
Ni 6.710683231482226 0.8253602822699833 8.971720627256085 -0.9762486416712026 -1.0481593117685757 -1.4621393166354368
Ni 1.2230204764708787 7.004714188140082 7.351085240012037 0.24534263406970006 -0.7766554459224754 -0.8151078363614026
Ni 7.84980672404197 3.71923169371483 12.245702074443502 -2.044862364639388 0.3330115954425942 0.8330813901206878
Ni 4.83700593691093 7.030195550283788 12.008651820936985 -1.114612301185487 0.3409552757697031 -0.22217468059366896
Ni 2.754996572654535 5.989091810657439 0.077410132889286 0.4393171980800692 -0.7423348182637344 -1.4964861695464227
Ni 3.8251949145952824 6.7255324221576025 6.881886664050416 0.6952864586256801 -2.707653935961156 0.7357504801779975
Ni 3.677504901874175 8.259706651395492 4.496761355448498 0.5087030448730594 -0.5025164564463732 0.3644309902941401
Ni 8.7167296457271 7.128017188220879 5.525185735311374 0.14029661487093903 -0.37128349443959924 -0.4126013793517797
Ni 7.9646945538035565 3.808364573956863 3.550451867934762 -0.6531818161461461 0.8158835381851627 -1.2311907465038798
Ni 5.451615259731414 4.7152029503735795 13.573020662421133 -1.059697137204846 0.2821585173464689 1.226862808552487
Ni 6.940807950760793 5.935100757140805 12.628409303447148 0.8147771924948614 1.0117414352611738 -0.8588312453912821
Ni 6.731815497754681 6.170451938702828 2.0528987240613437 0.5536906653273432 -1.1105802972079584 0.3064829530244464
Ni 8.124960151766263 5.387586379735365 10.538437603148811 0.44401614621763535 0.4965021319314933 -0.3135000077722278
Ni 7.219744431509754 1.2176996737129928 11.348782655508419 -1.4220776727278606 0.6964748225068264 0.3113873323045992
Ni 9.043025044640222 8.398462621188022 11.03500246393326 -0.9545475025486849 -0.05386255434641046 0.3249159629186533
Ni 9.361386409653731 5.786061675635341 3.7283364929021277 -0.27781798098958604 -0.9909226987436096 -0.030227945646606
P 6.676871605446298 8.368377443892102 12.723668654098704 -1.0527824123628837 0.6724458065820806 0.2801738828162723
P 5.36935036602793 3.7389960231080415 2.7267274494914058 0.3344611834049272 0.6705437044633613 1.1008157616220267
P 7.883759860789544 8.457632966750895 9.09556231144588 0.37569113658899167 -1.3624597039549116 0.9002000381460562
P 5.273141950203602 5.097196965390529 11.20148226894671 0.2344085036556995 -0.3103789456447429 -0.1323251666296882
P 8.663512184100798 6.91820397308722 1.8741169211821427 2.1455531921932467 -0.27822884327475955 -0.573827031065902
P 2.110160561826486 4.61756999338535 3.904839973323829 -0.5516103857595469 0.1936752876023955 -0.9359771957456654
P 5.40338840920249 7.370764662978261 3.135462271985709 -1.0072677157605363 0.6226975315143599 0.8356545501645027
P 8.151432088891491 0.3926176958425798 2.6517513008424287 -0.5681155825034215 0.4412599236287368 0.20053061996133206
