# total energy = -381164.8504690978 ev
CRYSTAL
PRIMVEC
9.40274784474155 0.00000000000000 0.00000000000000

0.00000000000000 9.40274784474155 0.00000000000000

0.00000000000000 0.00000000000000 13.76187191509328

PRIMCOORD
 96 1
Ni 3.825865193763989 4.095827482104166 8.489891314790817 0.6007066290655655 1.0242033151736105 -0.2025147402708964
Ni 6.387672004573302 2.2719859193910676 5.978845237275517 -0.06534921482977132 -0.30407691468611503 -0.305162691551126
Ni 5.879613339745021 0.9519529795596178 11.880018137152028 1.3182434144490134 -0.28642423460135835 -0.4300715111120852
Ni 4.828743454701837 4.424133819733841 0.5499394432231813 0.05579088171737488 -0.5548862282973411 -0.15211443344147352
Ni 4.147363942080918 6.506071403228157 1.3131755159560536 0.952757757638114 -0.16823139360799413 2.9672939604901347
Ni 9.268241364127709 6.612566923333372 9.813411733732899 -0.6594943886277352 -1.4014088315245994 0.6159666405484294
Ni 4.183968838758438 8.219364861590467 5.457462878999497 -0.7510619137240871 -0.1907221185113425 0.2413859634147972
Ni 3.8516569306215387 1.4488035691658065 9.26234490106414 0.18990682169889875 0.25119446486478675 -0.8688593190512455
Ni 8.064962342108943 1.165188491209457 10.381143996371152 -1.302310288158525 -3.039467911551223 0.3844506279491766
Ni 6.988592205385965 6.328603943713249 12.213151845435247 0.28920513978060514 -0.17782392239243566 0.18426273603924395
Ni 0.7071185940915209 3.4719551742301547 0.8521296492007082 -0.5951183363445106 -0.06521963123044253 1.3055082262705322
Ni 6.802765703192837 3.01409777920955 10.74236559249282 1.405961226781972 -1.3931370784341104 1.2163320842244922
Ni 0.09374069289148386 2.72864916545764 10.450160164265577 1.3893398161752073 0.4793438749846519 -0.37268423144186785
Ni 1.900520969958201 6.965010114230758 10.56775468771992 0.44602417778659964 0.5776515470183148 2.0544466658937135
Ni 3.0699689058619595 2.6230375036333617 6.948740539938153 1.0075875609938003 -0.8365343816662948 -0.9473944364436715
Ni -0.03473657071558341 5.920430667378497 0.17774296002162465 0.8035116468833711 0.2329352615442827 0.49290927237391235
Ni 4.566529030441362 2.8568462271841555 11.786685523509401 -0.7642051359742644 0.03637005398860187 0.3578289115965902
Ni 3.4221676253199376 3.475340163391189 2.512464011863866 -0.5232593454206794 1.3022059013701766 0.6470718465936662
Ni 6.12498744292935 9.368220780097932 9.048719175386015 0.1998870728400622 -0.12394979808179943 0.5591529739934951
Ni 2.616032456619554 5.919875905265994 13.75424714407666 -2.7207526781266433 -0.003188425030310638 -2.0141047717415574
Ni 4.487987879157691 7.681132779490631 13.195143782974744 -0.29534210591627846 1.0094019884947196 -0.9838457372921702
Ni 1.3618657642132352 4.160546594313613 3.900018082710286 -1.2107101100520246 -0.8292077660978946 -0.47445260833062164
Ni 5.884794253710939 3.9282423103899453 2.778576815308133 -0.07499367989807083 3.4263256062799963 0.7978503348325355
Ni 0.048720337049724026 1.008360062829191 1.3150842737329704 -0.2896669099083721 -0.2093613308790846 1.171465562729105
P 0.7156327821062898 4.711970731393815 10.772586963777492 1.296847722382057 1.3901538274360703 0.056454997663935025
Ni 5.178882972420187 2.2862122766150823 1.5843357143493302 -0.29123682549865326 -2.0571481239852765 -0.22635966520929401
P 2.266899032901846 9.407919180758732 5.070919683403756 -0.05756057202328796 -0.8267238233337761 -0.265101304753866
Ni 1.70901520817267 2.1316593131708452 5.126572666310232 -1.2643034698974485 -0.32431586744080915 -0.43514249787708936
P 7.05704420842022 6.471535111037934 9.39480328803449 -0.8270791497906658 1.1994502208674893 0.6200634363256224
P 6.06196082530042 4.346072208581316 12.44658069798019 0.7747960241162335 0.1334834486038475 0.21392041100467674
P 5.946833582834567 0.7909168215972326 4.363518066607382 0.7813430812061317 0.5904759524764928 0.43066569305265834
Ni 2.392435117037881 1.301772803857202 2.6492702293566124 -1.7652626091590307 -1.1669234518843774 -0.45921342278336397
Ni 7.624142725865545 7.015277203272121 3.530264433353276 -1.1399055285346371 -1.7394572180601526 -0.2198210927598279
Ni 1.890046309054333 7.967004516887671 7.751126833142691 -0.33435731083721126 1.1542805663093862 0.20322873561878546
Ni 7.214502620894344 4.3539611138760606 5.101361078983893 1.493841275724408 -0.05413560550213902 -0.37302490261073823
Ni 8.559988798667241 4.042419875341175 12.119585103375648 -0.47735281269655216 1.0646290272888246 1.7293072741103441
Ni 7.255075477088413 2.2922394378712574 3.1505194243226122 0.02812246926782899 -0.7735688365773516 -0.6902928620658305
Ni 7.321891402028167 9.115042396347885 2.902970465602319 0.12619642802413106 1.1117468067122338 0.1597909761501248
Ni 8.101868126711889 8.215848233962058 10.882557739421369 -1.517203347489116 0.5237437412562657 0.5407706148315654
Ni 4.244118215600489 5.563427143861384 12.229404494782047 0.698611666344171 -0.1195922924440521 -1.416433844178522
Ni 9.385164531398443 4.723959234672479 7.864854946755316 -1.440998935112396 -0.8590495320496753 0.3793194773701983
Ni 3.1536533601208703 5.686236431173252 4.147016040417144 1.246195190332512 0.20908030930355606 0.40842873603132884
Ni 1.7641153095161772 7.115933617074552 5.641266850168908 0.516970169977858 0.4050333371965347 0.10243300705594616
Ni 8.931575983819812 8.135116242471385 5.507239144612511 -1.152536844145402 -1.5252323884411798 0.1596667918674347
Ni 5.820648709109332 6.096656964201025 5.285811018918201 -1.2782375634800374 1.7920930990883137 -1.1113480286119184
Ni 8.566448486316215 7.12050335244195 7.76531463910126 -0.7841499545273076 0.5522264220769909 -1.5042457588871836
Ni 1.651799488603516 4.757254364170322 6.251618947168886 0.569793998647109 -0.5823661788851648 -0.36762224353792816
Ni 8.98420316252623 2.9825703662735807 6.320332346588355 -0.2610286773463892 -0.11522578794524027 0.6962087133296332
Ni 8.517281518752188 8.443009214910488 13.550792370552676 1.1215411670948363 -0.15780479895803146 0.18806154096004388
Ni 7.047829515704071 0.7513218511607977 0.7914715837097356 -0.5026416691703278 -2.330403939525477 0.26232862710473537
Ni 1.8185572185228165 3.5576330109950076 12.683904168609859 0.3355186781351641 0.08949058796266524 -0.9191308136122881
Ni 3.906202269852543 8.695698655781719 8.568045072870504 -0.6172246813252467 -1.3765141251654487 0.9691333707826599
Ni 4.400918435737746 0.6097982751622429 13.918756677028174 -0.12121491564913964 0.4444594044026409 -0.595900980146806
Ni 5.772957972929424 2.3959799529092978 8.558219201555833 1.277407097158942 1.0885845096631575 -0.6415036084772694
Ni 2.9935903865422824 4.292072228715145 10.647615044501627 -1.6926268879701754 -0.3402081131910335 0.1660647249739785
Ni 0.8998786824161688 9.05909604771412 11.395379836219039 -0.2178832523071667 0.41914123735282655 0.10133077513070292
P 8.890683434204979 5.705775340830558 5.895874451564724 0.3701794627421431 0.17658825021312166 -0.12028391919443801
Ni 9.599923288170748 9.233272545544686 9.028434627838514 -0.4642293879407166 -0.6898136084365668 0.28444448516716814
P 8.036283961716846 2.510561836010318 8.722205001462154 -0.23993406145961907 0.5502998944782393 -1.3046831592660757
Ni 4.822669279707315 0.6909186001316696 7.06780847395231 0.6611573781524549 0.009682003174454295 -1.0357162009092162
P 5.343393445646467 7.066851274239552 2.936632302259274 1.162273611817192 -0.48863789869206814 1.5294119737401661
P 1.7969120933875344 1.0922419747891619 8.391796209453569 0.8503396629805032 -1.2003048555583007 -0.06141157033826198
P 9.441769072369079 2.2502091557884114 3.3411347459038376 1.1030258818994683 0.6899709599500375 -0.8261221851940352
Ni 3.8931042423488726 1.54019827651374 4.265602553750622 1.3470554535846995 0.657316664250126 1.6653019749029772
Ni 7.085261854176511 4.653391613412577 8.296261472306737 -0.06805195847291506 -0.6295646909478384 -0.4420636504769548
Ni 3.79043564054516 6.243274008612169 9.745193859115616 1.6061722586203564 0.8536993234813556 -1.3253548286828143
Ni 5.365330055959505 4.37915107488276 6.699044933924903 -0.8791866691191825 -0.834109574274886 -0.4476331741449323
Ni 5.45445870111908 4.467442875499745 10.088030262719032 -1.3825405338651866 2.630731928692121 -0.2271587640718217
Ni 6.465583171763115 7.2953662508523935 0.8925125698918507 0.5096106442889934 0.45537656553577704 0.5660293893983541
Ni 7.553086161726829 9.745195739665148 7.133383236199686 0.07900048706461878 0.2493525265600415 0.6430321293066539
Ni 5.366072873025399 7.7175684267101 10.84769893298608 0.9796324705417709 -0.34050790381963936 -0.8440378891321916
Ni 0.4971467761577793 0.38346755683303485 6.673131901622416 1.5275949751360853 1.055960295870233 0.037243457732490694
Ni 1.8980950610594594 5.594465613918537 2.160104505420739 -0.49524691936815357 0.29730077230454605 -0.9979680356261651
Ni 8.373673353595297 1.2041722830473718 4.877812633690102 -0.44001576680899057 -1.007777051296787 0.8646535085000141
Ni 3.843768025326794 9.437161726011004 11.29980372698246 -1.2069393301556828 -0.5735871471409542 0.49921310310475314
Ni 1.671197357045778 5.902885140227134 8.507479154306692 1.8622369070932507 -0.7599317054098912 0.573748869529799
Ni 2.769269035390055 8.557779152964898 1.2165933127188349 -0.5216454639663404 0.1684957030129743 -0.04055683837643983
Ni 1.7604482379250563 3.122088336194223 8.746922004261075 -1.0634635462258137 1.3030564222959302 0.6132068184151053
Ni 2.407874428711266 1.856854609780855 10.825749158826307 -1.668315050697688 0.3675307122653864 1.3423133109140237
Ni 4.819359512527637 9.130754387703687 2.82572501294751 -0.4768141665842627 0.3028281298806785 -0.8937162301939252
Ni 3.660752944686858 6.202033557333565 7.117640215776574 -1.0544842255453388 -0.45311193787131643 -0.7314279415432435
Ni 6.541153054783211 8.409337975505863 5.403529658641779 0.24068302381050166 0.07673251696604849 0.36812463709564347
Ni 2.7268438379050886 7.831435700988235 3.407604649729353 -0.14136619378603396 0.8797775086256462 0.10941355213883737
Ni 1.7580317317739844 1.0338321062659763 13.368323589552341 -0.8353483317779936 -0.6405001069134195 -1.555230991685799
Ni 8.393955080318495 4.61281875721851 2.73974064660863 0.5097672244715157 -0.522812487691248 0.3980283666336113
Ni 0.3878097457068286 9.190743917835356 3.6339598152025023 1.4309194393892066 0.43562046595477233 -1.202155535613794
Ni 6.779700763159454 2.604062758836229 13.62872516406213 -0.3167660801180093 2.821681332722921 -1.3737540459218083
Ni 7.309855885011156 5.02534550572426 0.6781957422600143 -0.8984110645664334 -0.7570775237905477 -0.43988926853345534
P 9.328324921736073 7.532766824012951 1.766473518631698 -0.6041760756714045 0.14706221572954672 -0.11115778852345372
Ni 8.915986228183712 1.773367613223005 12.851606874669947 -0.16868107955090306 -0.4358320677449462 -0.4879455006107339
P 2.827528459950528 2.211996389259399 0.7838262095796322 1.8921154398202382 2.192065991042805 0.8206339083859544
Ni 5.5239920201353305 7.208748139320586 7.684120032425244 2.0389071754972172 0.41887949905100763 0.5799863657990785
P 6.570781112689934 8.52992821436772 12.685610767311879 -0.5259114383315459 -0.4518096741201251 0.2268551167884738
P 2.25698853685815 8.394246565496251 12.93533364129337 1.0048583349880953 -1.364231965363986 -1.5422988570051632
P 3.6137109980961473 3.8630154498063436 5.106122630403749 -0.1327619970567907 -0.9845617895225881 0.517463821784825
Ni 0.49215955879385503 6.76401698004666 3.7078748146327603 0.4777217660001966 -1.1812316409769335 -0.03529713263939727
