# total energy = -381170.0106576995 ev
CRYSTAL
PRIMVEC
9.24365521089493 0.00000000000000 0.00000000000000
0.00000000000000 9.24365521089493 0.00000000000000
0.00000000000000 0.00000000000000 13.52902376414150
PRIMCOORD
 96 1
Ni 8.636800090051823 9.317327237220287 4.444419722156925 0.2582973944581552 -1.1998132606338627 -0.8024932329211857
Ni 7.9067361941068475 5.262218848058501 0.11134075250755683 0.10970023014132076 0.942774421173157 0.9128442092726279
Ni 4.5884765438835 4.220070661724891 1.3765512824548243 -0.8378487296023441 -1.2365093305033157 -0.09716944466416168
Ni 6.9204659040886 2.240107426478927 12.002165407706615 -1.523941437543898 -0.23942678280589733 -0.20126698390672432
Ni 7.115701147773758 1.7829162351211332 3.296224624708613 -0.3370364003312712 -0.11513811332744042 0.43173732885028226
Ni 3.934450956472879 1.5978027939943404 4.226494077795948 -0.21056486426888252 0.18288282497258182 -0.9135677177022138
Ni 1.8184673334220245 4.109590493526177 0.25381228734941974 0.2600012645231393 0.7002756843101552 -2.239962043393136
Ni 7.843296987752448 0.3193599714787616 7.894794315819036 1.0380039685021285 0.6455988615925655 -0.4442570585838478
Ni 7.499673345465053 1.1787601680779864 1.0558195525288832 -1.1657320026794376 1.021791363298008 -1.2815303752986962
Ni 5.650119599254183 8.324974622011714 7.9385879815549 0.4073748408455177 -1.5577419310331106 0.2938560082890552
Ni 1.9267012933817578 9.317881856538552 5.400312587748179 -0.017453676700073167 0.26918293102240737 0.7225617494018652
Ni 6.887096308439557 3.5058319036611216 1.5054152323230152 -0.424472676868069 -0.013721463351150563 -0.22829724855163905
Ni 3.793143197833846 4.129297966635251 12.31193970863467 -1.1635265103876864 -1.6942022028770953 -0.16919092930778604
Ni 8.612960703021663 2.7994687399167386 13.30115410286738 2.007768288000568 0.8525065887248351 -0.1455833171911751
Ni 5.9890936829234445 4.474566979566839 12.692781080274349 0.38944756694313576 -0.36591425970788594 0.793732198899104
Ni 1.7285080799991765 3.47402448575853 9.830513719315809 0.16818254264792973 -0.1756549397655749 1.1041365984651437
Ni 3.526694833683251 7.690582558467731 11.52363061625086 1.836913340726798 1.2577939509137048 -0.5866984877119316
Ni 0.932241124763773 6.198333064394835 1.1882293685718588 1.234760723243325 0.6816033047116327 -0.9854657893940963
Ni 7.212620873640852 4.804084803859653 3.5716892502431623 -0.6508271998710404 -1.0344689587656766 0.8194486298286017
Ni 1.6611310764850853 7.600771203529755 9.843514920501509 -0.01261717454337827 1.1006571245569754 -1.3615004253654357
Ni 8.446935410098547 7.800397183484525 0.35131990969387633 -1.1714457652347632 0.6101973421648201 -0.9135772307839106
Ni 8.195156726916105 8.224181804572058 9.924405223705167 1.4387145099535932 0.011054458041948705 -0.35305514435703067
Ni 6.681508170813421 7.4179594325737686 4.03446360940484 -0.9247874976774332 -0.26912996629728486 -0.38675845014674687
Ni 5.019563652661544 5.756828356088683 11.048707320922553 -0.20010253128497796 0.1247902917052238 -1.0101046709886992
P 5.694784941685256 0.14995519817634065 4.137852045253983 0.8481120592015651 0.8146838614501065 -1.8444947526184816
Ni 2.7121901465321794 4.8181998655095395 5.111400292476725 -1.521859615314205 0.6894058314751869 0.1463723887513737
P 8.981884229877322 1.545418999384057 5.786688135818628 0.7014013132741662 1.9112855849907857 0.9726195295590475
Ni 4.398011026335435 8.89798881433419 5.702402638021648 0.3334121733151226 -0.5902754064299124 -0.7457638985499414
P 4.601694970968855 4.558536344352407 3.9128642482404112 0.1580631948257407 0.39713619383664506 -4.538231050057281
P 3.67082190719014 4.523123900881082 9.715124245784905 -0.6217907034293743 -0.21588730492306046 1.211086776665153
P 0.3970020542084379 7.357025256806875 2.8790307298531483 0.8369568139156941 1.5028295952659472 1.3758147851055789
Ni 6.201623805683218 8.423160728655516 1.7391022333435997 1.0552259888073696 -0.40481685031035447 -0.5501811095121879
Ni 3.381985409892182 6.180668439108043 2.3618694759767136 -1.515859688977028 -0.6469114097564019 -0.19071697630501994
Ni 3.2384499303247782 1.7204383689183973 9.443190696576654 -1.1786685082354473 1.792917394761822 -1.0976345356805677
Ni 2.3370641269672388 0.38420421343943534 11.391072901723014 -0.7442757440401891 0.39614297668544035 0.49624913538042276
Ni 6.012156602908032 9.084793844381695 10.767466335188256 1.3272433039547789 -1.6137678115794272 -1.4674121349986018
Ni 7.865093526960327 6.538749158291591 2.2827252992600653 0.6072973949092058 -0.4998679630799327 -1.254258941177253
Ni 4.0404017335724145 6.935736422651541 9.090529532498103 -1.4582656926126434 2.5590081777945737 2.1448798202753063
Ni 2.288627373171953 3.761668551522214 2.249254023402674 0.7625359758019576 -0.8396557009040958 2.943633126538085
Ni 7.385615882663519 5.233073602883589 7.892994576131261 -0.053570477027288385 0.4689751301558181 -0.22642497122959068
Ni 7.329645549795112 6.440137843503783 11.6754530327987 0.5597674676490424 0.7526004618558005 0.19855832672630966
Ni 5.398932510011225 1.2312826175178364 8.192622116631625 0.8264489724058347 2.2306003996725776 0.31172620370125664
Ni 2.257291381689888 5.873862275898247 11.437233867582346 0.7183173723032145 -1.8663938666844178 -0.43569785615992707
Ni 4.904738966469743 5.271693594745556 8.159111093056426 0.6204380460562218 -0.7612018303715665 -1.2614611153526467
Ni 2.0872635860199478 8.758511299445436 1.6609443546479357 -0.16545948728981183 -1.128541252561753 -0.13395678869584027
Ni 4.026859778551405 9.117571846091254 0.2995674567408865 -0.43229911489102324 -1.9897263428971925 -0.7155989449307869
Ni 8.495557036999921 7.293872603766914 7.206572749975155 0.7367331558062408 0.18807671046869545 0.5894662802650558
Ni 0.2922816076299238 4.870916431710783 12.061233289467541 -0.7172362234238938 -0.7264456578373037 -1.1782129087552675
Ni 4.183863263897384 8.421311997594628 2.8405540146484003 -0.7236701519746956 -0.3702475969759172 1.1319556775599409
Ni 0.2259472884341737 3.9863355936967224 6.2517345854541375 0.2915594989453947 1.2111559393401914 0.38198365446592275
Ni 0.5179673006189817 7.427341742707779 11.95489520321075 -0.6090544868096285 0.6122858492627326 -0.12662708780364643
Ni 5.472484275268686 3.0618036774568558 9.951801569296478 -1.3675846838863028 1.2564803743086037 -0.6707056839625223
Ni 7.368006719308554 4.206491732082662 10.694178938472504 1.0853449196799374 0.4890901557381383 -0.6947313574531584
Ni 0.5701579028334022 0.9392663027951502 9.758281948035822 0.024893420807570035 -0.3069285252022972 0.4357600768564302
Ni 2.8128443091422692 1.7446105275395176 0.4792668889558665 0.18016979691679294 1.3436276588500733 0.5027565974816374
Ni 1.5898624940878232 1.2250893684638593 3.2367786774457343 0.5478290643402436 0.6787236691709924 0.84675425962209
P 6.314766146609611 6.946190996800866 0.004155023059347518 -0.1512986224083975 0.32240296668881246 0.7964873930467379
Ni 6.162976082855338 0.1927357592908373 12.99660246718634 0.1322680881395077 -0.7930631978565374 0.4000109442812788
P 5.286954869653193 2.433216629444064 13.482822433662209 -0.670832953569006 -0.06476248908836588 0.629072067582136
Ni 5.016069550956464 1.2260876832367391 1.9444186075037853 0.2990396093725237 1.6964917702422202 -0.3551104842241626
P 0.09745216041262991 6.111516653775499 10.025277536580441 -0.8748325059155448 0.9049375528310415 1.691011206743623
P 1.40757761148419 5.9935029065036645 6.630290925502559 -0.7412300152353298 -0.34249588078394566 -0.590254580494306
P 5.913905790677098 3.544109880276823 7.653882473812498 1.0783792869953814 -2.466778079413558 -0.13880820325087062
Ni 0.7708034579682521 5.059533218197959 3.638657684192797 0.9559335842629344 1.627995782253351 0.14498142194111804
Ni 7.342605154531943 1.7114905105836955 9.764126711284824 0.46196450316593984 -1.3532957780674564 0.994052759732159
Ni 3.4626455460787597 7.020999899179731 6.734707255821556 -1.2924254249446452 -0.9160408618330546 0.996206315740052
Ni 4.546732196528632 1.4145473275837406 11.394008686647705 -0.526819551968112 1.6123696456803196 2.6133695261542735
Ni 8.120199926052369 3.1050362533157396 8.236009985899624 -1.0581593604040809 -2.2143199173449997 -1.4675957117643177
Ni 1.9908245302286849 2.7079935270239623 5.43769392979935 -0.6811335641640656 -1.3454899088697925 -1.1911519854144388
Ni 5.62764827320908 6.099675531330506 2.236496854717011 -0.0658688347786672 0.10509229905566418 -0.23764757941828746
Ni 5.995518023360033 6.551348260471547 6.424906148293121 0.6448252166513346 -0.25924047509771486 -0.4052801631000182
Ni 0.31613578450857166 4.63461162750798 8.599453873890809 1.3141592170773109 2.094730453114425 -1.2813246870457933
Ni 8.396539001378718 0.25594942045580715 11.860570171387614 -0.9432860707022528 0.4315390967965471 -0.4997540632098877
Ni 9.017278186038038 3.178329196224675 4.041809542275281 -0.6063494291736395 -2.236218517190304 0.13650269504614557
Ni 8.675124284944047 6.420753898330364 4.976393933658731 0.15651050562664015 0.35176984988670384 0.37676560060009306
Ni 4.340866749243363 6.53126179749499 4.754938137336986 1.1375521978111118 0.4799910216503475 -1.8833497778124662
Ni 6.8653275001975915 8.67159320861775 5.905878600410719 0.5170565590440773 0.3023190514547439 0.9864178688947205
Ni 1.772378468074067 2.6202342635635723 12.005885978966655 -0.621142271212098 -0.28958334905563027 -0.1513641855390103
Ni 4.778766431980783 4.160088582454354 5.83621841403643 0.2858855884890689 -0.9020705156958915 2.672145201531585
Ni 2.0547721376248274 7.083533227314294 4.141207492129497 0.0750643852350062 0.8122089175470527 1.0277002725832753
Ni 7.116237279781416 3.7239729251906923 5.768451328268491 1.295546229961814 1.1621954502810887 0.07710995491012528
Ni 3.7659760948940852 1.8452554464943027 6.525197035249745 0.43655711883642884 1.3560910814244065 0.20696840516687579
Ni 0.7794619898919247 0.6727014685877198 13.310773974942718 0.6311466907229776 -0.2474285700644513 0.8815428280561851
Ni 4.153146597320717 6.339354269719432 13.27960252052507 0.5584973426873672 -0.5105982050132433 1.4190044331191756
Ni 6.20364816619489 1.7253005316085346 5.578395304650411 -0.5562059755500292 -0.7222935833421431 0.8145262528263197
Ni 9.004974880827822 0.08350163582716325 2.0380124661923404 0.6193209017326431 -1.7765723777448952 1.6478585826155492
Ni 3.401295405823166 9.234790639006906 7.65039206956954 -2.232022733941401 -1.350832918349261 2.228391307836401
Ni 6.654230144010008 6.709839974321541 9.519765137118666 -1.1080410757258723 -0.5194381719023764 -1.1997744369761272
P 9.08545014390831 2.7645184792106363 10.78215820092914 -0.4867460809859939 0.05353910956872069 0.9217533388367997
Ni 9.169576650834054 4.240036957182489 1.693995968554505 -0.7239799699056306 -2.1801548414275165 0.7513221093640092
P 4.061773064636289 9.18577153492744 9.89079899048033 0.320044493758965 -2.626641817783147 -0.7260671914519625
Ni 2.7631689055361877 3.655209373380934 7.773194954654607 0.46114175015432834 1.1669239661050097 -0.9489980334853656
P 0.4890115503778113 2.0502612338362587 1.6115370170456829 0.6040557480434564 1.0724474948919789 -0.7311155525091473
P 2.187150525239768 7.492361614119237 13.293212878595334 0.5838767019924203 0.5126206347599107 0.5302424616067319
P 1.0703228477015554 8.899208976834375 7.970678255309807 -0.527797085390033 -0.16790512061682697 0.06364354499257426
Ni 1.134205749510567 1.9424247510546164 7.626689488637885 -0.3216180088936719 -0.6141874371608197 -0.7148348130712529
