# total energy = -340867.43999078305 ev
CRYSTAL
PRIMVEC
9.29182119474847 0.00000000000000 0.00000000000000
0.00000000000000 9.29182119474847 0.00000000000000
0.00000000000000 0.00000000000000 13.59951955019087
PRIMCOORD
 96 1
Ni 2.1864026518660693 3.5564909521937467 2.2604305898841943 -1.879572827268537 0.23247349141651574 -0.7424623449805342
Ni 8.880053965715094 6.1985645065838355 1.338455224867792 0.1754690490070139 -1.1824737409141506 -0.6308191321802298
Ni 4.295738940242452 4.383648858855416 1.7915597264277596 -1.5381560384813833 -1.047110044568455 0.6702878796988134
Ni 7.026242755222287 0.8060979943335559 2.201435889084536 0.8147663938615839 -0.5575802301897366 1.012630008513714
Ni 6.148332922182432 4.672819620630499 0.8409674110525993 2.721780090949893 2.3433841538352285 -0.44477282187800177
Ni 1.5716186062992001 0.497634624587213 6.834546912611927 -0.13357652253828609 0.5751982003818158 -1.7120366599553545
Ni 8.829701587640509 3.7459418908471367 2.6984711912163495 0.4922492701924103 0.6128491779653703 -0.258187094132536
Ni 1.6585064246006298 6.8799616169997 5.33827382455063 0.11815221756341587 -0.1700134252090814 -1.0740120111656213
Ni 7.271537538169505 1.3360059008485152 11.106034200007974 0.7905692277900901 -0.9433243801393559 0.6476650000929749
Ni 5.2915062310232255 6.023822520595526 3.293558434597851 -0.6868342140932687 -0.05753640365357187 1.0859393587308266
Ni 0.4186448541476393 3.30578832941641 4.95582804670913 0.017950928051465857 0.41657681905975996 0.24422626107706968
Ni 9.051450896138382 2.296975321932053 7.312951184428673 0.16606061120892046 0.07156537094281223 0.06861374451365602
Ni 2.726313203702544 7.200761737506262 8.494572549948337 -0.40935716138286915 -0.40014078499092376 -1.3615775584602745
Ni 2.6714542924361933 3.460246270131271 13.063032012042777 2.0412281103209104 -1.8665674161478045 -0.6140966772192262
Ni 2.2193886164655856 5.689539967797725 12.365906636196604 0.4227958033862783 1.9956565923386984 -0.04421448973368514
Ni 6.11142580911503 7.9981207741762 4.852784539210749 0.40592679554508154 -0.47410936605858983 1.0212555453991963
Ni 6.766452731493309 1.9417861718528686 8.585689075993214 1.5712787891772808 -0.6071349011894125 -0.35834004690505383
Ni 0.051479475963577256 9.233022370571945 1.0483311222566787 0.3736831050200274 1.3101418683878017 1.4757931599734453
Ni 5.928395518782278 6.445838447407025 12.121740809502578 0.24447231564960475 -0.8740488336719849 0.9485462906599278
Ni 5.09300505870225 7.573986312173519 7.6052458564286445 -0.43441616123402604 0.48766087949077946 0.49156869918561796
Ni 4.898480785775245 2.1745369964312573 12.090992315403222 -1.61301319280159 -1.505678120458336 1.036329409013183
Ni 7.902238473133267 8.14542401271032 13.543285356241299 -2.33087856516905 -1.414342765977448 -1.8973628042621065
Ni 9.096767107223407 6.263068328062665 11.650776498771702 -0.11513451378301462 0.29668242199425676 0.3719165000379079
Ni 4.768646170747346 4.400894478657304 11.196048716080597 -1.1978391676266273 -0.0816878040887948 0.6914976810072091
P 2.234199779161819 5.921779742220346 10.061074150415156 -1.9255775761334255 -0.49887654570094087 2.4035194285642283
P 1.2512737850223217 7.3410868184589075 0.5351800857582736 -0.2509414683137162 0.3373981545460641 -1.244469723000973
P 2.773747949978749 0.9379071213269182 11.99544266155259 0.05689285653230202 -0.8512336355496823 0.505339270607149
P 3.959774567841127 5.582526065180084 5.072647608042791 0.018150702767097775 -0.4927323804764159 0.8673076582934096
P 6.085492336665101 2.8322213796195257 10.331377869621416 -1.437370080110557 1.7588425645653 1.1724857764635035
P 2.1243054120298535 9.182930163485748 4.532529848597705 -0.7238899812949856 -0.26446315694923483 0.8358756650363733
P 7.371489656816546 7.404122532217532 10.820267032270301 -0.30069668535997246 0.5713950245856417 -0.8068021447091848
P 5.4818770599569975 2.3942699797691045 7.017215751107236 -1.2390660354868983 0.026563866531457474 -1.1529582479535367
Ni 5.058142146257916 4.593318800035157 7.410323893562241 0.36297857411832973 0.9771485277776527 -0.06614265726534414
Ni 7.943707870318518 0.5630416110685973 5.416538832951116 0.08530148958198212 -0.17121181639255675 1.208079357297397
Ni 9.184760652225497 6.259044969563624 9.13131595611747 0.4725186245327024 -0.7211008485856226 -0.16588809018679818
Ni 5.025128306195358 3.5979417657369694 5.314569459961947 -0.30698020437583906 0.07130903195763202 -1.5361966007621672
Ni 2.311294018114547 5.061970376515663 7.18001588872842 0.8658015060615283 0.6742530349941486 -0.033996925770734994
Ni 5.6809729088228655 1.0460546261082615 4.562829547742089 0.6838519915364933 0.8601967582802411 -0.24862336170350083
Ni 6.0921917396161565 5.387072610151683 9.641746347422991 0.988366250870343 0.38434932648462194 -0.7724213532364698
Ni 2.573249036139775 2.4740495549948642 10.553376198922464 0.2451891392109713 0.9551679097415033 1.4402864824264034
Ni 6.653324810648489 3.401401167649937 12.750352013920304 1.9743794281274767 0.47269577354051495 -3.6028110123666663
Ni 7.101023330742541 6.614633667946409 7.686475884914681 1.164041502350892 -1.0428492124095718 0.03638419505598895
Ni 1.806803887983243 0.8003630824037471 9.08215293113267 -2.1085398481936912 0.4002102047762785 0.9490098605599077
Ni 6.352037514271219 3.5759108581128984 3.1518786061413717 0.9682424835372743 -1.6131186080312023 0.9237842532238995
Ni 1.2835907385088332 1.1035895818266288 2.674834656921068 0.1245817752388435 -0.12478283550605605 2.6325332435669178
Ni 0.9412057177868698 4.139850059091443 11.343767299014042 1.617967965703704 -0.4319928965045141 0.5459737562990598
Ni 1.4618543246614297 7.741889517895563 2.715932381265761 -0.14961454983775524 0.018068427465936624 0.9963060745427101
Ni 4.506068600714183 7.148485952481789 10.257723462808052 0.26742892444577815 0.030260598656754335 -0.25745638661409853
Ni 0.9362810526494774 4.382450213944617 0.3544811133179213 -2.7711419292124724 0.08017548120932644 0.43874821295047667
Ni 3.6598624609739203 2.176358193349991 8.507899808828643 0.7219850509627889 0.6485114072536702 -1.9980626306770297
Ni 8.76670304116594 8.41752569928278 3.846106792195397 1.3662183996663957 1.0757199949956633 -0.1545461828114177
Ni 8.95314342981081 8.904937462390446 7.950265108408062 -0.20081189864717672 0.5339764747278675 1.1256531323806807
Ni 9.38297377809504 8.341964610797353 10.38202294005794 -1.1098601312124823 1.1976561050815437 -1.3886530745208276
Ni 8.859955756861924 5.966770739569884 4.012238976832182 -0.06827950110268885 0.033497103316181026 0.07991245735592689
Ni 3.613096725810719 1.575930011249672 5.6155817184372046 -0.7433506611227584 0.7597509568576528 0.9309748574350676
Ni 9.142622243927242 5.302024572411015 6.352647986911834 -0.5723787286551497 -0.9153332942430688 1.2965322480241672
P 6.887571618410123 8.903153432755769 7.070634430116424 -0.7151937390725682 -1.1234165297406782 0.5730634134270001
P 1.8605849480119754 3.0764661867921683 6.601519191767323 -0.2930206568719534 -1.720986412949475 0.0785960525373485
P 4.172975401006168 5.334750366022141 13.269961795205505 -0.3446268110840194 -0.077655285890634 -0.12961136724295097
P 5.4602085333524695 8.269785745161004 2.8230838028344087 -1.1614457165992578 0.6912210303070547 0.5062424991477088
P 7.152741606506177 5.400805921610298 2.7128725846058677 2.603381047482994 0.7519767122288726 0.010637167998872004
P 1.5383631788902794 5.3498867424538625 3.386035283239171 0.04840744476911018 0.04586128130848876 -0.08693748252350833
P 9.066782400811396 1.6546224434167993 9.605367938971282 0.09378741556580622 -0.21412121416157318 0.15589986862583474
P 3.5552272645358496 9.122458992326974 8.461674857648452 1.817754765520476 0.7960330791181388 -0.39186748923853804
Ni 4.865401902965589 9.215405077929498 1.006038469729592 0.9972764088757793 0.2992378414262588 -1.1347589513366907
Ni 2.783151272844865 3.5533410248700177 4.409834139654824 0.21698799418640694 0.9532835482345968 0.899965810648063
Ni 8.540921082348012 7.629960241961544 6.03070683078476 -0.6456996488364879 -0.6739316470989877 -0.9153116969765139
Ni 3.643954863398041 7.5314762310347065 4.099765143237271 0.25856710317977405 -0.7107668136494663 -0.4807296995885851
Ni 5.830933608166975 2.4227958702819254 0.9614182160385114 -2.4421497393419167 -1.4456516033930586 0.9410834066239793
Ni 5.585666700682798 8.806880875230252 12.047093107022823 1.3471009621106542 0.4903433114189491 -0.024508269554009404
Ni 2.567190768838681 8.454265559571931 10.663247336501893 -0.024334720090622607 -0.24477184916789457 0.013862616914705157
Ni 6.342401895879755 8.94072026511516 9.401824095386036 1.613137119973964 -1.610676574248613 -0.4386219717852575
Ni 4.61114051273991 0.7374435164077968 10.276789350346572 -1.4830087038852782 0.3889598286734398 -0.7449442308621235
Ni 0.9116688771477313 8.652460101799447 12.40582151172622 0.814590787515668 -0.05446573514804814 1.0185481737703619
Ni 1.106432879056897 3.685637972466613 8.909398465659242 0.31147474981208295 -0.2110898835344171 -0.3158355978839399
Ni 2.466188674417064 -0.10680855337323326 0.8288350803546872 0.3278873868421514 0.20138242643866608 -0.8091395345931097
Ni 3.7758708463330635 0.43319491667338084 3.262469859849383 -0.03967315021990587 0.5242273657609037 -0.9473916082301941
Ni 6.755590592728003 5.260973307171391 5.232591439884287 0.24882236508818434 0.9056032114394985 0.017490700585595684
Ni 3.699566412166521 7.7191710155164595 12.720881145210365 -0.6824569109611794 -0.3004213202113988 0.6708301253555286
Ni 3.5245921306528625 8.58873679328579 6.1953151567752585 0.08439286172478368 -0.3627934546907171 0.7503301777643852
Ni 7.401084106745971 7.584095813436695 2.3886605074229843 -1.196072819754824 0.08710846088373386 -0.549691314359963
Ni 8.401673852632983 4.091328169756606 10.284840713255157 -2.4973636655098987 -0.8739822421001078 0.2860581095111912
Ni 4.99870236723169 6.776171976273898 1.1168387894104175 0.14969939624207768 0.9768865323655177 -0.6435504637039691
Ni 3.5510273614375447 1.9150257273326978 1.3727216024030302 -0.412603950454941 0.3783869382536 -0.723029175956587
Ni 7.2567449591152995 2.8268878743575194 5.5404712832709535 0.22118223477341262 0.8241930864921225 0.8030123386494493
Ni 8.086151486462345 2.521530760376139 0.7007724155941488 2.371073135110065 -0.5303139382746157 -0.3245200130318153
Ni 0.25514597158620667 1.8807110323281873 11.983760054991754 0.8777789901383786 -0.05342289570583058 0.2537447420904662
Ni 2.658668746721001 6.0901289553510605 1.491296388726226 0.0421825469053209 -0.8972535539232225 -0.3038295745619993
P 8.393682886560988 1.959291962643147 3.918891484561856 -0.4979460634668714 -0.41327577971098506 -1.7782338246077183
P 7.691899520840523 4.45539100890411 8.349737219075521 0.33573285102849926 0.71454942062035 -2.0054918332615657
P 1.1029577379976803 1.9844263384858771 0.8270789261830509 -0.16640231081905535 1.5153889199881965 -1.7570013975915033
P 6.772037115922692 0.811534638808817 13.39930673126597 0.31119707067066404 -0.00840647889614036 -0.022499209543780607
P 0.8901991955129026 7.045894956666787 7.309918334049719 -0.5141036470633404 0.19125613663794158 0.5116395017935641
P 4.541108057757783 2.549582768017249 3.1963362529647084 -1.5253899970649667 -0.34175668862507597 0.6728990920694154
P 7.781946558286695 5.264309070915399 13.023362440587928 0.7262713370429685 -0.16027614331665943 0.6078000455772371
P 3.8230454216208787 4.889439843928673 9.093399751287953 0.7298037756762593 -0.6063545713799622 0.16773568491849822
