# total energy = -381170.03206271824 ev
CRYSTAL
PRIMVEC
9.23170130054648 0.00000000000000 0.00000000000000

0.00000000000000 9.23170130054648 0.00000000000000

0.00000000000000 0.00000000000000 13.51152800801399

PRIMCOORD
 96 1
Ni 3.6425061805481103 2.4466685350309456 5.929034241353689 -1.5463131203708789 -0.5905571993363893 -0.06944086840064169
Ni 5.983859468388624 8.485715113141204 3.5077815028725308 0.8895032205538423 0.430285169784788 0.9331032166319801
Ni 3.695994657250544 5.531764597647929 1.5211277150343019 0.9461772762071187 0.602293513936711 -0.13801964591130425
Ni 6.529203752862712 8.085936293051647 9.781157275491857 1.6890828793726589 -1.917306337263569 0.3719149573760111
Ni 5.951114624263057 3.167978275912539 1.4597045911579396 -0.5410662916951133 3.533070353337419 0.003534238405503591
Ni 5.490591210334699 7.778197533839423 1.289424016344041 -0.459143488777377 -0.5732032814389741 -0.1777897267203906
Ni 5.136943201098105 3.3621394153681115 4.3445235122801105 1.8198471292731302 0.448872188758356 0.6598070347721475
Ni 3.329274559127058 6.651763817878506 7.941265380512553 0.7449241762574654 -0.5698451636000186 -0.868274650192369
Ni 3.6051085590221246 7.641199088160425 3.355601524584428 0.5455029873102283 0.3940331294312891 0.2158456530518476
Ni 3.605625534288838 1.8902554408284804 10.362396260537984 -1.2815632854191605 1.7059284901750877 -2.1985012051451878
Ni 5.052380818185732 4.1218991917115 8.520058887913104 -1.0653257962455331 0.3573429730991072 1.2382440538062351
Ni 0.8469568867757608 2.2702414935638746 0.6461239968692308 0.2805055551240782 1.0803695779525329 -2.024135673614998
Ni 8.230329331384882 0.1756617334383118 2.5473143877588145 -0.81313091514069 -0.31490228743639315 0.43414825228462
Ni 7.763860701889323 2.0515055655370427 0.8159891451295208 1.0133082655276613 -0.767331083197756 -0.5817928228801981
Ni 0.87774461024877 8.930932366494373 6.622270378912518 0.3098179309349503 1.1307829974080783 0.9999218169184262
Ni 0.29232735724345604 1.2351554608909416 8.992678599912432 1.4537914588913738 -0.080762464061048 -1.0608176239625344
Ni 8.505009368631034 5.558619616413441 6.130206857864058 -0.7553836810278927 0.1383729154856649 0.2511679825022255
Ni 7.780265434906275 4.564836214870417 3.339050007518533 -1.0292455055832082 -0.13512921173738665 -0.43025637342938156
Ni 4.160496934392355 8.219777496923218 9.662526222503084 1.0263589280640322 -0.8858846499646487 -3.3788632990329743
Ni 0.25670037600596346 4.86945465907998 12.412337975893221 0.9213417052206777 -0.35988733678751567 -1.4435414990285913
Ni 8.32438190312192 6.177078974322683 8.650309883191376 -1.3188887613424962 -0.6198711178091582 0.7270925473926833
Ni 5.1838217797475625 5.709244053050809 12.262211127950065 0.7982935930175412 -0.9345134667159454 1.0142364337688856
Ni 0.20347777229783942 0.7590009305054627 4.645897936691047 1.1053133923820644 0.6612471096527837 0.4306808625613099
Ni 5.511750269465175 6.079250636798401 3.6801078226704234 -0.7188171947577685 -0.751853299277131 -0.15778834389779925
P 2.484786229249853 1.0845033291500001 8.024618410568866 -0.7698211966094614 -0.02851661938245411 -0.2868944893695575
Ni 3.9096346862197744 2.155833020700005 0.9180816054340677 0.2516197253276634 0.8027626845324883 -0.5624463000327862
P 7.06840895604458 4.3117675901131145 8.431261000494159 2.078633547552562 0.23021014930363579 0.43530370604530194
Ni 5.108989609890826 7.84569973295026 5.522296564906124 1.0818484764909044 -1.2023105731344197 0.05150742385067258
P 1.9735438489764536 2.2028039163613755 4.207057019350713 0.004301969809463559 0.7055029941473656 1.4867887397530006
P 4.76988153003054 2.753271794996639 12.50418971006625 0.5537184332414851 0.3869556537592175 -0.11890606501030487
P 6.188258564465356 5.438579805822875 1.3380335389668687 -1.3583263985128284 -1.639189079866009 -0.8617016249605418
Ni 3.9039017997799723 7.555473510897946 12.966607469079065 -0.14345752909742387 0.009976137376105398 0.7106115190185246
Ni 2.824078943133965 5.091920194388099 12.718684594565797 -0.4298719935067693 -0.16091043446654868 0.7865498222180519
Ni 6.025337501841167 2.838332689773343 10.751811572870182 -0.4692723496812628 1.8427289189673104 0.7896156056275693
Ni 1.430793672537123 3.1280973267660923 10.337629452581947 0.13893547285735428 0.6343469428278301 0.2874927850751887
Ni 8.855841709004281 4.281570695516348 1.1540549659253083 -1.0029744877018212 0.8082483902374081 0.46642819536424834
Ni 7.425712718952933 1.5786116720123333 4.2431603563696765 -2.7122438693246838 0.3474100302561114 -1.0351392453598238
Ni 3.5481397309705685 3.6649761412477515 2.866119187189059 -1.1537262364678131 -1.41635825374558 -1.3229266788572958
Ni 3.6839842140006533 0.0371326717017948 11.37423410010085 -1.3482368754873104 -0.22474938329938066 3.5186513496986107
Ni 2.831048877533402 3.2356374139436297 8.261921136031654 -0.678820856870489 0.3993640547258993 -0.09815957649157288
Ni 4.066555143069613 1.3399537328146605 3.558923281132134 0.8981639815526339 0.3032261366500455 0.7690184982025078
Ni 5.9873028929329815 3.1374121132681214 6.674519038144958 1.5620981511192775 0.19705140316348 -1.2987421111912925
Ni 8.55008776554819 8.15813742806886 12.005695385967929 -0.8950879137304714 0.014463226613181543 0.3361401137692469
Ni 0.8027573478120202 6.906826490093132 7.575413985471169 1.2800316792659827 -0.33873255708677147 -1.087073729445586
Ni 5.501890812592859 0.8880139546539801 10.01497411058481 1.2816856699296377 -1.6461577978743582 0.9372164674694052
Ni 4.23299348384769 4.706893632802252 6.411922374588108 -0.17064797346928673 1.5064929030501473 -0.6104997038965874
Ni 0.5802475003381821 6.1530211610181365 2.7569053925855376 -0.4543553233601143 1.0100121112748928 -1.6589585491834529
Ni 3.834082443670116 4.152751537092849 10.576135068709963 -0.6490739646253596 0.7916979420778946 0.519583439230989
Ni 1.9229725898504728 8.076510726135322 9.470878875281905 -1.2852479333595996 0.8323198293643149 0.00377849320582575
Ni 3.851354956599052 8.797377345359735 7.139991567081976 -1.6868676168888947 0.5703802101678822 0.8339720202557573
Ni 5.5009122522665805 0.914976061153312 5.625727621883411 0.0395646496664996 0.14292659629461837 -0.36114486334370055
Ni 7.310907282937836 6.063178245024335 10.893331705792683 1.0881641342962873 -0.6378739821444821 0.7323730790653322
Ni 2.895956968609483 0.07862178319576744 5.00569702843141 -1.0564475199192966 -0.32932000552361995 0.7659185191209454
Ni 7.345673869624299 4.025474072768296 12.775851904192967 -1.4368957115772996 -1.5751526703103906 -0.5283527007831869
Ni 7.225837156459941 2.0011927940444187 8.530895058771462 -0.6227345553998823 1.1650282917441936 1.0649948952686754
Ni 7.675024041325374 6.218732410097861 13.364576875735127 -1.1395031508898956 1.1640363601445696 0.6675362850956053
P 8.749972559742371 1.9431715520570532 12.031772172323013 -1.2626847033471027 1.1053817837261544 0.959036134447658
Ni 5.12744378057225 6.1035484743339214 9.92277157176651 0.7082437901172963 -0.7250251233406934 -1.141899419036214
P 3.9521282068033607 0.15198334305272806 1.7478786060354268 -0.45894371406174506 -1.2812046165281614 -0.3864558313046635
Ni 1.6227576671091641 7.935210307701175 12.144188444069798 0.6002186336855534 0.4524125978114466 -0.7822468239673237
P 1.6297552966121749 4.76988153003054 1.0894127478435371 1.0424470918751467 0.32742458827311993 -0.13838217145704554
P 0.5023319422835496 6.423214591485314 10.778280706525896 -0.1626464433210489 0.22717367647015715 0.0526263679464642
P 3.1799979508636214 6.977476699310205 5.684272301328324 0.29274066373768937 0.013276919614564233 1.186293114660241
Ni 3.130709898203232 6.550565909419396 10.976697660230661 -0.6217084281282131 -0.39872924935537785 -0.6482900352714835
Ni 0.5443804948697155 9.05916069604163 0.8981503625620354 -1.249833044195415 -0.5891243235446048 -0.43722586276867925
Ni 7.359946079666061 6.701864260243729 2.4423167110893633 2.416050985372336 2.3471407926641836 -0.21617758246996965
Ni 8.547244401581265 3.4049837405969683 5.130961981896257 0.4069387817493636 -0.6807553548890406 1.2738006107546063
Ni 5.881295268153201 1.099947965243057 2.146468383011543 1.06609969829708 -1.0770101745619969 -0.6944703904822879
Ni 7.820155615753914 0.6423103811071018 10.418941353504861 0.7497768763640764 0.7979945737198838 1.2761526559265506
Ni 7.769713600444612 1.4071420540849942 6.477588388331994 0.7967239345375762 -0.9205973708554854 -0.3052879042750807
Ni 1.6894844033199323 4.746405313901047 6.374725080977973 0.02480831729293147 -0.1939326550288402 0.2899029371785781
Ni 6.613719977269128 0.8516604385327318 12.739330371110034 -0.5536798666940659 -0.7191928329296323 -1.0764375898879786
Ni 0.21029538362761974 3.8399815007313616 8.558512616055376 -0.25769138544304004 1.422986300585059 -2.3383658746850307
Ni 2.6349490808276554 2.688299082012219 12.276884916993648 -0.4712994074136206 0.15349383028750338 1.1816790129269972
Ni 0.70037131940959 6.7575129550249295 0.2791103306478616 -0.7562696831772717 -1.1163796774985548 0.7925014118157964
Ni 8.216934132956295 3.3972106481938873 10.315713393953784 -0.04855348342867122 -0.03480168106021748 2.097039817973892
Ni 1.234813887946863 6.6996301885554335 4.943800318283933 -0.6674288129834635 0.013370507769635038 0.9059395117329946
Ni 7.753253477220511 7.994136256405289 6.2865900297045645 0.1878705079951603 -0.1747000320514733 -1.2374490687087658
Ni 0.7689000836929013 2.3863947579529015 6.952410784235568 0.9995029842134528 -0.8133340322904316 -1.678602034445993
Ni 1.075788603225406 4.284469449690419 3.7428963151529797 1.1017549856068445 -1.4602474989293623 1.0992638437538744
Ni 4.75067035985143 1.5852492651688832 8.070273788810475 -2.0193475081977352 2.160305925022389 -0.8631175314714619
Ni 2.3614968598399457 0.6317511612844847 13.499367098489163 1.831581129880607 -1.0534604122665145 -1.387331784606243
Ni 9.050953713682558 2.535025147132947 2.7021161691852487 0.3293153775379296 -0.6845796137311371 1.535482091193646
Ni 1.1271999471597958 0.928755298351457 11.187558947141309 0.9013639765471703 -0.9310815582162609 0.615837828280049
Ni 2.5692747585526963 7.652194044279271 1.2672836273769288 -0.11190957908781371 0.4248082058306168 0.2854019639844311
Ni 2.136603387118512 1.3641407899358855 2.293500764715373 -1.1832746395488911 -0.7321324238094359 -0.14007575710938455
Ni 1.8671669561490212 5.497118023076954 9.181731839098854 -0.8802922434785355 -1.0610901608976306 1.2034781110799595
Ni 3.244425993477754 5.409739971301231 4.193316555297571 -0.4888289316569516 0.25095149561604524 0.6855759162061354
P 8.731583010969286 7.7594941072258345 4.052458335350487 -1.5320663806438775 -0.02500269269192468 0.7228720815534325
Ni 6.0195676885966 9.078334939415976 7.901419511830633 1.3514188727597178 -0.6054575134869895 -2.1248982349470564
P 6.497391310557467 4.949668910731248 5.17853663081554 0.7032859318913889 -0.600493741723811 0.7625082078878158
Ni 1.2861790733752962 8.441319862112207 3.202015558204889 0.9997680649493815 0.5472513374599026 -0.7266099513293098
P 7.46976639703785 8.556273005346364 0.695866249228232 0.7119230387410964 0.19296849134335797 -0.7887373167876739
P 8.180468913250632 8.895759584955494 8.193822569023858 0.7226180565610975 0.06016278553282542 0.3460128927982686
P 5.502343165951233 7.831630620334709 11.622562246296416 0.4763223145495087 -0.01522761558303184 -0.3065909393572203
Ni 6.0266391717091405 6.73033482671772 7.608260378309841 -0.5043586518614346 -1.2509651009173295 0.06423772693314744
