# total energy = -340871.8704827246 ev
CRYSTAL
PRIMVEC
9.20297711640019 0.00000000000000 0.00000000000000

0.00000000000000 9.20297711640019 0.00000000000000

0.00000000000000 0.00000000000000 13.46948726103467

PRIMCOORD
 96 1
Ni 4.236047450984509 8.07589754244573 2.1229795285654305 0.32028951989023546 0.05810050368715801 0.39611366610940174
Ni 2.3617415618625017 8.9303663408397 6.6325238086484735 -1.1137430112066562 -2.5898063941223524 -0.6581702704996729
Ni 0.6631499517316914 3.7027809531661786 10.480567310464474 -1.148183452272713 -0.011207181569729085 -0.3656746328932541
Ni 5.79155301650785 0.033373675514511966 3.800995122891215 -0.33695412503011 -0.13178832028961174 0.37553687039931455
Ni 7.831908218256247 7.6536925701373075 4.59856375556405 -0.6280906775054732 -0.7888738423655381 1.6693460630653636
Ni 4.695368029224443 0.1565812899677392 7.479242780175366 0.9410206717068439 1.0136561357853833 -0.15140429474832634
Ni 7.176453795827786 8.004482441521228 7.422899394558088 -1.37915593366367 2.069787667126158 0.8017429850187224
Ni 7.56995468311256 7.96691588972048 2.1696248171009764 -0.11700961931854041 -0.3189790286089281 -0.6669076503726707
Ni 5.282223461666919 3.0308255931143115 7.718622333223988 -1.2831427140911384 -1.6639608874940504 1.6524875967471284
Ni 4.927807617375233 7.285306606876112 8.15907404787816 -0.17394952703869396 -1.4572511353052 1.3395272635284543
Ni 4.649012634461979 3.632930358318631 2.271494409259932 0.33218267178339567 0.09198532936006093 -0.11837821753129289
Ni 2.3624225821548226 0.27715133123476 2.1230062171985082 -0.8827113944429895 1.0815499714138792 0.3116223311335407
Ni 2.476245000741709 0.2975350048220897 9.130628640476003 0.5890649310615791 -0.07206905005210815 0.7827484461940907
Ni 4.6683480889777496 5.830996975600945 12.128060311526571 0.11611230431525163 -1.1325359755434432 0.9279512401173955
Ni 3.493293589461999 8.68969008834259 4.419271359145088 -0.3202509533428162 -0.764346032427503 -1.0067501526941693
Ni 5.214369912811719 9.332738897878498 9.988257741145421 -0.4343135742178907 -0.10336811727570584 -1.4145358558248606
Ni 6.9043401741608195 9.281018167569773 0.0524928600725857 0.9927587235110839 -2.418798466210486 1.4072336657364923
Ni 0.44970990943897177 3.879827823215865 12.999482834008571 0.5414828104072417 0.048885155736477094 0.11382145139854591
Ni 6.42984388697443 1.354779435850105 5.938359824685395 -0.24716965997610976 0.43863045642568976 0.6782996942596964
Ni 7.51398217746529 2.851523993718427 3.1732223347502293 -2.7673359252028216 0.9754261457699072 1.734059958303981
Ni 6.61853252283204 5.058471483731687 2.0102936776285674 0.9455715243023198 -0.7423129638868634 -0.7550232123646803
Ni 2.704865353469347 7.596183167343853 13.335640892382202 0.6890785300427552 0.8043002042229374 0.5898012950069714
Ni 5.8671922838401285 7.033411925509548 0.6679143328848635 0.6569600522416558 -0.26617525454433516 -0.007702253740264154
Ni 5.628614310081523 1.6323228139017958 12.72366777502307 0.048715462927832236 1.4863580799734852 -0.8333125322948874
P 5.735644931699042 2.287547161907175 9.886549201082623 -1.0871752880204566 -0.11673836793502476 0.6138758194576718
P 5.927536203525948 6.538365390853518 10.18369952146932 -1.7015411597406698 0.9729193201876535 -0.6709926190753218
P 1.910335543776573 7.357577584654477 2.1726010598379593 0.5878284875513167 -0.0295129218574524 0.5945416379054341
P 1.6245370954247176 1.0073762599739435 4.638810214244853 0.6574827575143452 -0.18880253289112647 0.012959645484461551
P 5.279398147751478 2.445856770941103 4.137570076119468 0.09429238022668276 -0.025079311566131 -0.3586238966940598
P 7.34324854958496 5.220048149573371 4.338764637318097 0.1697401169430367 -0.32381553076562297 0.1623836765779655
P 2.522443944896477 5.6267184968353305 12.179918166191452 -1.013143200704707 -0.5342343563749444 0.17674560172659237
P 4.648607703477356 8.934029125655158 0.14626751372984115 0.23784966812676459 0.125800478137293 0.4715986838215943
Ni 8.018480169421508 6.317935687587582 10.542176639477242 -0.1390113204006122 0.023650549539404427 -1.6965604186966263
Ni 6.309726632172033 5.135721272025536 8.278144924204382 0.28679961566290607 0.013641759153150699 1.2990442158127433
Ni 3.452726867184267 4.189830100875895 4.837646972755742 1.7683253072447545 0.31259909322451324 1.059737503524478
Ni 0.7047363638525211 8.093723708746086 10.185828170031671 -0.2630786178968824 0.07417684042373031 -0.09301531328647207
Ni 0.48278816939424707 8.389166876913519 0.5567285671864914 -1.1689080864145742 0.3976434724903668 0.6935859309948055
Ni 1.685488411587472 2.009985377901638 12.118901508892543 0.41807191554804773 -0.12918070746343557 0.9147013170860246
Ni 1.5095458987685773 5.419660719038892 6.489436843743311 0.9950691168118153 1.418843482061279 0.647233568982511
Ni 0.19580345731698323 6.773197753004357 12.203974747868855 1.3799624887253654 -0.30465489867677215 1.5778875527430503
Ni 5.52524647327946 7.945288893950817 11.891455456020312 0.4919001143831076 0.7618744309585589 -0.6070495405644578
Ni 1.4032239063741483 5.698382078136761 0.8136287477016165 -0.5711014046046229 1.7470818244849462 -0.6121511234570812
Ni 2.430000041702325 4.117853618359075 8.487487801170865 0.6753652942217208 -0.11789536435760341 -0.03681459772518821
Ni 0.47278545377635517 2.1352194878733672 3.147011336175091 1.5587472323691736 -0.5076954295441515 -1.0763180335909786
Ni 9.066137859388563 4.201582302406899 1.882522306919095 -0.2640988316312806 -0.19074680110169084 -0.5016525657841813
Ni 8.773639643836573 3.31412083174304 5.073955492405072 0.17944037494993612 -0.34356365992682764 -0.15490356615083647
Ni 8.45058754489936 1.5126380990147927 12.900684275248908 1.6494650078707205 1.2502750168288403 -0.1912581935204706
Ni 0.35361518529936237 1.2130812001626625 10.277394109227343 -0.6823504672903022 -0.43936579192981756 1.3100289969590213
Ni 0.3597232010833304 8.559928113724618 3.3544676028723064 0.9312597356653382 1.1433338374898954 -1.24160088609361
Ni 3.653903942726742 6.758086464896364 6.068125480494137 -0.6297531528095607 -0.7475459301510287 -0.21689080648691036
Ni 8.38474024501343 4.8247894936962545 6.747849073366928 -0.7383148984710639 -0.12602133589884748 0.4653359907413341
Ni 6.384307557158136 4.549289176521528 10.854089455146541 -0.7910533665153602 -1.3289266051944726 -0.4700693916612614
Ni 3.8356627369611376 5.905918410733208 1.1832295039166825 1.3065862898260596 -0.7529516745476323 -0.1170651551468242
Ni 2.900925573842489 3.8976355835623737 0.45845273751606924 1.110471539544236 -0.7727262860713981 -3.4963904814178814
Ni 1.4567760290906013 5.840107922754972 10.130482387112874 -0.49776968579000724 -0.5976187341688611 -0.4433844261709073
Ni 3.515150659654743 1.581393539608472 0.468260350023188 -0.4884360670939072 0.4417198939842909 0.045220562400696315
P 7.906553564080813 8.496832503938744 9.53562864742639 -0.21401117094627012 -0.1553609654032292 -0.9163848754360346
P 9.414921481803214 8.721596809335535 5.858823096626115 -0.9229162487966492 0.15993084416209874 -1.9010639072627775
P 5.293395875651758 7.999365586351896 5.621665142206768 0.94227279894639 2.113763815596792 -0.3380854104210758
P 2.554801611758661 2.7498126927625517 10.254145548923804 0.6709928761856381 -0.5370021489280687 -0.19638111656933277
P 4.14295933940573 4.857579700473833 6.971254099072154 0.27804295251619854 -0.5405860096245851 0.9384683375986355
P 1.9836004430626502 7.304724888184191 8.482894595388466 0.5047864834274726 0.2721975494790151 -0.32339901205349464
P 8.175933901601573 2.516958970650214 7.075198042229613 0.08374880038288157 -0.17676077123524397 -0.18121572168280403
P 5.407531195454035 3.902872077431709 0.04938041327713899 -0.892471816263863 -0.20183005549904595 0.7603729067123679
Ni 6.000718276019715 6.6112897799934345 3.41516123568121 -1.9268140196436883 1.5187951174562684 1.1233815627376849
Ni 3.941589001347866 1.38067661291216 5.574401413621979 0.35609033163892867 1.5893934965001209 -0.5908017112470277
Ni 7.03911777120197 1.1314784037841117 8.345114987274947 -0.7489808628253423 -1.961914977111879 -0.5118629306582798
Ni 2.929500817189213 7.452193390402519 10.933101613521194 0.9679745745878684 1.306281356991131 -0.24896197598984224
Ni 3.6324426005416988 0.5531412467818044 11.711678062717496 -0.6701878637858394 -0.37720448790972455 -0.13253085488259111
Ni 3.3367049371127218 6.083066513529051 3.4292105002522595 0.2662891544143801 1.2964677133348188 0.427769859562102
Ni 0.8263840737172556 2.2615119401912716 8.366679402801532 0.3049004390286749 0.9821588365080506 -1.0089921546508107
Ni -0.06333028569741729 7.070877244564143 7.135824493306976 1.4940788456565108 -1.5115934575015064 0.43155555185677935
Ni 7.2779626312913495 2.932096056681573 1.0520199010286801 -1.2207446114698912 -1.3341924815791022 -2.772226163415587
Ni 5.485149102824813 1.3030587055413807 1.7309640017560712 0.35138058486808516 -0.36578313344666036 1.0850060482832797
Ni 2.1862039800282305 4.305198619585889 2.441250680991011 -0.6478483197483745 -0.6689131108384737 2.8428983331201687
Ni 3.955264625055831 5.586299022188371 9.810554698841107 0.3354055495960675 -0.7962133134497449 -0.5853946812988434
Ni 7.6950507484304405 2.960017888666745 9.372432257646212 1.2965265915972122 2.6390908421797774 0.68777652340188
Ni 6.192011354346608 3.912700856785751 5.904793806953186 0.39332093385561295 0.09269469672225972 -1.8435591281780894
Ni 0.15950783662933604 9.32473230795526 7.89252638665438 -0.2814157256431734 -0.06442001814728261 0.9263661550184626
Ni 7.329260024661605 4.892330141336065 13.09539902039587 -0.37321130758993143 1.5629833819377081 -0.029196161947981972
Ni 4.346575203832868 3.2658972326651554 11.654580953290203 -0.8122377139024591 0.00030390439366399276 -0.9213072524383165
Ni 0.03717082379304926 5.987613236880992 3.3105031415145065 -0.07278613072379078 0.2563109601557456 0.29122525553442746
Ni 7.235260818367421 0.6177673116300169 11.056603723235966 -0.23827569992058964 0.515926302094376 -0.03430288704692802
Ni 7.935128807427537 0.8575987308455707 4.293264199111805 1.1625487198554494 -0.2861043893680944 0.2440298287955475
Ni 6.269482014086615 6.277810708202167 6.295058927551741 -0.0021412147127188932 -0.9458612876285967 -1.8733353309992575
Ni 1.6506275350021609 7.286659444483831 4.714185356139433 -0.5321036831851867 -1.297667904290507 1.264389087632719
Ni 1.8103820114130404 3.1759841481249 6.352088855247494 0.0658930031483833 -1.9683213948588552 -0.5617011943366454
Ni 2.952342605912746 2.3305526730695716 3.527241530736523 0.649116902048153 -1.0910748801851788 -0.8244108589298834
P 1.4621413646368622 2.2914768330534074 1.0729447096590976 0.13845107702176798 0.5195196758725892 -0.0777604440099306
P 8.140796935708563 0.8609274475987141 2.001619871878394 -0.6542961322562473 0.26318043358206933 -0.7103315258842605
P 2.9594473040975027 1.4735806649524752 7.442565235945403 -0.11933286813507836 3.5049908214923833 1.5441243402496763
P 7.997745862413402 3.3853426701521534 11.744611835935077 0.7842962502971847 -1.7175269936459647 -0.6812106972589042
P 8.901938345123748 5.114563628078959 8.772650323817324 0.3952952839731644 -0.14343078962454653 1.1594227726319581
P 1.4043190606280165 8.976298398663694 12.093862049279736 -0.08939082916000735 0.11953187151976188 -0.5333216147526879
P 8.459173922368763 6.35154495931133 0.7767303320254959 -0.3925863696824336 0.3640733498444052 0.4105568381179252
P 1.377179481681321 4.552160505321585 4.5582896879524775 -0.4338078382260658 0.35047761343784156 -1.202179189762878
