# total energy = -381168.02159343165 ev
CRYSTAL
PRIMVEC
9.25585533776603 0.00000000000000 0.00000000000000

0.00000000000000 9.25585533776603 0.00000000000000

0.00000000000000 0.00000000000000 13.54687988301433

PRIMCOORD
 96 1
Ni 3.6351909624494354 2.7778395805864804 3.113086666252545 -0.9547027971796269 2.454907553228217 -2.3155540189968375
Ni 6.9253421441296945 7.490902681828578 13.437773170389933 -0.12513250553599095 -0.23752236669433288 -0.2997764875385482
Ni 5.840509602012326 2.0680172792986604 1.8395846171003907 -0.5001132463215193 -1.6754339211306564 0.28260228975210683
Ni 6.434948408824354 3.2720930076290586 4.7787028515849475 -0.8710573551438288 -0.4925269493338292 -2.5499771779405567
Ni 4.672633524483694 3.8863763686008896 1.1617005707490513 -0.6410886324270378 1.0913417606933207 -1.2334132080764952
Ni 0.7684951692071236 3.6831362938616445 12.644725918923347 -0.9279718089426856 0.7836352196744182 -0.02702306555606314
Ni 8.011609343847237 2.180198247776648 12.296354030179577 -0.9754140615850491 0.10653263104661652 -0.24657470670458825
Ni 3.23460679291488 1.6337788192207086 0.8115802509041683 0.0056857375308676265 2.885810559102662 -1.6388170412385714
Ni 7.982851400855396 5.112906802337855 4.21791555855967 0.0987388460338106 -1.073065845202268 -0.11276755621273483
Ni 0.7375287790965662 1.4404332539949103 11.12078263440073 -0.11347666646461746 -0.9133242342328399 0.7581671573103006
Ni 7.33675566458168 0.8198623903921306 10.351645108822948 0.6106624547266967 -0.7045303458214511 0.2562299704061652
Ni 7.246946098810896 5.249180762643252 11.223468020736673 1.72629908341164 -1.073969330853144 2.771480543498814
Ni 0.9468832719691905 5.738824773654309 1.3558532465731403 0.40871618536476056 -1.2588216208472707 -0.2583141066287035
Ni 8.3257160555856 0.6534097132779486 8.169933528674507 1.5468103717222716 -2.3290975620092276 0.7617826425757009
Ni 2.6108917152038518 7.464875216204807 1.8465348389840641 -0.5334686818535135 0.23629800736892856 -0.17162704955310443
Ni 1.4678490979414283 4.028851752081224 3.5821336220528703 0.27894746660833897 1.6824512329887542 -0.08105454138017008
Ni 5.038785911614116 2.627339370400666 6.457133768836309 -0.8426268677172778 -0.7993395177835524 0.6231806417983655
Ni 5.802449524258078 5.567360050795009 13.284693353280455 -1.8211529925687475 -0.44617227332868964 -0.8809938975312505
Ni 7.480027051633724 4.088357646994177 13.542193104043765 -0.05515144836116308 0.4845914965368364 -0.5179764997551853
Ni 8.302594928584115 8.996089900796425 12.269490760805512 0.9769855198372271 0.9659855691822975 0.6128142109623769
Ni 5.560751369978732 2.6642424662192905 12.662661915682145 -0.6624444723949946 0.05379030634757833 -0.2884888304398709
Ni 3.174860245759318 2.702293288118054 10.139392607597976 1.2128770357963563 -0.523198410275757 0.8215348229336691
Ni 0.22806705590661328 6.727738885380805 3.588988508625049 2.941973222337159 0.5780806641359334 -0.9962050301884714
Ni 7.489782723314895 7.583572306944223 3.7956190032284423 -0.971000763008702 0.9872712180339513 0.4749454888066401
P 6.26319675444502 4.058063231991829 2.566198891409065 1.20160326265475 0.023323248106972738 0.15415228980710874
Ni 1.6158132037243578 8.715609712035002 12.966653828546521 -0.35184569742996175 -0.29100054111813106 -1.9293164743505673
P 5.672534336670864 0.27840502596169037 6.115820395485387 -0.2855770561097146 0.7012005101172698 -0.4000610807929239
Ni 2.9414275704280604 0.21389819233020213 10.297539079999936 -1.2572769020679702 -0.3846583730846085 0.5315313556214846
P 2.921610783834713 4.720023504566805 9.977629872458035 -0.5302812852644674 1.4010043969973291 -0.26666299281403105
P 5.7458036886899855 4.782778204754986 6.152762365897049 -0.4244312821071723 1.5335789606336623 1.4820507108473833
P 3.3329780250092735 1.8302528636004312 12.084046919407244 0.28073798284985846 -0.6814156141808587 0.3556558152046713
Ni 3.755193128812233 8.368783551157223 6.331852062504877 -0.1296023683818865 1.0819618621403173 0.2194480256911253
Ni 8.406584464957893 8.212489175437812 6.1406788465614035 -0.3010311858812557 -0.34081772175057434 0.4689419629250375
Ni 4.700854627857406 8.01663527337558 9.172700879305376 -0.7110632618439625 0.8216492370243461 -0.05301537585476676
Ni 9.38127232680397 0.6403876501961268 5.005815628791059 -0.7450319054799234 1.239645305029136 -0.2841773475487106
Ni 9.17592191701415 7.643661320752728 1.2390554573792436 -0.1913353266153092 3.3064841739396154 -0.16073148568652318
Ni 3.2607545846599555 1.1467171918899617 7.765613695866212 1.6498370464981587 0.8183407414764035 0.48696488186501935
Ni 7.940033813381867 1.1912008333507875 1.2689916707743223 0.6969126813751932 2.6874103552207718 -2.364704769689876
Ni 5.09686640478238 5.80917853119566 8.34980904741301 -0.307200033696129 -0.6110416924429863 -0.9523615506409598
Ni 2.0412123218141516 6.711411556305296 10.156421530519246 -0.008528863406617569 0.39278485884648484 -0.38809516668029936
Ni 3.6038043564998596 7.4093678508613685 12.011625403750546 0.3581194462538155 -0.38026435778197093 -1.2206667070441042
Ni 3.3807937744446925 3.7975201559450578 7.878621212239008 -0.7357232264844878 0.3805698048375317 0.0971733013189036
Ni 3.9296660047041523 8.756437290579258 0.2900572224317348 1.251050204431968 -1.1613066199182323 -1.8203934886949036
Ni 3.7887641166562647 6.067759365879615 6.3468483995616465 -0.3459216186360429 -0.11943339826868463 0.9398109676694589
Ni 7.94890092293648 2.628727748723413 3.2081581858665422 1.0217101164381115 0.5995105518749353 0.3931234731328262
Ni 2.238584184175917 1.8091032338172464 4.965311079603228 0.1607137450747103 1.3626466231547372 1.0097038360058546
Ni 1.3786319069216821 2.093767069257882 9.091703813541843 -1.6308000844713655 0.10855326102107112 -2.4496077382818586
Ni 4.344096934044242 1.2329354857325732 4.261862360402366 2.2848375637495875 -2.994771597085113 1.7664874827050674
Ni 0.5142840238976288 1.682686759603356 0.08655243022561945 1.6926911655492076 -0.3205815972093576 0.04295773450844859
Ni 5.942101871815493 1.1662470469632746 8.17066566684337 0.19870590804776744 -0.9863499917712626 -0.7973852222706589
Ni 8.874560518278606 3.7588677034397713 1.6181743724585769 1.326302280197748 0.3639653635116312 -0.18845260575087544
Ni 7.544410782387262 1.6274385582134958 6.3845900758872105 -0.5660736123727282 -0.7020178638122425 -1.3973341472345935
Ni 8.05465832770789 2.6866323806374632 9.026611084258155 0.5574910129100399 1.448039386898945 -0.7468859279695267
Ni 8.936065677976314 7.03086815251398 11.263065496086979 -0.32209957651578075 -0.4563224743888141 -1.3309081544008756
Ni 7.773863439859977 6.075339911521816 6.9345526459228015 -0.4209119561000041 0.3258099354878324 0.22981342808584937
Ni 4.953789390695521 6.752544578080558 1.7412753992377465 0.8594431679436683 0.9528109794735526 -1.2534300175180544
P 0.053961637477447734 8.631409194688116 9.84333944198307 0.2560055131001849 1.280536643926859 0.09907488921699066
Ni 7.212782736215826 4.9708294206433745 9.03075678192988 2.3149976322727355 0.952018051258612 -1.3404772861465495
P 0.19789759495331294 5.92006367990575 5.559639741734984 0.6179268495985939 -0.404512174585742 1.260955379360822
Ni 0.442967657385839 6.872361627333656 8.323080913529026 -1.2662649644991935 1.055962609863078 -0.05816478126619015
P 6.773175879956583 2.9347726103343583 10.680929572385587 -1.0350006628994304 0.621514309839536 0.4522285068250986
P 8.79626523673114 0.2920574128020395 2.8360802000546355 1.7656397899927916 -1.4848982075985073 1.4377770857409884
P 8.599337655432652 6.170989922103624 13.227892019340215 0.5592918135642045 -1.5728317354866976 0.2650905061205886
Ni 1.8706176493704398 9.075301512036905 3.9196678296092746 1.5247299948834643 -1.1062122500472495 -1.98828138292055
Ni 7.367457337225367 7.73771932419112 9.175356384244017 -0.38482858011388565 -0.536059068288509 -0.25287288100847416
Ni 5.038091722452742 1.0803619639181226 10.234302149740987 -0.2460807977873052 0.42308325271971003 1.2360475603755487
Ni 0.4501816711508343 4.611665204404114 7.744913900659597 -0.4773366147466359 -1.2268504672573128 0.40873906818289607
Ni 1.2917749590506067 0.1634213844428503 7.19992265060499 -0.8038140086151383 -0.10971771364281749 0.006767143520504475
Ni 6.04404586412709 8.217367011278396 11.357366002939075 -0.45023204522036014 -0.12089789862935307 -0.3904047886500825
Ni 7.601028850388899 6.080051141963672 1.803265565762868 -1.1356994608730893 -1.4504161146612373 0.32544843838335563
Ni 3.188484865033212 5.346598641622692 2.2752660650484513 -0.2350083420232275 -1.3510769160392668 0.9106119775079994
Ni 7.728083978631254 3.850232252932033 6.473796159880374 -0.7357399386550362 1.040764304856085 2.925715622827716
Ni 6.793612808867424 8.729104749332107 1.741058812219398 -1.7905589218319742 -1.761334220638902 1.906377091945575
Ni 1.9609362871928986 3.629794798701691 1.2692480579712566 0.8054340607170644 -0.2845632701332196 -1.264182370938552
Ni 0.28194816744134166 4.408786108028784 10.289993706608579 0.4777053109399643 0.17965094829884545 -0.050383080438242266
Ni 3.153349637612219 6.863207586259008 4.104636845621164 0.10269500246808119 -0.5394799210445999 0.09948086640615772
Ni 4.949355835918214 4.381786777579091 10.886855696386576 0.17584957227488426 0.48056694875847555 0.38679110315689513
Ni 1.5585657375497413 7.674131597009291 5.650660898988754 -0.5774607711637474 -1.3668992277835041 1.0735713240837768
Ni 1.4508923706929402 6.028042489993555 12.286302171122886 0.24293325329725904 -0.1526674777314661 1.68895792375902
Ni 5.827245961102346 5.8315777014693175 3.647578999430536 -0.9219934798720637 -0.3669275314637487 1.3778436426101497
Ni 6.030523059263531 7.412996146211481 5.992435213942828 -0.17735983827182358 -0.2872295041114731 -0.3324940323762273
Ni 4.137191540532944 4.304852106787916 4.820007106686682 -0.971368944981398 0.03506907578899122 -0.7055801272422042
Ni 6.198961117379242 0.4308100912063145 13.198535222498496 -0.5696538735248189 1.0291601449582535 -0.1296342500610864
Ni 5.599986941379572 3.4580246326113864 8.798671759157234 -0.722751239704852 -1.6971366029150705 -0.8335285049604355
Ni 3.016381488145448 4.29759551608769 12.39295646829079 0.9030642470677286 -1.440703515359164 -0.10459607614553598
Ni 7.052350993094624 0.818926623402599 4.039476548592436 -1.8600933783876867 -1.6839154762391064 1.1934788337754025
Ni 1.9630003429660496 4.508619765289805 5.944181662542969 0.5950622862955945 0.6305108569111916 -0.6962267110517623
Ni 1.426253283391917 1.963287274486084 2.7050135840450897 -1.635027749399468 -0.10047485488831083 0.881602734759843
P 5.831531422191893 6.3650019089243415 10.282583468707301 -0.9547179666882782 1.5501978001372658 -0.6074642595043732
Ni 1.5716905406274464 0.18133331597738833 1.4946410972282584 -0.701015133579341 -1.169373713197083 0.8685839539026718
P 3.592641794784971 6.00436601166297 13.605402266736256 -0.22615603383892016 0.03795873863196043 1.1219553718141193
Ni 0.1506408991891865 3.1856155498328675 5.302208484302264 0.09492795692815265 -1.5152284831509324 -0.5889759708921986
P 3.979841997288242 0.2876988304541612 2.133430261182129 0.9718980780119906 -0.7586443540570353 4.017918960190383
P 2.497165018859872 7.178748955597545 8.065717223841347 2.2672131657996055 0.8421203603945044 -1.685706506701258
P 1.5550207448989928 2.457485166395753 6.8909862597405365 0.22219319253643025 0.2569845891840026 1.1022491516344437
Ni 5.085759378200401 8.131889185874583 3.7201356505773138 -0.10771919515554997 1.1689510238373675 0.06390605462534156
