# total energy = -340891.1373255164 ev
CRYSTAL
PRIMVEC
9.07746320190208 0.00000000000000 0.00000000000000
0.00000000000000 9.07746320190208 0.00000000000000
0.00000000000000 0.00000000000000 13.28578496002459
PRIMCOORD
 96 1
Ni 6.033798712786288 1.9622207051753122 11.392972178437471 1.3007257172802245 0.16695458377809957 -0.3656121550864348
Ni 4.43559335012053 0.38325593301810096 5.821963405962519 1.1059258291550824 -1.1774945425320043 1.0497690794578567
Ni 2.691313453361763 1.4712025782700782 4.734376228244105 -0.7421903222660702 2.0578299805436497 0.9896363758320181
Ni 3.4320435090741412 4.320972225214215 4.979232622109269 -0.5239188333815493 0.6659838530068207 -0.49611235269224235
Ni 4.92901700471248 4.660805206375038 2.76940868277445 0.1639952440394595 0.7186508443832333 -0.2729128303784848
Ni 7.36901181832163 6.361132027439152 2.740937220172989 0.011876182612295675 -0.6941983677678238 -0.3229742658112502
Ni 5.259935917237998 4.614355828363981 11.820269238541023 0.43429840470923914 -0.033589920140303445 -0.34010269796142073
Ni 5.5106100571198295 8.077707507217315 12.622784138203853 -0.2828030929090033 -0.35690022913473374 -0.5664585065159728
Ni 1.902835942433797 6.4618374016143845 0.4769289966314483 0.041843418398347286 0.7383166982432768 -0.15794569541126993
Ni 2.548207249659533 1.4858717584275665 0.29401993330387516 1.138078502628227 -0.7823254997240591 0.6732297359359567
Ni 0.45016682030700084 9.232869134767647 5.024098890578576 0.3330267649512458 0.031091579198481933 -0.45491402407706166
Ni 8.589513024320972 2.3269259348704905 1.3024489106959625 -0.08554625860293653 0.5137115538312443 0.6525750358000826
Ni 6.976130143571475 0.6473892272436875 4.778471820107366 -0.29281625417063123 0.5219761078328816 0.7448056484017301
Ni 0.5526840560907942 7.751953671121013 2.839159000479973 0.1360103287907593 0.049408375229798775 0.029471784206871823
Ni 7.784841319456768 4.110974196895319 3.861592687740237 1.0469480650692937 -0.9290007644278323 -1.2543461015744204
Ni 7.66215940743421 3.9330831550968672 12.736271487985372 0.8037767276192996 0.017007590301590065 -0.23061175561742864
Ni 7.787319466847236 8.59941653641987 7.057036663265582 -0.21679850388342015 2.33168614867201 0.327462640599907
Ni 6.8845657746057665 0.8804975685347051 0.1679693747736162 0.3704535423391362 -0.36956085532153776 0.47529130218183313
Ni 2.1007155576894205 6.1815707324544515 9.281250196898451 -0.1389403579533607 0.5055598712583873 0.3121699761068946
Ni 0.20629896215913257 4.74843903387528 1.4124114816067188 -0.11096778399983469 -0.08366703930235268 0.5223574024317005
Ni 6.32216247891434 2.115457357550659 6.911357906558011 1.2228529160621455 -0.5221517141787975 -0.4889590294769128
Ni 3.569349213939345 4.4673644705111295 0.5127014626986698 0.6519967946991093 0.1777197927144036 0.33171164568424805
Ni 6.0541594622251775 5.749537959920108 4.783161237477018 -0.5814603792414438 0.6340589792737661 -0.3338880845102766
Ni 5.363001431785103 2.7827961251607523 9.07245039369143 -0.2290027592590959 1.0342529861001284 0.978367230676102
P 0.41902839908532247 5.468563248648613 12.527179390470756 -0.6552561821766715 -0.005702192591099857 -0.20188019201069102
P 4.102677395741889 6.30049457480795 12.600078680080136 -0.018296484316342686 0.5860989064547196 0.5809405021822317
P 2.0497546805828986 8.582123969464416 1.508547260923486 1.5802074591254784 -1.1016058616234898 -0.7286411228267258
P 6.084233097040623 7.875152998532791 5.848760984392545 0.6761361109494742 -0.7080116195018322 -0.15616726335460845
P 4.5748507095240125 1.0644505401036835 12.772939899647609 -0.16612745989111388 -0.07303192818600972 0.0701818603317243
P 4.197845517506188 5.769962251599779 8.262961279229716 -0.7569890778417995 0.47094408095673085 0.01810185180703334
P 4.684642624130957 1.2443477012182278 3.8203011241880196 0.349752819456675 -1.8409016359505843 -1.0513608494250086
P 0.16432658888425974 5.806453652734126 3.8041323471480952 0.6384622505477843 -0.8788688807684477 -1.0235600251626567
Ni 1.46129906617118 1.3075631533325525 2.5645149118828794 0.008425247949217748 -0.6051880618756869 -0.11658281619376697
Ni 1.838159018781505 6.677254675325619 4.811433903639465 0.28655741774511295 0.29628518655583813 1.3091224259843517
Ni 6.055630011226114 5.510991310564516 9.54259489450004 0.20912633205014308 -0.48118838439255834 -1.5349974382477434
Ni 8.419982325916731 2.2067947899421485 10.062241524116095 0.6498568655379712 1.315981100777398 1.5256000561932435
Ni 2.0337783457579115 5.3027906199134325 6.953779614249837 2.3540760863314363 -0.14494105562148588 0.9239819710570022
Ni 0.2761527629424988 0.12633014438969625 9.156283487446661 0.2542851879749685 -0.6887666552292911 -0.11621232022822565
Ni 1.2575463323747795 0.8990137774983464 11.337105840342641 0.4215670731854998 0.5817642836351077 -0.18676261964296223
Ni 4.081989857636124 7.048777079710324 1.4302677590125326 0.0025672465065439657 0.01636095785652666 0.6049718320998226
Ni 5.642324044796287 7.802251893430817 8.144903426843435 -0.9310321930355643 -0.09442170671569546 -0.4767339481656306
Ni 5.309771188936396 2.99876712411308 4.687317752467845 0.8069980627700747 0.8530920289146599 0.9037093368508952
Ni 0.5970919126801807 7.303327296279809 7.1114288213742896 1.0757595899843473 0.5945665776060985 -0.5525730067831321
Ni 5.2202492491386545 4.326700104347491 6.893209334844603 0.4004865983661167 1.1991393744952896 0.6607835397528039
Ni 8.325994274338369 7.059942359161877 9.219338268466437 -0.8256071932308298 0.21091761962261094 0.3883589618646473
Ni 4.487262269338613 0.1839847426893691 10.633543456755781 0.3159919209561461 0.11732792188990761 -0.28591875571984954
Ni 8.181744310302077 7.301965676834496 4.950575979263244 -0.3717730324815081 0.15058771238430194 -0.28328594608269275
Ni 7.300622212315123 6.257776034077047 6.955094938634007 -0.19183052108417284 -1.314411185187117 0.4111227379237242
Ni 2.252908301823362 5.580270507941962 2.709635404617873 -0.28876188159559946 -1.1005324260536529 -0.4485865391971371
Ni 2.5978972819504307 5.158921909321829 11.584008294360961 -0.6191280689955466 0.295507170739233 -1.1263059354733311
Ni 1.3089520051667698 3.2651634298567744 3.8497683844771524 -0.6916591462857378 1.4673576276115825 0.04400597326730486
Ni 4.042248724758968 2.514502629656591 2.183133474967824 -0.5228950201027253 -0.2510232293942451 0.1410211517417894
Ni 1.0426373965897946 3.2131404895829094 8.310537170395193 -1.071958213960386 0.12058088160956651 -0.47316782808092706
Ni 3.7081890100462656 2.594275374225903 6.891602623899136 0.4637264801623691 -0.902425327932149 0.6213590152085944
Ni 4.10519185298423 6.403478392188338 6.024412616076608 0.04293382324904864 1.4365637821591777 0.8458060367762079
Ni 0.6730058277414797 7.34064474654431 11.33284034049363 0.12757479642889644 -0.3969559595050389 0.48068213418010125
P 0.2617804158240884 5.478684619858761 8.180482542949422 -0.35931758032697475 -0.4896768814795438 -0.7026485554177061
P 8.393439824196127 1.652452281366965 7.993591196617462 -0.46955954190437843 0.05584024689807157 -1.8020298985860514
P 1.6407877414521306 2.8386225224185204 10.48196616461112 1.1478224693888683 1.1520899864159708 -0.7097219173247196
P 3.913375982991727 6.470433759045784 3.7803902427533487 0.6571477427724295 -0.6390993699111509 -0.2741559587569666
P 6.979534192184754 3.829845168753356 10.556844341147686 -0.24377940334763823 0.5433723141204707 -0.464056095587646
P 6.339981538721982 7.706938532259017 10.181747231845891 0.2718728191497447 0.8014267393298843 1.229142348615283
P 2.355274851721874 8.505128928563538 5.97807125987488 -0.5828562311477058 0.07067576924900733 -1.3305613125844182
P 6.95883757661602 4.2352083550855335 1.8630394370325318 -0.392093489206415 -0.15588675599971216 -1.7375391751018334
Ni 5.621999605209273 2.912567535761899 0.3947407391661543 -0.4775276477115195 0.5049518053607432 0.2945502061426024
Ni 1.5169983789473853 1.0862546061546035 7.130440659816024 -0.45491968050401654 0.2774261448678061 -0.24146823871595835
Ni 6.731084030730264 0.7404068980306915 9.302108391308028 -0.6269923022349718 -0.9830798056604232 -0.9052635687118926
Ni 2.8783001130548946 1.2404625470676058 9.183200888387873 -0.1217525333201645 0.5750598750317387 -0.05624211032218056
Ni 6.449800685717832 2.162950643803121 2.7140597600688383 0.6295587774105673 0.6117037515070175 -0.321920113515123
Ni 4.251529633503333 6.790005842860373 10.341030382304718 -0.5602001843110869 0.7146684626967176 0.5192311980978929
Ni 8.513471117031813 7.077861271062176 0.7006122081220201 0.7925734027043125 -0.7450689293654459 -1.260377909590797
Ni 7.627311027097206 4.057861961065205 8.082220821805375 0.3141345560324332 -0.7736261721778483 0.17344661926034644
Ni 2.8446136479778907 8.416115326692047 12.400141203969499 0.5350529956214978 -0.6995735160368081 -0.12240379375091823
Ni 0.2195774749898095 4.810492570729607 10.23435839172013 -0.4852694964404674 -1.0771109618059191 1.2473856110961872
Ni 8.64995077276686 2.409040664885737 5.801609918494004 0.013513203995086405 -0.38078397773086675 0.546736088386381
Ni 3.7820614036858937 2.8345648964714925 11.486371102669164 -1.3352543471847134 -0.8725514231908521 -0.20039332305251942
Ni 1.6182393234377737 3.3824260964869937 12.765486394803974 -2.103622870508048 0.43857672036961887 -0.4625959661023517
Ni 3.098582906917376 8.00807428878409 7.862660593995207 0.4604084715327296 0.13863748200096124 1.1053205914709159
Ni 5.777696250049149 7.979589209988176 3.5874278891878926 -1.240035341378703 -0.6850457547342782 0.8310903278325881
Ni 2.9626842088123277 8.593597882656905 3.664113388601535 0.8642681001361374 -1.4257708053087317 -1.2460851471172087
Ni 3.168887857610289 3.9187770734581284 8.932643847778339 0.830040803522151 0.1681984834875297 0.9255344031457866
Ni 7.310253400524959 6.299541441196233 11.492057225472784 0.8793201093732533 -0.48418809045083055 0.6319123652444084
Ni 0.4563857901868865 0.057988648936922564 0.16184844149379296 -0.4523483202324145 -0.10355246537237005 0.15118909341372672
Ni 5.001518701443829 0.18689770055603863 1.8230350577292824 -0.421975364367512 1.3201982241825392 -1.1771633844448308
Ni 6.245067585920808 5.85197712952237 0.4406336686972272 -0.4866280673508909 -0.1369112433384739 0.5489958309548352
Ni 7.934846395015242 9.043712961424985 11.27834197606819 -0.3688098360881261 -0.2985816958994987 0.45063982218174004
Ni 0.232591833648096 4.690125411764077 5.79265500127534 -1.3834658738929335 0.8996490507385925 -0.5120241388264923
Ni 7.626857153948769 9.151716615827088 2.531526503708171 1.4651783605720767 0.6152780991218371 0.20671669416738594
P 8.699286784001979 1.8110264819679325 3.6380066051034308 -0.9813445681368711 -0.5507719490186513 0.23663816431716667
P 2.125188397853151 3.299948267952997 1.6961294021873679 -1.240329218470038 0.8140894223992174 0.2546924507157162
P 4.83760695261724 0.9818002397732806 8.03392690331907 -0.7712101065371879 -1.20242678699731 0.5985613005877884
P 8.661188671922165 1.8502501994558702 12.486883624606211 -0.5220493842729784 -0.46148936330173423 -0.5260654474109069
P 6.676936964121713 7.905163091107453 1.2044876535761813 -1.6681098766654174 -0.7643591450536256 -0.4284352610602428
P 1.9094806453269169 3.213721447212909 6.106053502524886 -1.3461504252719267 -0.35466902581136983 -0.6955127157038732
P 7.074439067522959 4.164848939614807 5.791193529737372 -0.38847800394101484 -0.6673200553197411 2.4667752512000805
P 2.09328111551802 8.314184495016034 10.000303271041473 1.512646324246053 -0.09071751839123086 0.18908381157697113
