# total energy = -340860.5352632186 ev
CRYSTAL
PRIMVEC
9.37707097462532 0.00000000000000 0.00000000000000
0.00000000000000 9.37707097462532 0.00000000000000
0.00000000000000 0.00000000000000 13.72429122022480
PRIMCOORD
 96 1
Ni 3.5937155497316713 0.36723797977889167 6.249890918022275 0.2119422042323834 0.7220989508328338 -1.2297267603638433
Ni 2.694191889267321 0.9520540118312217 10.378528980785775 0.9798106479908482 1.2604432156110938 -0.39785430294959223
Ni 5.207912671357417 6.814429971889007 9.45832887891408 -0.3566806569247599 -0.6188061668797536 -0.5002533714438094
Ni 1.924934498204718 1.5979372806278604 3.9218942782460915 0.8490427985459505 -1.1821947762211513 1.255259100306993
Ni 1.2054974850093392 9.115178718947972 6.240668568759633 -1.9276827954018865 2.7847803459315132 -0.3370777950921679
Ni 5.126613466367989 2.478584897304007 10.892297759499764 -0.3517227986988523 -0.0389414142602039 1.083800715121269
Ni 2.427001630101372 8.117542765311258 0.6986292927949704 0.49204075372602996 0.6535517978910551 -0.3144857687242648
Ni 6.591443225101393 2.622204115714398 9.044692214451427 1.1758994301307424 -0.06738887096761943 0.5709042009921523
Ni 7.597293492875446 5.898224502234784 4.6252233589927005 -0.8058400379062315 0.1783635969459896 -0.11198979750644583
Ni 6.256569267940784 2.7769070319676388 4.348761052088164 -0.9962399971914649 1.1106124359974743 0.6288478673864718
Ni 1.0089071928982236 6.877012543296094 2.1458751681147437 0.19740621539973743 -0.7162265512124568 -1.0975843991689227
Ni 5.738157901407847 2.942778039702126 6.863998106548132 0.17562485785858786 -0.14241803208931603 0.09079105194164364
Ni 7.978086966395136 5.304646535102624 12.71373002415981 0.8460536340106396 1.001986412756939 -0.7361867963844676
Ni 6.157866219299639 1.5338637549424203 12.861829607062006 0.9896291767431666 0.526857604294899 0.8331610943186877
Ni 3.3104061056318317 6.096662077319708 4.418988749426957 1.0207708924532937 1.2979931488404097 -1.6081224403681917
Ni 6.501263933938378 9.035398599449694 8.271932487395334 -0.31493108379179957 0.3094032119950349 0.2544787920430133
Ni 7.3250489924765905 8.571946245655287 2.025293537572637 0.6280919630570538 -0.10472360286233577 1.7827967613880522
Ni 4.465586228014495 3.558870354144507 8.993363065871078 -1.5394359336350714 -0.05156347389958862 -0.1769230078447211
Ni 4.92229646780805 5.288339808750074 7.735353983636733 -0.43280459377253205 0.5851123741717342 -1.9869433808354167
Ni 1.5272247887218304 7.8485052231715 4.055376882977869 0.003123890340962362 0.7541107278527399 0.95663652386723
Ni 7.661048198149163 4.560894776977881 6.738928609857474 -2.250757848457059 0.9175963792456326 1.2741829337946895
Ni 3.8932660806875306 3.3459076961843093 13.178805548932727 -0.21805654466023738 -0.08380613598337824 -1.267899414778823
Ni 0.45342545184571237 5.207668867513159 3.972029725696666 -0.2948158010991632 0.5801396035474912 0.7555582589325439
Ni 0.458210571142841 4.543275260694705 1.71979137969558 -0.02068503915317728 0.995342682188176 -0.8598666286343319
P 1.2027124949422272 1.1308184920986346 7.959196857000533 0.2832892885168024 -0.14991614023857405 0.9478752327348321
P 8.717731567451208 6.61196963337381 10.267389122966142 -0.052100063129348985 -2.198147421350195 0.7911626383997149
P 2.284010675443495 4.752843418977144 3.0341529074091027 0.6634603152540187 -0.9230993113417328 -0.5955227708717807
P 0.1036803978924008 6.569688420536747 0.19020919534118408 -0.23920952458876865 -1.189422661428158 -0.16069806134542647
P 1.1428867823894528 9.025777724672398 10.73463262653878 -1.2094764947552397 1.0221076089868462 1.1608592479681685
P 5.860828743353834 4.070699016882452 2.253158236659617 0.1591037202751131 0.18307102972398795 0.39962784991024725
P 2.119096128944177 2.7932418895329882 11.829817311384781 0.5042380671231703 0.22885543504795425 -0.3435011821200084
P 4.972885765491784 7.98637629709994 12.846622811129901 1.0690412974239072 3.5206179865066787 0.1666203403671324
Ni 3.133601433189424 7.699616090896743 10.681396181730648 1.3357400285718803 0.6754095171960949 0.7416928138043614
Ni 8.867736571166999 8.525201547054099 7.657056379052969 -0.45163381066389313 0.6138010003556784 1.0643125244896703
Ni 0.253942333351755 2.4016085220147083 2.851523198503092 -1.2471043324103426 0.9113663391755208 -0.568612062523866
Ni 6.33276734634264 4.079175889005917 13.60601552357095 -0.7306591816980191 -0.37093922372630306 0.8365433805273592
Ni 0.2952924030451672 3.781416378598268 12.815935408794445 0.9927821205498516 -0.6646072843742683 -1.422260478162628
Ni 1.1892657752242526 7.383111815693954 9.484487155988878 -0.9839519238527312 -1.3154429688857412 -2.084834019936319
Ni 0.21727517288230136 6.839626161486076 6.0730402979322955 0.6427187118312931 -0.28617920847008776 -0.019769469317443375
Ni 8.275424508610799 8.580723184048608 10.027502081235916 -0.0967531830623495 1.454697772755727 0.5360071320046511
Ni 5.396410551253322 7.987285872980445 3.6852470145232297 0.61939880615843 -0.3486318184783544 0.9006494669786489
Ni 6.162845443965081 0.720731048984138 6.08974273667822 0.714091507147325 0.13919618271790868 2.1918253357869086
Ni 9.27734578366391 2.954846329992944 7.651100063596304 1.7438077817193645 0.2874994699434081 1.0759598789206113
Ni 2.6386046127762794 5.704034740282526 6.534780398574331 -1.4241522958687023 -0.897270523204087 0.14760471849657805
Ni 1.8808716418903786 2.9221109753657126 0.8757912316399271 -0.41040540014172544 0.31393529553743355 -0.1306547209058008
Ni 7.2272180114322175 1.668255935554703 2.5177482340558353 -0.1273721934997871 -0.5749274632189325 0.6469108955357697
Ni 6.042903329660608 9.165655491780509 11.21264944690638 0.5447128873087651 0.5712908949076096 1.0827313933164902
Ni 3.3568788691759615 9.325337632699192 3.516094969669273 0.7534782364750636 -0.39773140421848274 0.6878436291943896
Ni 0.8784515066636296 0.08774406584170484 2.3178131407429055 -0.42507174390464864 -0.04141892926641899 -0.46647601788304827
Ni 3.845696199844235 4.860660980565201 1.4610742418247225 0.786168270508917 0.6229574700439658 0.36106027404969426
Ni 1.104956530465319 1.2659702154564931 13.046667616172746 0.14099415515859587 -0.4082880966884065 0.017432079433518363
Ni 0.500232976822152 5.131845871948623 8.136020283584807 1.052784983466045 2.1431733791071608 0.34127820632676065
Ni 5.692350909899962 7.1121519740129235 1.3596190228647314 1.1368078634459196 -1.4893001933209447 -1.9416364293685011
Ni 5.21014441423948 7.876167582423959 6.349159404040682 -1.016726804290907 1.2387099376990602 0.37460355995176775
Ni 4.27480034281093 4.1489319196767775 5.480274385142937 0.12027697721590253 0.07749356350178911 -0.09824622266810822
Ni 1.5867410579338146 6.271094350816057 11.618573470526607 -1.0536625009749918 -1.7284762935686167 -0.3603187678979794
P 2.5990239963679316 7.788032492724346 5.890163972060745 2.8056980699207874 -1.6999830712249302 0.011267859604335432
P 4.773013498554106 8.84640373479434 9.693384853699605 -1.917202207585537 1.3324888686244343 -2.14329962027238
P 7.708636833134325 0.6865094286140204 0.6984389382550298 0.2425596720079242 1.1602177577294277 -1.6463943393651965
P 7.104490907060632 4.78920770005546 8.94177323471879 -0.0230396554282829 0.45734037413036727 -0.6362639573448848
P 0.24951916899264154 4.700200542759076 6.09058010911254 1.1225433831071054 -0.8555039807902621 -0.7771701807753648
P 5.535256840558797 6.074297763144415 5.462583603120669 0.3390295195019 -1.88340531364075 -0.6319038806039763
P 3.171803620170616 2.9264244279949096 7.06297298779752 0.9408918594384634 -0.1435889124689656 0.18003224289766412
P 7.813603765158738 1.5962025225052485 7.562372343013724 -2.2761117538408153 -2.3423919651252887 -1.2640769557089393
Ni 7.3050195689636235 7.537486534464538 13.376051298302063 0.7650484578111664 0.7997997452494227 1.3439405621048015
Ni 6.5028580359969945 6.882394982011657 11.40185248253645 0.3641216865838374 -0.8332114879406489 -0.6736154014101495
Ni 8.420609697867006 2.8546429500025132 5.476802055776433 0.4441362167352673 -1.542430497487021 -2.048802580234059
Ni 1.9483865526082431 3.1325980865995886 9.077795150259234 0.41360205270215217 -0.1590677248308551 -0.1067678869858742
Ni 0.0617376973160207 1.6557656770718983 9.95543647799425 0.5406919390748302 -0.6532808036178556 -0.03414887796756699
Ni 8.510648332966026 2.8787795305841497 0.7916235806520825 -1.1553668573950295 -1.2736090635690904 -0.6259016402739542
Ni 3.7627466303705916 3.0209921883545854 3.1285068705515044 0.1254387239225001 0.22117837811867067 0.24339965141071626
Ni 4.542431324310732 0.1299408850403702 1.5588602129286162 2.1301432853960796 -1.2564772889848104 -1.5186763324902168
Ni 4.400293683107761 1.3389707126701844 8.286562593465058 0.6224093108499797 -0.5532435504875955 0.31741708343844693
Ni 4.296761442936102 6.169690705746198 13.093289475144713 -1.1987431674981355 -2.8581105220842327 -0.3428121264727838
Ni 3.8001423892515422 0.670948179400646 12.54394690243206 0.36666425050003304 -0.4805512650291917 0.8133782552648056
Ni 0.8662875702492944 8.110341174834685 12.663801809976857 -0.28190757767792746 1.2581875868076977 0.1886526375768235
Ni 3.629245271496947 5.075264625938679 10.702503968400915 -0.07861764980390332 0.03570876625551915 0.10177094799191505
Ni 8.300855124981194 0.19408755187908808 12.438681779551976 0.4191268391751234 0.38431153126815104 -0.3456727358500305
Ni 7.816688821495707 8.274730605361754 5.558777347580134 -0.6360284442953111 0.5994231343674515 -0.9774146369548458
Ni 1.8747859228548376 3.449186755440776 5.170626624206383 0.3026440388943304 0.9749078113725919 0.49368574552862077
Ni 2.0446515628067985 5.051803194464221 13.566886881981572 0.42853064898752646 1.3041686815235023 0.2848111244779676
Ni 6.798442065948178 6.647986962827604 7.575602452393145 1.7340077649098071 0.5779009440249595 0.08111650496635707
Ni 9.045375802922447 4.470434173686876 10.202939576736288 1.778381663039492 1.8561729602873582 -1.3336543496874451
Ni 7.883031598346942 3.959768267744627 3.034043195679186 -0.6449308889912635 0.786896149813877 -0.15040362139795385
Ni 7.8509526386850235 3.212950207424781 11.294954811606923 -1.8171621262417994 2.4002703254993114 3.4893029784434813
Ni 7.931286005368349 6.292652236891109 1.8259754555271015 0.12201118629818986 -0.7268068978314645 0.36711933575958067
Ni 2.9247271781560302 8.804113144886344 8.33076798125758 -0.41352980470332007 -0.5155501497018798 -0.046050514501159406
Ni 5.273242724547885 2.3317680977054507 1.1929659674144288 -0.5741831288537401 -0.046418182253223285 -0.03660608125880793
P 3.9197094207186938 7.480389549553276 2.071214929345905 -3.0211567719468615 -0.7835611719033732 2.1914419843055613
P 9.14336619417268 0.8713080540268423 4.345892606089748 0.2745074285591143 0.006034122009221866 0.4026316697335776
P 5.658396536051436 4.899088217248785 11.718993460855593 -0.5421777795917372 -1.1585244291874046 -0.14293636648663127
P 3.0299285369537694 1.443168724878089 1.5607262500442907 -0.3058306641524281 -0.691865348759273 1.106166741521295
P 2.888034699595057 6.201188287010268 8.52281226938036 0.5665212414331081 0.14209510153225852 2.5626673718137156
P 7.398884049003321 1.4541586520116079 10.825652103257392 -1.3684022946915917 -4.3052523368695725 -0.8701129889526885
P 5.580088616689646 0.8018136436350135 4.207785229973796 -1.5507482733240971 -0.9098103075423105 -2.9022777035197502
P 8.801825139578682 7.489607210280451 3.6130154371260477 -0.8979696061536405 -0.3171658866595893 -0.0654137495191196
