# total energy = -340894.58859431255 ev
CRYSTAL
PRIMVEC
9.05258601255378 0.00000000000000 0.00000000000000
0.00000000000000 9.05258601255378 0.00000000000000
0.00000000000000 0.00000000000000 13.24937467879347
PRIMCOORD
 96 1
Ni 6.23627205519478 1.890849810357986 11.468724595126519 1.3301414514381802 0.4385206703207028 -0.4100181920056358
Ni 4.746714321607283 0.41610844398044794 6.2703061568398955 -1.1154260553360338 -0.1749957089150212 -2.377545630208286
Ni 2.8209215299879533 1.3599337572452235 4.8336236717626 -0.4360022747742233 0.44505564322574326 0.2197442167753054
Ni 3.372214953779287 4.337962914121937 5.099684600534528 0.8509053056759861 0.552464763340042 -1.4819172705933124
Ni 5.038026533262731 4.462209654487724 2.7168104562593705 0.725674583999234 -0.24395115303881215 -0.5578124008052007
Ni 7.283692444796456 6.143935679840972 2.6447337679684852 0.048842475423999755 -0.5143694991302173 0.1533681033429165
Ni 5.105042826080794 4.559724108930001 11.71632911193067 -0.007635662168386851 -0.09818271642002445 -1.5370851740147076
Ni 5.36620087437315 7.836805438337408 12.470416752722095 1.1321773066524436 -0.08249590181238695 0.1929026711024291
Ni 1.8734507404138665 6.48299122910583 0.551688116533042 -0.19948649496753385 0.5407654726252429 -1.4672154456067634
Ni 2.7158934293159054 1.804442878715623 0.3304592137711351 0.8079758533023118 -1.7170523680023912 0.36420473321594693
Ni 0.5288167584613362 8.923106684031694 4.435003013067299 0.253272430439738 0.2807570090132519 0.984345559746724
Ni 8.632754046473059 2.1897299837581183 1.275884118950128 -0.3803479186347127 0.7203616564267529 0.7151181486396264
Ni 6.748150520330183 0.7128304809213306 4.788019460182221 -0.04216712028635319 0.24765996934896703 -0.5811965840570958
Ni 0.6905602145480065 7.30956473506716 2.535492593856275 -0.7343607989193223 0.2463577055977757 -0.08964639681423915
Ni 7.389806855766785 3.972971706485642 3.8738386496989268 1.0264026368177743 -1.8653458850358777 -0.46860951928628325
Ni 7.509047516174664 3.703114123221226 12.749714372478564 0.47681776612868854 0.1610932399013161 -0.7719786092720963
Ni 7.896326190097339 8.889566853572294 6.783427542008249 0.4562710523255884 -0.7654631767510817 0.02261310941382557
Ni 7.145486617097769 0.26526339596127274 0.18688882371610901 -0.9994016827488981 0.7671505917558337 0.7222565594566207
Ni 2.0215148340694444 6.421822906726841 9.148759585483345 0.12065698626314061 0.7751536645659682 0.26081887532842823
Ni 0.1270838207614617 4.984788276061187 1.4768153137886713 -0.6275319767885257 -1.2459707330265315 -0.6580658837113248
Ni 6.5986108551861085 1.846953821721651 7.084943828398874 0.3059378791542537 0.973486248434717 -0.4802812991972567
Ni 3.276483858743353 4.20430148450439 0.47012069726951655 0.4409519054700148 1.89430627682397 -0.42933437583574446
Ni 6.078032855078645 5.61227731469105 4.768105581897582 -0.9540494798663439 1.0321979033433126 0.7445714209037371
Ni 5.526757536458949 2.9428598609698953 9.286724614399247 0.2356495751516522 -0.14973256347285827 -0.041894326240940756
P 0.20903869069804032 5.603351465073516 12.453073808810052 0.9080899824170943 -0.14183619144391701 0.600627696198514
P 3.8835502637655512 6.191316914017621 12.749832961352794 -0.2163840420538209 -0.28802988852558137 -0.5537125197042141
P 2.352830422459057 8.727326410524162 1.4289714924766699 -0.4173568917588941 -0.5932242046455912 -0.3747614256858707
P 6.196621729307556 7.772513973850865 5.641768828772192 1.0189058142200969 -0.8464251584174455 0.048441897551471415
P 4.850972952484716 1.0521005764700992 12.793661960854068 -0.6747009211648446 -0.6026048745295428 -0.30009144767580576
P 3.9990159958869067 6.2684630503671475 8.185728306144977 0.325469264318962 0.22699189947665427 -0.2424959086495243
P 4.618339602108032 0.9567225322811062 3.80964585839781 1.119503567839517 0.3140651362470785 -1.1835173516873168
P 0.12044465432180648 5.335883764465316 3.6839353149050904 0.533455826337707 1.5858235197606751 0.5407245920849784
Ni 1.500828202932153 1.4201153477699413 2.744820062041941 -0.16483470922161933 -2.1224652000255317 -1.5370782320361722
Ni 1.7485431612832925 6.628864596993209 4.77392186828629 -0.07875006161670954 -0.6127913281442414 0.6855028968763548
Ni 5.926175727964905 5.569920265643946 9.118126540330428 0.07833971355216832 1.0246170056722612 0.4606357570521873
Ni 8.488211408701073 2.4924122432022315 10.0839134267921 0.42959817102009246 0.0991067708961906 0.608587831585855
Ni 2.3174529170784015 5.389140126838499 6.970814257944403 -0.5340736624273642 -0.5389268767546073 -0.06581098495753827
Ni 0.6522985553254175 9.108078170071337 9.171508733646494 0.6404993355824711 0.2406154037973598 0.18519193272173268
Ni 1.543031358020335 1.260291945135481 11.351534345406645 -0.8941618023717762 0.3079492531573277 -0.08336056380552741
Ni 3.976484109783414 6.742393075749299 1.7083342908510364 0.8350755377325811 0.48082354485397183 -0.7013524623141019
Ni 5.675482468879315 7.8756772418441985 7.742192337650121 0.06329310363169101 -0.3688034083302229 1.9227858723209015
Ni 5.249431569893858 2.748509896021766 4.934782697255608 -0.052996863912005504 0.2133701949281616 -0.15495061733868798
Ni 0.8481268075377899 7.602904725946065 7.126758627555421 0.01338619149891888 -0.14552649581131066 -0.32850059494611816
Ni 5.006704586328988 4.657673087491591 6.865401422375047 0.4389335894884054 0.28652347918338394 0.7152022237130005
Ni 8.352540305031706 7.164026312855084 9.090157671184045 -1.1177372199677136 0.5030823562521723 0.8509754967922892
Ni 4.61047290503132 0.22547094447669067 10.430782262877338 0.5021703859608642 0.4483335426460665 -0.3595682628852001
Ni 8.269473777556554 6.990786978036864 4.900294155802379 -0.3653892404423513 0.0859236965470133 0.0670559131082329
Ni 7.264555278375088 6.152173532936262 7.077789569826118 0.15050980795851499 0.14766025432486182 -0.7203991945329077
Ni 2.266776541663635 5.310065789709526 2.642057823600389 -0.11757757600686845 -0.9136553923200136 0.8092408360576644
Ni 2.3878367718211337 5.260086463402822 11.361563705235515 0.6584780315480788 -0.18523229904136485 0.9698787335891167
Ni 1.1473699896292642 3.329233276310671 3.871971101244467 -1.154729738031663 1.5382645390347895 -0.024432936231383727
Ni 3.5011780913567736 2.7873998047001938 2.8702653647701637 0.5217015140152563 -0.41127057635549813 -0.03151272589630057
Ni 1.207361475851783 3.474011281313952 8.116845370131037 -0.4007961591867355 -0.31493905421159957 0.037323933261438944
Ni 3.7938753486425285 2.677782043017912 7.150501749641496 -0.5042918031792412 -0.18814253070962436 -0.678557061686141
Ni 4.029034370462714 6.7881538970643485 5.977044923457616 0.39778385472297295 1.2431335206880525 -0.7575128115557533
Ni 0.955518538367179 7.315231653789855 11.132879998051662 -0.6487577189365213 0.028264908382964225 1.0182003035126401
P 0.31566819380146954 5.651303012156763 8.026298690993643 -0.2650198007836532 -1.1303569656142531 -0.8119880597854984
P 8.715313629142347 1.5324398326121038 7.948326053558844 -0.27630385833790483 0.8232536053969887 0.541129540832881
P 1.869259393179669 3.401137965470995 10.322282495543703 0.30092808464448817 -1.2369389618415667 -0.2888238451817865
P 4.033949924562431 5.995536640510091 3.776680867137918 -0.8634453471245257 0.4755448129535358 0.8498113012808591
P 7.013427495170185 4.208139780891646 10.437261198547997 -0.13986004155415266 -1.25514905709169 0.010568005323833413
P 6.470969395138196 7.664860623291307 10.288218520365385 -0.9693598849711693 0.8270824922247755 -0.537486544763655
P 2.4109118130737666 8.529699409509554 5.885332271266738 0.24448234295193377 -1.122989983726221 -0.6724967144246741
P 6.884129411917396 4.049737634230769 1.5896069120590945 0.4160340591824125 -1.0038370928124325 0.37511803769434104
Ni 5.174358475696884 3.0418227291432127 0.3367869712586167 0.991943169588324 -0.7677442594757746 0.4023812442856683
Ni 1.6678755690501759 1.1487640878453906 6.979545476966829 -0.8523646638303322 0.6365267240879683 0.4069290115573508
Ni 7.076487807985345 0.6697256882855761 9.237953808299379 -1.0902822090805546 -0.8012051102373814 -0.21866075390313952
Ni 2.8518904260747555 1.661068024514287 9.130448920147252 0.023412465386669357 0.0728655778114745 0.9837390365109767
Ni 6.2046242151715525 1.815061561881311 2.2441658980635166 0.16809203981665244 0.9386179758026222 1.0954321287126103
Ni 4.084834509451035 6.870188429756134 10.456194681788437 0.663177236795961 -0.07075495922637491 0.041462123799528586
Ni 8.057697584906848 7.071590359057265 0.35333871917007786 0.9142205207948643 0.4138961869038033 0.30078487419840455
Ni 7.726961362009652 3.9723470780641303 8.127126391845675 0.26935879447863936 -0.4547762129476167 0.6220149036250384
Ni 3.015896123357594 8.453123586066626 12.43392849506145 0.04145466760036086 0.17640081679266392 0.6365676046282327
Ni 0.286806739693331 4.9566528393357325 10.30554879065728 -1.1319122259165153 -0.6964745653965102 -0.7638498095173749
Ni 8.763835489132193 2.4268715218726653 5.855455117029707 -0.5374220100743067 -1.5686621774900404 0.0682249937156696
Ni 3.652664062451934 2.5331579319735544 11.41682702588477 0.5827446452705061 0.5377387699837771 -0.21965088573055075
Ni 1.0946658349910412 3.462686496454382 12.754828178207719 -1.067950378352574 0.3311532020776168 -1.0324532138872282
Ni 3.2126993390626732 8.515930426478853 8.06237686651669 0.14516011361082742 -0.6687467604639385 0.358514367699389
Ni 5.195831209259555 7.853607037617475 3.5610211151718607 1.4450592212246984 0.2705607852065405 0.7877646684617594
Ni 2.800960578257057 8.232195229153909 3.415622102781396 0.4802566166069083 0.5578939047754133 0.8374800334090157
Ni 3.5976062355007707 4.316616916760733 9.037292380518243 -0.7298364286864075 -0.22583901681913363 0.7549399086222547
Ni 7.36167141904133 6.086370286617945 11.468089103602026 -0.5072619415511586 0.06407626165461869 -0.1733535453259079
Ni 0.665278152872701 9.174433624124614 0.3148253980617206 -0.7377582546366456 -0.6342896072273334 -0.5932213764321138
Ni 4.480667876972667 0.16405005495335173 1.5491563375854709 0.4307402550443356 0.2354117481092333 -0.24426714161733415
Ni 5.9130223207698975 5.611019005262209 0.4370506960141245 0.149688083388168 0.8658922660031217 0.41087076981391824
Ni 8.16505220013438 8.861096471171537 11.22718893185543 -0.086250997979445 -0.24280109859476895 0.23169419004833003
Ni -0.08422978475289353 4.692588910995477 5.969863507127403 0.6221128626554834 1.3255916272839687 -0.48527772397058355
Ni 7.682015273418313 8.907391395049908 2.7109805909919342 0.866420627702766 -0.41422297411560277 -0.46287441657471895
P 8.575179600664214 1.7021848693041892 3.7683868880105496 -0.8019173058130576 -0.5788756492334031 -1.0491977803354187
P 1.7816756253808357 3.286559386759901 1.5956884392122992 -1.3370739168919554 0.23343919776389474 0.8292938980537976
P 4.97443211788425 1.0752118280660086 8.220402425607498 -0.7647962325910441 -0.23120645177863408 2.237913902614855
P 8.528060891476313 1.6442392674767645 12.350020077105128 0.06657537392738858 0.5810423178674187 -0.2352327993292078
P 6.299377630939035 7.658686759762748 1.5218229599635797 -0.9946189166482742 0.3524252240825156 -0.8477963277333593
P 1.8342349386459547 3.178743089655601 5.858542048793986 0.1667787203218676 -0.45351097308194804 2.532730732155283
P 6.838042697512862 3.8056074998639535 6.100528530838862 0.21254615636496943 0.7917293095364624 -0.5548605172657284
P 2.50719511584466 8.558531895343071 10.273048197049903 -0.055674667854484765 0.3287919009342918 -0.573976926380205
