# total energy = -381167.14408861607 ev
CRYSTAL
PRIMVEC
9.23831091412770 0.00000000000000 0.00000000000000
0.00000000000000 9.23831091412770 0.00000000000000
0.00000000000000 0.00000000000000 13.52120184559993
PRIMCOORD
 96 1
Ni 8.479521972306083 0.9925918073687114 8.097780196412193 0.26367819915409424 -0.9947891236775513 -0.8470764188481993
Ni 0.22511915305753527 3.2855959317859225 7.537501601072969 -0.22483294415212246 -1.0498289861615147 0.7288601808160673
Ni 4.3349663961922085 0.4869947725575367 1.0489491974422582 0.0381140332629021 0.42142180585688715 1.6744813274094
Ni 8.512548932753418 2.136507142605218 0.6849301966314952 0.9407368219178378 -0.4536037899060704 0.30797959217463083
Ni 3.2683664824896197 0.930510360038334 12.77419547675254 0.5994334187800967 -1.3712603329656772 -2.2997913568459425
Ni 2.796602912642439 6.941463353006596 12.533518084788891 -0.30425920590025024 -0.035474024536893745 -0.3832290968372497
Ni 0.2397563323953701 5.923216757061031 5.192425738876342 0.19236171099729452 0.25546943809105677 -1.3960344545865635
Ni 5.450760313917752 6.31401577268151 8.71011482440279 -0.94370001831122 -0.3864491464364441 -0.31284951867242256
Ni 5.981981650880752 2.793249405889325 4.603482513362013 -0.6305851617925528 0.7316233453835013 0.3813107967686143
Ni 4.1694620615309415 1.3273974223538616 5.610325338684867 -0.02270515490699961 0.4935530766054984 -0.46839688905484494
Ni 2.1270840657782855 8.42410134692886 0.9120614537408989 1.5574794214003436 -0.14446231621285444 0.4531078241062584
Ni 4.171771639184602 6.279141150111246 2.4577213550141104 -0.9736898798050909 -0.36162900206897075 1.49302957845639
Ni 6.998703925574902 7.894090228656377 7.824948864354291 2.555773730017676 0.12751386128397396 2.523068783585487
Ni 2.1438977910969292 3.411458675599771 9.613046979594303 0.15718310621363255 -0.7029930832413184 0.6069089012215354
Ni 5.5367320324975875 8.290718618274694 6.379099670961646 -1.6635538818636189 1.2265864149626486 -1.6331798975574519
Ni 1.8105980207419656 6.105396242381721 1.2248069068093514 0.3645204646841529 -0.19022049628457563 0.42207769427333114
Ni 7.711365683009422 1.5114522847293241 3.7080675715176326 -0.13945149326182435 1.5858278906360495 0.6383429513611006
Ni 1.8583138950665787 4.431700746638098 3.554047380781424 0.06924006524374528 0.47208050855401923 0.36679820497473603
Ni 3.322992613153983 2.6047786310400647 3.6268729833566273 -0.2513831838368251 -1.3428236748915392 -0.011832988079186074
Ni 6.603719955245991 6.014010873781707 1.8640462668029625 -0.6130330118414024 0.20474080138793774 0.41720648222395895
Ni 0.6702551402201403 3.8640250359897306 1.625924191555322 -0.6229330445639336 0.5799915080054012 -0.07426168682805276
Ni 8.845700890138547 6.581852874021139 10.915503734781822 0.18199707993351882 -0.901845287058963 0.5697387199291414
Ni 0.23235367409985944 4.776335924117225 9.744784365128 0.6737807233434202 -0.5584963142461027 0.1420771038101295
Ni 6.165694695763474 4.10440587818265 13.096649470445916 1.1080112509292015 3.0368826673225504 1.3785278131613679
P 6.320611926460363 3.0847273440918155 10.986125076444372 -0.9817603155180512 -1.674559231835187 0.13087095068166496
Ni 1.8928836533865596 2.109873093103212 5.394243101070572 0.8265284194935185 1.467714496730369 -0.2800406996725177
P 1.3125145039536772 7.194583825537104 3.0993977813478635 0.32614546445038023 0.5263084166596484 0.6949051640268613
Ni 4.020706784014017 6.42522655586054 6.785398724131368 -0.9938306164190238 0.5072015206268684 -1.2804847076430013
P 0.7121314784052398 0.4747854212492291 0.16711272453927534 -1.4783796897536992 1.8604232509232799 -0.24927899300962877
P 0.7781281217741014 1.6750258124721311 9.680463551304635 -0.3792220325603856 -0.09510510593596525 -0.26697126808306926
P 7.337177149874065 0.10738519875350805 6.030212099106601 1.427766752692838 0.32004732197244234 0.12568889226009322
Ni 8.766879623974443 5.702107030810248 2.891765826452779 0.9928438270257224 -0.3294889270013164 0.7485915978067236
Ni 4.147308592677036 8.112567036381988 10.717323495476576 -0.09335572734502633 1.6055994168360217 -0.29482582840149224
Ni 1.630441725445881 1.036861791834064 7.392338178723016 -2.7642230906054523 0.06357875319290987 0.7177815544044025
Ni 5.3725395379436 7.875410364593576 1.2630424267812213 0.6047244919757069 -0.7143972113132019 -0.9789434148945463
Ni 2.0185062011244277 7.09692564402975 10.15439535265307 -0.17615270533759983 -0.842669033809123 -0.4277035251005408
Ni 5.0369486665562055 0.51334335826155 3.406748061017366 0.4397388589985201 0.8223179809565967 -0.5153328914847513
Ni 7.686579295630345 9.036869251687284 13.446456254207119 0.7503767147316045 0.32409063880388056 0.28761182715155625
Ni 8.163738038876474 8.727690710347142 11.04514494763706 0.3361866507364662 -1.1699838359772559 -0.5371199054528556
Ni 7.459945059632009 3.8198289580092952 2.4087213555140625 0.09446387280754052 -1.199592145761992 0.5325865363588763
Ni 0.9795935043339138 4.577472049826495 13.009964554286633 0.5077519938136998 1.114886895003112 -0.15986579525211822
Ni 2.389054839877618 0.41212103651906795 2.8588552687191875 0.4200400950180121 -0.2056841391378135 0.848683615434319
Ni 4.35002484249407 2.6519032534853406 0.4574294070975059 0.09732859594984529 1.3982620583655017 0.4886042172406553
Ni 6.534100046454067 7.278495400849874 10.438705285649663 -0.18002478669849642 0.616019605273552 0.11332060050272742
Ni 4.210295394447648 3.7588561079526746 11.911164508936718 -0.7552535832079315 -0.5913493562203815 -0.8773832973618567
Ni 2.1848235071197823 1.950429090205149 0.9744542321389897 -1.4463537716664057 0.40399846817411716 0.7805208424151525
Ni 1.8610853882509706 8.983693535789419 5.077589842612127 -1.0965279328799504 0.10037586741660132 -0.07044051330974965
Ni 7.594861347848203 7.113610032999788 4.815589505918829 -0.6511305900440721 1.1955683693145798 -0.36956496908659575
Ni 3.9647226216893015 1.830986972268475 10.492844557344636 -0.09817037512485029 -1.6135384691774408 1.5105855850622822
Ni 9.055798550136679 3.550310484137803 4.788533265621734 -0.5809219902394704 0.9129457678474987 0.14178708337353646
Ni 8.629884715869954 1.484808996916704 11.55885599066107 0.057628192036429784 1.137920636894124 0.6236210717698937
Ni 1.4283721573718713 0.24859831948464153 11.379902523407013 0.6396778681224403 0.1448739498289763 -1.0312036577508434
Ni 5.188614011916741 4.164039173200148 6.98743226279398 -1.7927793265220608 -0.4004863412558006 -0.4831575923037873
Ni 6.916769348733664 5.060081396335263 11.111561010307824 -0.33753699411677357 1.3839201878215326 -1.9722613533432098
Ni 4.488904365963946 5.900961666790364 10.979648096872449 -0.2671239916108496 -0.9922568441740008 -0.18708837841349715
Ni 6.451407928142428 2.018108953767998 13.09118685737948 0.33934267986694455 -2.463922612242634 -1.099386742484984
P 6.412237491136358 2.0170188331154706 1.7436267356032598 -1.0381718615385604 0.643878279357033 0.3163387627726036
Ni 3.407569346831008 5.002840823766956 8.47350690826489 -0.6218868626876064 0.4357942725284753 0.57374681264727
P 2.8501758758967335 4.201251088355916 1.0317132813285255 -0.02448384407397719 -0.30455256877095294 0.424954501600494
Ni 3.0987049080517655 2.6967829664512593 7.496911235725427 1.069390967453842 0.9864386948303271 -0.24768105239488952
P 5.84597524201203 7.418465044972277 3.5677856724964547 -1.0179678757868595 1.4695114407297918 -0.7821689195415368
P 2.334364041038952 4.8900687660940525 11.372317870392394 0.19364109193035037 0.4829688733317488 -1.0055103667497973
P 5.14996092030509 7.401873039108384 12.612982337371774 -0.11558651371876867 0.15876613443003626 -0.5096576954768449
Ni 8.879864162791485 8.767886599831439 3.569204677006863 1.4763726866259994 -0.2640445813545775 1.0258945868331042
Ni 7.015499174272317 2.8567073615012837 6.785209338763767 1.9158621486178746 -0.4126090926612636 0.2939279991775712
Ni 0.28740384322143475 5.660590062908059 7.399761161301877 -0.9214949429690905 0.7820971857633369 1.1931204219947193
Ni 7.055205433294037 0.10550520254342892 2.190529087755384 0.014402548578575196 -2.410301741593384 -1.1438956235306363
Ni 6.6672056257897925 0.6064886250336526 9.665779256582665 -0.15659226670716903 0.5150274444291905 0.05459531874737694
Ni 1.8534545436832783 2.456069545076213 11.918709437215693 -0.7408592621594725 1.8115985161110928 -0.4884936598047199
Ni 5.930154728332624 0.11591031178869737 11.91622156016717 -0.7902910344280389 -0.4525020722014594 -0.09424815725230865
Ni 0.5454575736201598 7.985789699817288 12.571580848352266 -0.7806931063269587 -3.298761608484377 1.261751650009872
Ni 9.175822681642076 7.5388032790385715 8.89334008648506 0.20905331272036254 0.4637419067813368 0.0045379970796696045
Ni 2.587752424577284 0.26533351916306097 9.47906560841231 0.33836951732039794 -0.11366461410570747 -1.49113416120589
Ni 9.061027433944565 7.540207502251997 1.5473930083445175 -1.008818605187424 0.8189781179500863 -1.600352823725102
Ni 0.29981920885644875 8.180320806429751 6.555510755134556 -0.861408004979523 -0.3567549618061211 0.335036596292423
Ni 5.009538598962569 3.5485459668104067 2.594002141708088 0.625319028297607 1.267895558124081 -1.4068680548669577
Ni 7.878911684316525 2.7212737278906687 9.487611045730851 -0.0557721126642975 1.1913219353334001 0.1799697650908449
Ni 5.53010816378689 5.387764273836526 4.337668602046991 -0.38865412450756287 -0.7957142623261394 -0.8534434987168077
Ni 7.6310016189726735 5.3707103524419 8.500495708894498 -1.6232207294622107 -0.07584600059603712 0.5420104007759375
Ni 5.011183018251976 3.123001664968267 9.141116196324997 1.1267759331312142 2.124576847051896 -0.040076813416227756
Ni 1.672106506317905 4.470446221355897 6.25210892942175 3.357591534138392 -0.9388331771372218 -1.3234077322587725
Ni 2.622784098427997 6.3981213525171885 4.6683973505579 0.2566002092613903 0.20368690620212662 0.3332941596800195
Ni 0.7750665456364099 2.2379992230176473 3.212407263603564 0.22995869541446204 -1.6468527670588542 -0.10989589109189461
Ni 3.3267064140210683 8.973457487628398 7.182786502882209 1.1288924652535848 -1.8663532432544694 0.16578421761908224
Ni 9.069129432353604 1.3811366751992193 5.58647386833999 -1.0413091216159616 -1.5690840955188072 0.8995094398369347
Ni 6.262068752095393 6.053209025719623 6.403830628477035 0.8791141640100345 1.403851122417505 2.265179423199028
Ni 4.442869864171198 5.677985801795424 0.24426739946849854 -0.04782406146181441 -0.6578028598579252 -0.06752513943516758
Ni 7.320890008260454 6.72418752566089 12.763783900689841 -0.1903048284682658 0.07386753671342762 1.1045106939751106
P 3.752186047688905 4.188982611859675 5.059985317904871 -0.5325726524018054 0.27146092842330666 0.3044366120183789
Ni 3.936102335405148 8.379831362463507 4.799472349220529 0.828245145074309 -1.5378706460304805 -0.7944783330365092
P 2.022099903953522 6.76799559459551 7.5663565404467334 0.5152459881978997 1.0159855552495083 0.9404195477877352
Ni 5.283777849558143 1.4508951586503622 7.64065472973391 0.3604372957537147 -0.2842974180663427 -0.6246865369199306
P 4.954044067100431 8.969170911503205 8.821069706377795 -0.9827687021779076 -1.6005376860423985 0.11433618625143534
P 7.3537322024954985 4.652302365805076 5.441174642824002 0.7183813927719306 -1.3856032319509104 -0.5346287635998856
P 7.992201087383848 5.047443387414435 0.6172226181368023 1.7917130900410756 -0.6946351981949264 -0.8229131913384343
Ni 8.516558359560172 3.680940196228805 11.881823634424622 -0.19466619076075506 0.29033796783346766 0.26674192568108257
