# total energy = -340864.2762448159 ev
CRYSTAL
PRIMVEC
9.31872182141404 0.00000000000000 0.00000000000000

0.00000000000000 9.31872182141404 0.00000000000000

0.00000000000000 0.00000000000000 13.63889133647931

PRIMCOORD
 96 1
Ni 6.032297460950712 1.401097769373508 0.11131772238550731 1.3263606442395093 3.1407889164899134 0.1716710154171624
Ni 7.847053288244514 4.415732207566547 12.409808832405343 -0.1370670521900478 0.6586572374384204 -0.27314808631774246
Ni 2.939683959259655 3.6003626929932215 8.232148532167704 -0.622032130016219 0.21370495255976096 2.2381345032660938
Ni 3.8364338707651258 7.7525148562192525 5.975184879166934 1.2471436702887102 0.2372038070126495 -1.152290532462551
Ni 3.0877491289441683 8.227145310466929 0.7970414526603354 0.4129950152457726 0.6445017718736449 -0.37877208950716057
Ni 0.3693931977957801 2.364709509344357 2.254386094568223 -1.081921495820685 -0.4742304650174865 -1.2306788398644675
Ni 1.5390987195817 4.959386433722663 6.606556233036583 0.24678476583286532 -0.36186760044233807 -0.4733861147393203
Ni 6.994315699504476 5.386267757788236 7.733592259859421 1.1846990307002436 -0.4614019457942505 1.0747997971742393
Ni 1.6705672458520204 1.1323085595818216 8.805213575999023 1.6512041020490142 -2.3155360212747094 0.40007753585315614
Ni 5.177379291324137 5.000994526279864 12.366314630568507 0.879555365312511 -1.4593941497901317 -0.9200877782089186
Ni 1.8723828025174813 2.753877966538935 0.07356478501104258 -0.46280705367189323 -1.6013576108405325 1.50041198696339
Ni 0.7290147839777908 9.355064752110467 13.16594948348834 2.6256529715073165 -1.8829610270144794 -0.3883905864335311
Ni 4.965695208338839 0.4365578847176211 5.474773249360747 0.07054567142904625 0.4692332689132112 0.3721802952222558
Ni 7.9004961574081305 9.181401053813493 0.6411970140694947 -0.5670583448835009 -3.2595597414739346 -0.6278322816377638
Ni 6.558385896631952 1.2879964436474751 3.9627249152381827 0.5207265516964967 -0.38802394712273175 1.9056620681564214
Ni 4.669611462578498 2.1626703033571997 7.778968843487198 0.7904792391794451 -0.6454510231607916 0.8101705469607854
Ni 3.8376359858692424 1.2010993634468274 1.051121060189639 -2.0330602297981373 1.0824881669574324 0.40925508858736614
Ni 1.035114291861419 4.667654531013658 2.4655436697753625 0.35268644816370226 -0.6057727307345632 0.6483807952130769
Ni 8.939300663077534 7.802416611122681 6.2510581812233434 -0.23189782141870385 0.143365740714566 1.1197095132027362
Ni 5.117711516039982 8.881990524392924 7.840766878560509 -0.16610457707297843 0.7534319566181604 0.9984007522882097
Ni 5.936072340290993 7.169284018844675 6.552982901768645 1.0642469613590575 -1.4925343839875265 1.3884404442893894
Ni 5.967783950363143 3.8205361314812323 4.441272960104235 -0.7113057168720718 -1.3399031588106343 2.001561387858908
Ni 4.185634330428275 1.5644083678203016 3.614265293953152 -1.5207350147914585 0.9376563832203012 -0.5908150809834664
Ni 3.7297251881509044 4.278262424497384 1.3053031736580534 -1.5877333351888785 1.1870335923706912 1.1014587945226642
P 2.160759965401046 7.251186264194112 6.899683148389667 -2.384018382416823 -0.9606104209133133 1.5971469151932947
P 4.174135027804404 0.5921628321598124 9.766741649789402 -0.807264429057584 -0.4359763066322943 -1.1332391722580548
P 0.37395657583055303 0.6828228121979957 6.229849702421343 -0.04132019890502561 0.08113141736469252 0.21987122927147293
P 3.304297584676356 8.70077866148871 3.1972012432378616 -1.7242547992881014 0.18408353014890233 0.33303036449567164
P 0.21886229433956775 7.695018343099897 0.9931735209381959 0.5998669067730894 -0.5939945071527125 0.2436205091722708
P 6.816561082364814 7.374622052326849 2.5929035716316915 0.42385278389588293 0.08936640367997511 -0.24056449595476637
P 2.477699010409542 4.4565295713326 10.28988909689034 -1.943563728298201 1.1022267830369403 -1.3026368182600083
P 0.676042510261911 7.1790966328340895 10.536466201548915 1.008750985174282 0.11652728036548318 0.16967044004736584
Ni 7.258175305497113 2.932871973669663 8.082311873480924 -0.6359145444252661 -0.7193810376810384 -0.6440754829695037
Ni 7.135885720138068 0.3223923609691843 6.438674801577627 -1.0333674981713816 0.25046427156698153 -1.6597067402033867
Ni 3.9599442086717622 5.924517125336697 10.691376904221675 -0.6143902972002452 -0.564727382757479 -2.4032116675158224
Ni 5.129704710915933 9.277095007334186 2.3082594886761036 3.412315922264465 -0.49446658955870326 -0.6477292776720069
Ni 8.395227094443237 2.4457730697374327 5.453196681050122 -0.2546047760979163 0.5127430192703879 0.8610560209567428
Ni 8.70504663604441 1.660791906749556 13.366222791706273 -0.6808348019767242 4.316266428591889 -0.4437523510332873
Ni 5.98164088958656 6.999925569990351 9.461067075616997 0.6427786185349511 1.247442689586368 1.467975977921872
Ni 4.664309109909954 5.79866778827399 8.175001471113498 -1.3041874505765796 -1.2387608455416537 -0.4479789875201252
Ni 0.828015019970889 3.0424787787441954 8.901817968633452 -1.5446205631598044 2.8417423651388543 0.9048236529609965
Ni 6.542320420356786 8.095751333970508 4.746606469061054 0.04651562706303601 0.5864238938943062 -2.6678355184126374
Ni 3.036645258936624 0.6978893215029187 6.652559966637284 -1.3296267165852909 -1.2245009931885298 1.0357761076128742
Ni 3.6781460633347556 4.609682763085698 3.7944073676019197 0.2792259170807062 -0.18859530197632682 0.053360417899011324
Ni 9.010831171133317 0.4138034299793969 4.164949563787913 -2.018867997458155 1.2283077685291297 0.15633258528787916
Ni 1.4404600499920106 2.4905308902418524 6.7685184124479845 -1.0527158207910063 -0.25973849778005587 -1.153696154560826
Ni 2.0263374043399907 6.830744176849038 2.5869023148328476 -0.46481559946148976 1.1910974780274195 0.5230647129113701
Ni 3.4868420247890084 2.613137312139967 5.556361453787635 1.0736677404523252 1.6236894415685132 0.08849428548766694
Ni 8.703742015001183 7.1702531659053585 12.645529626239922 0.020263121124410262 0.28726652799699554 -0.7766549317018431
Ni 2.281670379942966 6.23978811915421 4.828712794416537 -0.11087933805108648 0.04220928637819828 -0.059428478469962166
Ni 6.187193253668692 5.036843648803391 2.5873934114684056 -0.9945800929905386 1.3622267620084991 -1.4331992365623187
Ni 2.15221469756791 2.464540975316425 11.073497612166307 -1.5778096483172634 -0.8401023015232113 0.7747021788508465
Ni 5.579305078577128 -0.058894321379956316 11.400912764151913 0.9096079617235172 2.1281437384675477 -1.0857244145065432
Ni 1.5464139161455082 1.7382863967172328 4.101964323565267 1.4234311014319614 0.060749511274230866 1.491797762931818
Ni 8.137508526075505 8.423043478829182 10.529973848114514 -0.29135972422976275 -0.3390261770677903 -0.5049335505282981
Ni 1.0429792930077295 9.15015537982821 2.407659497831733 0.755700440937363 -0.22887883208672197 -0.7393124864976429
P 0.6077278930776828 3.783829686557871 12.389527566416206 -1.3719517026057468 -0.7869486003183673 -0.5729333156070391
P 7.698671282020931 1.0305667556535993 2.243665837081593 0.8913485012926972 2.3923366724745314 1.1493700163816463
P 8.853708203920114 4.180089690994561 7.133358482802903 -0.04117261758356781 -0.0515606456861112 0.1942224183551171
P 3.877995369713639 4.4549453886372525 6.700433035818495 0.230304508789655 0.6596851644823026 -2.5321656036804323
P 7.519574768951093 7.906022159398369 8.122082314111521 -0.4794477475523678 -0.43727831327316946 -0.24606871360244723
P 7.36500513149392 1.1051258482740158 10.396326604702006 -0.029579256319013574 1.5069032511146887 -0.14957958283476175
P 3.012873199784683 0.9926954705130706 12.642187932624914 -0.8426448654394068 -0.3716365069036438 0.8258859008135131
P 2.6092700426189728 2.807255604650389 2.5321827807912176 -0.42807916327240464 0.15393066071460587 0.06203249175171252
Ni 3.297066256608184 7.666801253679247 9.020203009584554 0.001144140906772223 0.5669531867642043 -0.30538560619520955
Ni 6.011982647563323 2.677352623631941 2.309923812378391 -0.00929608058994528 0.2642631251232868 -1.7027871163326287
Ni 2.163098964557117 6.8950433568366485 12.25307072839989 -0.7187580593850589 0.9416053405657203 -0.11639178322888342
Ni 4.643453810661799 7.3775947245610585 12.114936520470854 0.09078668106626946 0.7296662216571304 1.4953523130522957
Ni 0.8658853732392441 5.76534403934128 8.689924214409062 0.5377873638335254 -0.7918316394422815 1.0672839484131682
Ni 0.9206142260026118 8.15269804250736 8.495679187283013 -0.5719192725202279 0.2657479371989294 0.07784169086982723
Ni 2.3249092488041994 9.082520097458634 11.01778283864313 0.14151531776938853 0.14077663983115113 -0.5050711045474269
Ni 8.171596410190677 5.946798189010664 10.085755042256629 0.0893031545422075 -0.5692705220434712 -0.16783467239020775
Ni 8.054804870656659 3.934038162241971 1.0607100248573567 -0.6194016343719074 -3.2987592944915316 -0.5870880098408664
Ni 8.29766939657508 3.3207917221514385 10.130204413071542 -1.1528309783470534 0.15798554751026983 1.5696389395810129
Ni 4.704500756763079 7.072807292698048 2.580996108995725 -1.1153926309949371 -2.0832196242613477 0.31971256434084294
Ni 8.399755993207583 0.5983374171829704 8.119245695214676 2.1048066064035043 0.6330721898804645 2.990565529423566
Ni 8.644400394977835 7.566187015081242 3.925696042542709 1.0872210536567275 -2.379855509288385 -1.1956123351786376
Ni 2.7804642796555514 4.585901385212019 12.531863585976607 -0.9694568155603497 1.1938521579544215 -0.3420042858595078
Ni 0.5913120328651937 5.492175030333046 0.22506856301663275 0.8282045216443609 -0.8209378127796184 -0.8663800042728176
Ni 1.7099947575226842 8.607675312610999 5.020421265485685 0.1643791097414395 0.315205934719741 -0.6274851827109903
Ni 6.173168577454003 2.7836233263245083 11.485992693613783 1.2951651924733114 -0.9058477233501366 0.39275709093234296
Ni 8.156555993306618 5.929129892596678 1.6136717902847224 0.4156195973528133 3.7009075968307874 1.3446738407264
Ni 4.18180433579423 2.819854516439266 13.118062436224525 1.1086296012394905 -0.35839892516744726 -2.002863908720415
Ni 0.09300177481077564 1.3165396883289315 11.09380590244848 -0.07954761781734043 -0.5477879266896631 -0.484848606852965
Ni 4.156466731390417 3.248031142826328 10.518013268764644 1.4310469661060063 -0.3885929322523243 -0.7597465859822786
Ni 6.0831497254713485 6.449384808470345 0.20285832162786885 1.0897124526200137 1.3118976747366438 1.4605053805764396
Ni 7.690629225161612 5.274536284157591 5.3437315205459965 -0.5800969232350139 1.0494716028220956 1.284475059749317
Ni 8.12962488748572 4.0034440017416415 3.4916243927846087 1.4724322139210126 -0.94088877411467 -0.6204670995219443
P 5.536336452646276 6.086019891766448 4.515359593532568 -0.6470908727570597 -0.6218421254926 0.5867645650631765
P 2.610891500201269 6.161827693099667 0.7017798878282561 0.8845592462850056 -1.4633667612846346 -1.3376256756303673
P 6.092179566834826 2.3327556125070354 6.131199850365569 0.4696690708990492 -0.27936218554825437 -0.29374905039754573
P 5.824657703199416 8.804318978712239 -0.03426493982818028 -1.571638743619861 -3.689049154830305 -0.2416456448340871
P 5.636652492148686 4.057762830748566 0.5527390479778435 3.011049251199214 -0.5080307013963831 0.1648442223033161
P 6.854516236000979 6.4570541164601725 11.67629590144494 -1.3353073119098358 0.11873585798102777 0.23501708377397587
P 0.28737167280810616 5.4495511971064765 4.476979506185181 0.7187385190010331 0.25163618038789565 -0.8934992290871128
P 5.882899714057761 4.071368164485075 9.619823614750755 1.4618510959710564 0.5964103156830567 -1.3516664699941496
