# total energy = -340856.5107813151 ev
CRYSTAL
PRIMVEC
9.49240833101356 0.00000000000000 0.00000000000000
0.00000000000000 9.49240833101356 0.00000000000000
0.00000000000000 0.00000000000000 13.89309909977036
PRIMCOORD
 96 1
Ni 2.011279943731222 6.421243997943989 12.511207693097063 2.1023458035678373 0.9416950720660493 1.0384397704879667
Ni 1.0401401297616724 9.879413766263193 2.5754052246834327 0.8108351771279776 0.4235851320567931 -0.21516148250062944
Ni 8.514595303669804 1.5757587594062308 10.672428538846146 -2.2708258228515277 -0.9042842355177587 -0.9351667840292281
Ni 0.06880382294071265 1.9460386216182415 12.77849777318639 -0.43661419732660933 -0.10340128450648643 -1.8896649213972165
Ni 6.526903994516023 4.985811510150765 0.3782003276813942 0.11346998159639814 1.1602956621552147 0.8028231054567786
Ni 1.388217249005218 5.717220552992231 9.996570967744763 0.30864859321719745 0.1425224188776642 1.2562374050598624
Ni 4.483805498228027 8.554444433632018 2.7591829952011633 -0.2995036934931358 -0.22007460353153063 -0.0020777084646351313
Ni 7.339738915588995 7.5688951438924255 8.138493747459263 0.5118619022170152 1.7100270857244937 -1.11419038315672
Ni 4.135101880037958 2.555024074864026 5.297619086594735 -0.4517808777647187 0.15144234707511336 -0.5285432195274381
Ni 0.4592104384302084 2.947098506488434 2.8708004272101397 -0.11859521863810542 0.6971512797485606 0.19925740967586328
Ni 6.989497527257459 3.5272650081941324 10.785129054639947 0.1402084260325069 0.5802964408403296 -0.6497956732827325
Ni 1.8358507462963325 2.1835007071672488 8.571569687411158 0.4766383031280308 -1.1247370483243146 0.25893605648341855
Ni 4.3319649353705785 6.607086367262764 0.34036833447882114 0.28077680650759385 1.0047428924561534 -1.5215695948776118
Ni 2.0611720416543746 8.165929655112857 1.2197877534364874 0.9207282400063951 0.5627921134079791 -0.9077084307079593
Ni 3.1589026124548156 0.23709472934854547 8.85797557929608 0.03732033371701315 -0.420863619360572 -0.15427441720726978
Ni 6.6924990569721485 8.97602127019272 10.162398594203765 0.8176396016443209 -0.06937221994623535 -0.0629298067550013
Ni 2.3741082654429144 5.862293028745568 1.182151303844496 -0.8197203954327497 -0.8101582056656111 -0.414309363181822
Ni 2.4117361718674535 7.952825089212026 7.034297897378866 -0.14916794921863988 -0.5312277083381368 1.205116418014331
Ni 8.133114399686614 9.075634602689972 1.1447426720512406 -1.2235941651035442 1.857750846297439 1.555844714010398
Ni 3.408296655212613 3.256199797331587 0.3060105627069699 2.7944713479670327 0.43490184262119297 -0.320308546053629
Ni -0.05591218325474741 8.936551836561732 6.281305965829662 1.4205182986605407 -0.1912175700905223 0.7049088122067925
Ni 1.6875698365441325 1.8423720307851466 0.23086296331229175 1.1823310446886994 -1.1853472058072037 1.455901563255841
Ni 3.5989042134882787 0.8187819148608061 1.2358754869905513 -0.9451940863582432 1.3617652489910483 1.4936121904327373
Ni 4.734803757985255 8.99571801737509 7.084646580140317 0.25288599363459674 -0.4921600529127137 0.7127889862858175
P 5.1289949966562505 7.7389136686073385 9.01086979947268 1.8048434567754463 1.3402847105197693 -0.8650553719241232
P 7.81166348567032 7.109633446457501 4.814736480394216 -0.9330242837649286 2.172442560384923 0.8239966542106002
P 5.65800691013747 6.563563675295935 1.995354530358758 0.719703968238096 0.9736572267949425 -2.958060357707009
P 0.39398430417047675 9.67418789923531 0.17589242695898585 0.3741844701364782 -0.9384410839051257 0.20997608164494805
P 5.602770586352305 4.240543551219536 4.186991180663361 -1.6332899407727548 0.11131745402976957 0.855373368749669
P 4.793599734875668 1.8503456537409013 7.450271365331493 -0.5033371525754556 -0.060980139227798213 -0.3630863033407876
P 8.298462659527441 4.757547568225718 8.614860764615939 -0.3650315999926165 0.28376879925638226 0.1610541591332646
P 0.19795563152572543 5.916086506472071 11.83503117707745 -1.3176759719813178 0.34548247421609535 -0.14573938315306514
Ni 2.1272486956960535 5.184126903950328 3.3710076277636936 -0.3699501203401564 -0.14820378553315766 1.1717766662116207
Ni 8.801740654159788 4.278446737484214 13.435626822750029 1.9568817855633458 0.9427733927318925 0.04981049576422389
Ni 0.9752595191633567 6.626185092723453 5.5485005897301125 -0.4045738810616129 -0.28198805320687564 -0.7375852193938911
Ni 1.22617234724606 1.9253546639746821 4.894497390213294 -0.25435486487063935 -0.22102154082583225 -0.29504822882494347
Ni 3.5039611458651105 5.641138900622735 6.144083711724432 -0.7462832613885212 -1.3337055146403547 -0.11983783279595489
Ni 7.629342799823672 5.562845517123846 12.142513063067922 -2.4192890326936594 0.38440974740891215 -1.2480574403522313
Ni 1.6639812019666909 3.9769108960407475 12.586008819589496 0.8661172375297341 -0.4578854480005598 0.6452759310355081
Ni 5.410321500870191 2.240331755543564 2.7738962280361874 -3.479723819395478 0.02006643173257189 0.5249182211803411
Ni 6.466475323401338 5.885587398666309 9.295414230093764 -0.004954001571165662 -1.0469094985218743 0.5604472673248865
Ni 6.411761082071609 2.2605980472227745 4.984982822907863 1.831977079767445 -0.24345570145963233 0.8196098379968143
Ni 8.310926191599949 3.2018367751082435 1.3064088267200002 0.1842539942884956 -1.4671113159287315 -1.126413407585473
Ni 8.207971531387903 7.669685535016479 11.584260735118956 0.11677487759991502 0.568330269617389 -0.11354737180155283
Ni 7.431862737952808 2.764720866192101 7.252045200169769 -1.481022526693185 -0.440144579077371 0.9906272789903777
Ni 2.6475750556004676 -0.40490247217489267 12.162130074020736 0.18603011235231187 0.9962795921801487 1.6824664024974054
Ni 7.268261081235622 3.67047697192446 3.142563330081314 0.7140128313905896 0.5465198586105169 0.9701841806446777
Ni 2.8250735980405413 2.8917577662121823 2.7359123563011236 0.9774174651683232 -0.7215243092762864 0.368361692807114
Ni 4.321096127889223 9.015452734190584 10.71991526051098 0.947429146336349 0.01616092603057862 -0.17614113537337406
Ni 6.92815758494783 8.930827914368493 3.555577065132031 -1.7879644216319206 -1.221404099430761 -1.3008344749439467
Ni 2.433122567723782 0.8729380025836312 6.666075989282102 0.5799809664824398 -0.6244091148888278 -0.2798720353051373
Ni 6.092835148657973 1.6258691827198382 9.696688703823789 -0.6141650685633164 0.565175268928175 -1.3142877722353754
Ni 0.39456618879808125 6.502005407595851 7.940531471247742 -1.2464978091745953 3.447635423501365 -0.40537889346141154
Ni -0.1289467725661505 3.8971841588914784 11.119981350666876 0.03547016788215182 -0.3448916347096318 -1.8303115191395638
Ni 5.053217101351737 0.32025581981375734 4.932730912286139 -1.1484025102620543 -0.5980802471863119 -0.884278224709477
Ni 6.1643604450527505 6.23761335975461 6.1367071612495305 0.24117307607304272 0.08073778147069967 0.7291774549461699
P 8.629529383132043 1.5045751897095565 5.919293991230107 0.12166922957773883 -0.37942823503392076 -0.9890743326809611
P 7.71925489105809 0.4825124022775742 8.36192320584697 -0.7388340041993275 -0.14343233228644328 0.1356873982337018
P 1.9181214488648186 7.789707545317153 9.230241253320404 -1.03617951369888 0.6078159864168371 -0.40458673657741934
P 4.151438314688974 3.0983410476242006 12.168451068694827 -0.20693652348767586 0.29290007213368907 -0.6339432796315082
P 1.0578434712051044 1.5496736214509752 10.507420107221765 1.767459102589717 0.0436277639922797 0.4875986587942764
P 1.1248598736665687 4.465978755476946 5.2551063868689685 0.605660373526415 -0.81229942037833 -0.14036629176660986
P 1.6306913261264138 3.788049940888723 1.0736625696048254 -2.6835431589558816 1.6542002085628607 1.4002279238426207
P 7.177893354403731 1.5789197313636907 2.147359311879461 2.2289803475706513 -1.9501529514799445 -0.37689287020657675
Ni 8.961156158825204 7.318219626016737 2.6281440958499553 -1.1169607468130054 0.6374186397746184 -0.09136209395376524
Ni 8.62359662795663 3.678763844353477 5.445302923866082 0.24079846634244334 -1.1789703557465825 0.0919177093469191
Ni 2.901050833918949 3.424329332798649 10.085320238964801 0.3136247062755502 0.8868835235428081 1.0735931784606478
Ni 2.3227543366445405 3.153710265125294 6.653058100566003 0.45970116105305997 2.263691268689276 -0.8097949087889215
Ni 5.456378665847956 6.633380338200194 3.9660772104700297 0.45919208262712535 -1.0315731252751201 1.1424259809636454
Ni 0.9939405786596969 4.503511737818678 8.095689630799281 1.7574076318909864 -2.066934513948079 -0.8669803568609779
Ni 2.2435401895424274 8.602390587857634 4.8641549071441625 0.12827979291572103 1.079864099071024 -1.8715479000815316
Ni 9.490348428063754 7.53291891650872 14.08662947200933 0.19862697518071598 -1.4985600213563162 -1.5586708706052832
Ni 9.203193585165488 2.7448722404772394 8.747956668841566 -1.4839484420907283 -0.27304215686749744 0.4784169922950083
Ni 5.687129618742536 2.871785739189672 0.2720267918213767 0.8768091700259415 -0.4829416196382392 0.4884638350080491
Ni 5.806173910990302 0.3828762880004477 0.7464431190763755 1.288675985204542 -0.3485222894836837 0.10050647945719464
Ni 8.822272733270857 0.23589868590518223 4.075582581636559 1.2947715565793185 1.1185100935779961 0.5916802571972392
Ni 4.985033132671751 4.084080185529406 8.455978733295897 2.7605980922583555 -2.7699823616867327 -0.3218203547124651
Ni 7.132889846745119 9.073422871560577 5.997261785124969 -0.36088723880693974 0.13444298430363943 0.5892179116996755
Ni 0.2889023952627352 0.14447635251331134 8.821312101552854 0.6007691068723847 -0.727715782798979 0.10257364639886851
Ni 4.967662025518142 4.644749280626629 10.736517482593856 -0.5293911693500302 -0.40690972828364114 1.180816922037018
Ni 3.637414913882919 6.591566279723884 9.976133812716501 -0.6003641581244822 -0.014607979721161938 -0.7479012566079184
Ni 5.829715083526341 7.387125017726054 11.648362968238258 0.4296107694255827 -0.3229544683169083 0.2708009262418046
Ni 4.516316996589289 4.7089274530121745 2.0427026628626934 0.06647818622789196 -0.5265061344927513 0.7972762074966204
Ni 7.728908670279522 0.2874272750159205 12.48232419318067 -0.2562780500352812 -1.0398235382093706 1.420765124564024
Ni 0.9147273807984116 8.228076452126343 11.166064145146997 -0.6522963282173992 -0.3817905646185102 -1.4051983804740185
Ni 8.647840238705438 5.412836989064566 4.046698132479336 1.1352232925676191 -0.21762125689503167 -1.1731038696634764
Ni 5.591816347196423 1.4160489900841151 12.376806582732844 -0.36330587555076144 -0.4957374858513268 -1.4158772003441036
Ni 6.859517980670374 7.444364239658438 13.877636068134853 -0.413649618110636 -0.34203333932523033 0.33864179714517806
P 4.1323111120034435 8.87919870572998 13.730925202712273 0.04149863346441886 -1.2760744943904474 -0.8209604384874376
P 8.36756739181065 5.465102189057883 1.5211138126569514 -0.19735479333651174 -0.026321925723980476 0.25486934261321265
P 3.2812882324173733 0.8663474235143686 3.5597176536240553 -0.27230322181894395 0.31691366143946714 0.06687670721789128
P 4.11187395697518 7.4709145056194455 5.357276024916202 -0.052215248550974584 2.263666328988611 1.1259143564618674
P 1.4670896694092275 7.3396534839144705 3.1532470356011975 1.3873415547982557 -0.2469737419152198 0.31818250084956173
P 4.154295529581453 6.206734555617619 11.973767470303446 -0.39778873981897944 -0.8416177097264731 2.1250244761122756
P 7.584253860490534 2.5852479028296496 12.60388871982695 -1.6960114881716921 -0.0018828188450096606 0.3532821727661722
P 3.326225293218021 5.038076710144083 8.220143646526195 -3.3873214571026566 0.8834652418898785 0.3256333007006521
