# total energy = -381166.1066064421 ev
CRYSTAL
PRIMVEC
9.27106185594791 0.00000000000000 0.00000000000000

0.00000000000000 9.27106185594791 0.00000000000000

0.00000000000000 0.00000000000000 13.56913615947182

PRIMCOORD
 96 1
Ni 6.012904817073968 0.2460938489560162 10.377119077675875 -0.3987032812134488 0.9451202956975143 0.68578880354789
Ni 5.507604129180533 3.1904227257711444 10.390633504638469 -0.7040482639787101 -0.8853154077247398 1.1586730389501272
Ni 8.887861118851022 1.3447582606141881 0.34084595600349066 0.5128319794397683 -0.982621892187398 -0.3570717217155915
Ni 8.73821690838026 7.423200214409414 1.0684963761664512 0.4018330850916822 1.4488009476553176 -1.6743661419877744
Ni 2.67946669010575 3.7878592270378806 4.555660762169355 -1.9412926728758375 -2.33472519260865 -1.8718052675079764
Ni 3.0657269429304432 5.257656299783856 0.32923858647809606 0.2520778959110046 -0.7604675233087032 -0.193336416205738
Ni 0.6649075815047653 6.175407990429493 2.5936453970070077 1.6673583432113737 -0.2226354222801714 -0.7579437284455849
Ni 0.07352508367259945 3.7208850757188303 7.913466021185173 1.212062767425177 -0.7437697509380481 1.3404955409789947
Ni 3.3017589083833356 5.831080750674577 3.2779369147767055 0.1839593458662122 -1.1805436137709733 -1.197462758123815
Ni 4.449738879719169 1.8190565174429922 4.298946911782556 -0.9780252739556511 0.08471939182626699 0.1393509631282181
Ni 4.000389050520425 8.975259419582567 5.959849311017279 -0.6708519797323994 -0.11260480538262542 -0.39044052698402437
Ni 7.391539537948375 6.928246031620084 2.7713197360904522 0.9029282357104966 2.140416385187314 -0.13421492745323338
Ni 6.958571675164466 7.6153522437890695 9.296554560206543 -0.5579748945249938 -1.5211199089347027 -0.7119770319074835
Ni 2.975519510436761 1.7534544832882861 6.36753406083577 2.2010232002360937 2.348730248638491 0.8595346992162101
Ni 1.144911249839902 1.0775940692297659 7.276273352187768 -1.6170295130498342 -0.5641475989946091 0.4108260326189118
Ni 5.208760719211227 7.424525976264151 4.422520896130787 0.535483141180381 0.3246984475912085 -0.2544142573536651
Ni 6.799165036490635 6.663742635007058 13.103090341484764 0.8973715675583255 -1.5132680169904518 2.3308911635745404
Ni 5.914075296993532 5.5106450374907 10.421245623996215 -1.1423156806380261 0.6816552409954906 -0.5448782092420358
Ni 0.33937927400755025 4.082994212238689 3.702406922203604 -0.038577603162881946 -0.43055539272703913 -0.03577561493771258
Ni 1.6442135606702952 5.735153072975489 4.880601284340764 -2.140261090556372 1.1494445783733236 0.5070374842451784
Ni 7.616789258386863 2.023381451125238 11.040229000274111 -0.4511812965075068 0.08783968262280355 0.8809800135741795
Ni 3.9035435376911347 6.00865867071404 8.372157372375758 1.8962451457178957 -1.429584779738183 -0.2438411098235091
Ni 7.161533762744288 4.352300018926918 3.90613387239193 -0.574574707865204 0.4370371437966409 0.3431222015140349
Ni 0.5117385132915468 8.653757534277748 12.630016791935757 0.34769362293480116 -0.8007479680953048 -0.14920831553827207
P 3.604533248607247 4.36090356438983 10.104487741076497 0.6244633651655309 1.64186148449185 -0.16189079610194698
Ni 8.5278194291396 4.59384826622295 6.143385742553525 -0.4361614260599069 -1.4764984135705863 -2.774141378160429
P 7.655736989517999 0.1091871504588478 1.9174271199583275 1.4081029557153233 0.14753992669691365 0.49863023401808954
Ni 8.805960557838773 1.376326226456016 9.109612867626625 0.9282597724967497 3.0907783888997415 -1.6585661988410405
P 6.388002711345487 5.697188074408003 5.602710390793399 0.19142531522595418 1.0146529524810137 0.5135012375926512
P 0.8276332603463997 2.8009917697693862 5.314433210095732 0.025754997476916938 -0.4472691059372942 1.232011442632962
P 2.090031115277045 4.262611765900826 2.0922385551204923 0.3098143313905245 0.5155740609612799 1.9057052626895308
Ni 2.7827463199083824 1.0735796994178681 12.639501088281188 -0.46862828833936065 1.1609672343009425 0.5975014918647065
Ni -0.011442344623196512 3.6922653075679577 10.273749518572606 -0.14923145546672364 0.23027211288982277 -0.2484102172514302
Ni 7.121788720287926 8.902379601819685 12.637262126827208 1.1560502566152995 1.347286338648583 -1.1389629621157096
Ni 4.075642260135145 1.2013442037545001 8.471089801243522 0.40426869111636826 -0.932869246244303 0.06736110305347753
Ni 2.9067838573526754 7.915957155523411 7.876612622942045 -0.5429920479629164 1.1295959190785128 0.4062710662583778
Ni 0.686438695710657 1.4478710113022384 2.3511107087225565 -1.4292240539646546 -0.2989689040355883 1.0769494965273905
Ni 5.489265968700316 4.684778841546488 13.115777789723985 2.1966656945983463 2.2016716324533694 0.3264203153783217
Ni 3.2122468055337468 2.3897830893146317 10.581551555676407 0.46778059562708474 -2.378667145407239 1.8739986756148694
Ni 8.649279611369787 3.986788402681964 1.53404553186018 2.7647609653867935 -0.02213231312266511 -1.20692621752956
Ni 2.991799495170462 4.144313015785782 6.795111728218668 -1.2693734282211881 1.1335579890500542 0.5292160772247467
Ni 4.38001122300951 7.994677742296674 9.519834179986768 0.9391877322631632 -0.030147984338290013 0.7805910335314556
Ni 4.834423052017251 3.50644541348051 7.95303398635884 -0.21074612704175316 -0.7945138142601349 0.4830904865112777
Ni 8.092617240432672 6.5875808613240565 6.945836944509447 -0.5077165125900739 1.0466297624979266 1.705081311683444
Ni 2.451268771976307 7.878891449962286 4.012570298778745 1.0014099714281788 0.020764229130544883 -0.6430912646793634
Ni 8.526512209408706 8.975175980025275 10.320589704717296 -0.3061641362324469 -2.023980636094372 2.1340899287486534
Ni 0.16060538698024643 8.408862433628148 3.524094734059978 -0.601339634663874 0.6668829677823225 -0.07611031000101731
Ni 1.105333086498121 7.14288038615875 10.396550296356605 -0.3719638083360755 -0.22283185456169366 0.41345601404259114
Ni 2.2583750576429518 2.987729498987037 8.710870057031173 -0.7831081435263545 -0.8464308148444003 -1.2637005462061268
Ni 4.614188976078154 4.346718839650331 5.147153585638383 4.036080461590759 -0.7858160293758208 -0.1500434098450577
Ni 0.6974666238659741 1.3439238650412764 11.163409891596881 1.3717038482609991 0.7468321919134557 0.5240975250512587
Ni 2.8056829271015347 2.0953990601294437 2.609765919475663 0.9050666222097381 0.6793898420000816 0.4888775255067
Ni 8.155688274682879 6.695013926867406 11.241526932239072 -0.12544772278356459 1.2169512058657297 -0.2036038595700171
Ni 5.51773739986045 6.041125929562229 2.5624232417748423 -2.783032252892155 -1.6899444560420056 -0.051953253138839556
Ni 5.878159203110641 8.72971534459848 0.9464558254599941 0.11251507388229653 -0.872561193382865 0.4774623416912228
Ni 1.8031473751861415 3.9077433287414576 11.775541026008785 0.9885691109097684 0.592793801976392 0.7423885543198053
P 8.830454703434693 0.28998583740975076 5.824660540294116 0.6763559402697642 0.13500554167532877 -0.21969999380093133
Ni 0.2713472945232865 7.9591695751383185 8.243874615677731 0.7697355788741905 0.1704253159355194 0.86397370882417
P 1.9340176852663895 6.949087378819035 0.645231606789314 -1.90539981563397 2.2416854538421456 0.19209020250346273
Ni 7.6777743037047905 0.002588480488410684 7.707432430790843 -1.1113462288397054 -0.8293283508361587 -1.0119648641258896
P 3.838201093270223 -0.005681306745336917 2.9617899948375945 0.2580333421634911 0.3305055411912889 0.0007584754325793389
P 8.846818127725683 5.761723936441767 9.446615968463762 0.1496068365282714 -0.030542391563231266 -1.1347496953653102
P 2.037213875511731 0.46725781240581343 9.283934790719348 -0.3986726850858295 0.6711270877706571 -0.9702446015689679
Ni 8.572988042819889 6.345856463851522 4.470365138281547 1.2085807224138478 -1.8684031838049628 1.432589628002778
Ni 6.233917662214449 5.378022496707337 7.898933631623627 -0.33888605194550026 1.6113190929286185 -0.8656806642129478
Ni 3.6699035062139225 6.2810980963316485 5.640214617583396 -0.4052269412645795 1.6077141491861797 2.1270595042644334
Ni 6.930879013205716 2.779501448235948 2.1234616374588504 -1.7139228212344741 -1.6806167508831766 2.085096786679402
Ni 1.6001389322967121 8.072489765001656 6.185219555260743 -1.8313088500558268 0.0360113850976025 -1.9245460495451177
Ni 0.5062305754041372 5.979436283538286 12.852319241789482 0.4394038442566045 -0.45980786183425326 -0.08483329169631197
Ni 1.0627232859080942 5.841223292416415 7.164259454949133 -0.14233395701594195 1.130886355755162 -2.1024882426829725
Ni 1.881107734881863 5.283281514934168 8.987082804850726 -0.4758543737741546 -0.7443623902167245 3.1011335068818204
Ni 1.6607160508901053 2.7929074037740635 0.6970049249822963 -0.07167901370254107 0.09622353581112461 -2.3935170659358773
Ni 3.2725179790837395 6.271233686447448 11.394479057603332 -0.011066542226806747 -0.8981675810970596 -0.6645846586664489
Ni 3.97891727111083 7.4381729794122196 1.5733956270786984 -0.6514108402886524 0.21099423849681725 1.5734313167439096
Ni 4.043990854736025 3.2383726580278065 12.950369992668536 -1.8389861640954264 -2.9154270964175146 -1.1528739157698469
Ni 1.9813093721266435 0.8359846329250542 4.654580211550427 -1.2508427164068523 0.02116223589991194 -1.2713693756052944
Ni 6.19120587994329 0.7546505337961928 5.783912368937875 -0.39044052698402437 -0.33005148437300574 0.9923314061656782
Ni 4.390830552271599 1.2051546102041304 1.0055393759778752 0.08376628388437832 1.035206094042017 0.33463087621357207
Ni 8.20183962092682 1.361066058533652 3.9103401531855972 0.04100549587808421 0.644494058564161 0.9944844479529389
Ni 5.426769740289226 7.498620303138716 11.641979326652802 -0.9792452624056813 0.851520570662482 -0.5763143162641301
Ni 2.221096117657639 9.397797337705079 1.170902671936103 -0.5579615247885552 -1.2672512396718627 0.5104223415570113
Ni 7.052997440832312 3.5467745328379117 8.794605361197636 2.1060646471803213 -0.055267405113737074 0.7454173138438002
Ni 7.663969692504062 2.3205282567629566 6.8561180969790145 0.27018848946878626 -0.09750085986165144 -0.9195992686082743
Ni 7.041139752635043 2.5952854478608756 13.532933856401216 -1.1231517061150655 0.7566887729925613 -2.3674399092328517
Ni 4.641000887154385 3.8138830978508063 1.639762523841907 -0.20353623955687525 -0.1438187690915846 0.7238650415943212
Ni 7.46340880996184 8.03392214740929 5.287662091691955 -0.5102593336165858 1.2733583810108653 -0.8301143370725639
Ni 3.476481341351057 8.050146505771464 13.039885803942893 0.5569359117375183 0.05302694581899255 -0.4818859246802152
Ni 2.5676669543974966 8.764342760874317 11.070691855534927 0.1749975086872341 -0.4281190153714046 -1.3114911833268446
P 4.914274708344906 0.7740326158487407 12.508410126927213 1.0345417209851409 -0.3128124947869 -0.5540117961121879
Ni 5.761455075646051 7.7809241386405255 6.914044618969126 -0.39721949757907077 -1.0835556889899982 0.9845139670037882
P 6.177002613079948 2.7503810427413278 5.067882297786999 1.362706786968711 0.2407159339309661 -0.14581780179948434
Ni 6.098384007987817 0.2736307570744883 3.5382878027552067 -0.3505658022762737 -0.7648916205183278 -1.7347605839154319
P 9.242451424152753 3.14633882633564 12.605741443401177 -1.191548449521909 -0.10809586176867834 -0.3374374924244318
P 6.378379349071238 1.5169589647393313 8.651342422647264 -0.6438332850517106 0.431280958039154 -0.2093716152917297
P 6.963485337982723 5.103154052866363 1.4479488882223766 -1.0516341576910533 0.02878555677312462 -1.671607605406031
Ni 7.486716259631842 4.542282619817003 11.727642084592691 0.7716276536905808 -1.4878413493872311 0.9353408477132471
