# total energy = -381170.6321289716 ev
CRYSTAL
PRIMVEC
9.22832262579760 0.00000000000000 0.00000000000000

0.00000000000000 9.22832262579760 0.00000000000000

0.00000000000000 0.00000000000000 13.50658297599942

PRIMCOORD
 96 1
Ni 2.1323699991289997 3.9113967620822834 7.160946547497384 -0.9487326956391209 -0.5804738469584584 0.3336420299377415
Ni 9.013763899151982 3.0779961949274166 4.551110530317702 -0.1111834995550666 -0.7046247053074703 1.2377876829951069
Ni 4.916905541900764 7.689176644209797 9.142429784141925 -1.2922086809481486 1.2179547074295798 -0.20817785209394468
Ni 4.1490814336835715 1.6340775030976606 9.96581854433064 0.40725888409294375 -0.2779236533295149 -0.3756266018996434
Ni 0.46921866632642145 5.34565340036465 5.506660864019521 0.6657079736376148 -1.3624327073717182 0.8650039498608975
Ni 3.905195329432957 1.5434461488580173 3.8642870990889064 1.3014170869202941 1.9923694369469946 0.35340635704886236
Ni 6.087425954461232 6.0211112297319715 9.583812138796576 -0.9761128874242866 -1.3210006654791766 -0.43516460936427637
Ni 3.2389196808484937 5.365715773251015 5.669725320736199 -0.12852147661288188 -0.963458946105702 0.640373094417252
Ni 3.631695538617326 4.081751593490879 3.1490736568446507 0.6088014902585579 0.6180132386648132 1.0652687177553524
Ni 2.678926621285309 3.49869695626301 1.2393803086062245 1.7840383471046375 -0.3895375555537807 0.0654173490635454
Ni 3.8059908636885145 0.6947856277910562 0.880510230148244 -2.0329360455154473 0.08889692024272432 2.012345880068921
Ni 2.660331551659723 9.167839969856095 3.137903695417946 -1.5556647367891079 -0.6902704934683274 0.2570398679019702
Ni 6.794149340102243 3.2506119653227454 3.6125513838092473 0.04726304675202183 0.2668583966542888 -0.5032726178861074
Ni 1.527545749371722 2.5023426722602022 9.72804897216332 -0.4375680765994464 0.5096931767004705 0.010294697057788722
Ni 3.5517136684213186 6.094771699087518 1.8062217062186139 0.2980080827842158 -0.40621604465072625 -0.02235291377390344
Ni 2.4372922276990328 8.004896009981783 0.9728128335735914 1.2241238123547693 -1.0167936529731005 0.30015803924768303
Ni 7.515979489503594 7.705732254586126 12.75423921083063 -0.6211852086348915 0.8053124475375357 -0.7304000144993614
Ni 6.210577916820263 4.209093214217163 1.1492251358021546 -0.9258357364362894 -1.0027520872783697 1.2819538359893599
Ni 3.0777839435123355 6.155078785937745 8.63016560800481 -1.060702695651225 -1.377650295652421 0.5887412291735732
Ni 2.255263568460975 3.26740751208134 4.850646187105872 -0.5854995823078238 0.15834293084968862 0.21917060366002256
Ni 5.713881920563231 2.8915379409398394 8.60388242299209 1.3375122899809548 0.021793698836323757 -0.336524236581543
Ni 9.160374257038676 0.4896049533288444 6.7847207631114435 0.18548143893769348 0.13324922110585438 -1.3703151954435884
Ni 5.181324663479881 5.17666436067049 7.336938038224742 -0.12467587761454657 0.2811323900747997 0.47608217351424453
Ni 1.211263455933651 5.364737571077163 1.266159977363787 1.406194682949017 0.4938209855549044 0.6732199657439438
P 8.564630676517913 6.434770781080308 11.257709853027935 0.8269644785896725 0.14995316412409657 -1.063646094550265
Ni 2.9532200478268953 0.24409281867225963 5.782613542927698 -0.8081239488444018 0.4372317763059502 0.5196338328529503
P 9.181184124039023 3.5858676896045907 6.7948377729528975 -0.5019590412810065 0.21848129090248178 0.09405403896363157
Ni 2.3044966684374026 0.210135360755997 10.378579257077721 -0.5036163743787714 -0.5986759717887818 1.1368078634459196
P 1.9572164400750915 5.658751922576505 3.8704331618038648 0.6030820712762776 -2.269812808205981 0.16073842766505864
P 1.3290353063364946 0.9918785476413139 12.486186898724666 0.012881226838042333 -0.310685164031252 -0.6039536752479534
P 4.571157215055995 2.4954214304640785 0.7181286692887833 1.1433312663867343 2.9147642660225346 -0.8726714937084842
Ni 7.046423989409761 8.043581137460919 6.659772046382139 -0.7058948302691456 -0.7371036517717822 -0.05637220814214162
Ni 5.624874751065078 9.123913155256695 13.461146240087297 3.0084118135763678 -0.9385485560172674 0.7225434945694201
Ni 2.3502783758381636 8.83426380025011 7.962076594069764 -1.54658334331313 -0.7970846603111047 0.37290354654152547
Ni 8.603555740379313 1.7118168909517237 10.668200927117121 -0.01753646622186657 1.7330009209118475 2.52269134564141
Ni 5.927711378773878 1.486488943037115 2.052001462224649 0.4447779640843243 -0.5486325340781455 0.24104374958403005
Ni 0.11837999684866314 8.024949154545753 0.8160485525558648 0.5485908822069326 0.9180082699720706 0.45642968939063977
Ni 0.9453585744489668 7.337273026327675 9.529015283248304 0.7335185055236851 -0.5863781282580353 0.9425319661450479
Ni 5.33026055861007 4.5950862550257945 4.961332531573963 0.7160339755856765 1.0538974998039334 -0.6235066576792164
Ni 8.492419053778354 2.2121303895875313 2.0726387595962112 -0.7407890710431693 1.1522630216587253 -0.5485785409117585
Ni 7.668671311848481 5.3482188739904135 7.18061302535301 0.7256591573802664 0.854692026411928 0.5458081772554729
Ni 7.230344454738759 0.5534640214688411 9.382293262660633 -2.333669754760942 -0.5605418839212217 -0.522500355767468
Ni 4.638496283571083 4.510130319058972 13.10934044242256 -1.3959025569943897 -0.6411603662052378 -0.2662580440661285
Ni 7.73870505050286 7.557267003898072 9.264097832259866 -0.001309462840042906 -0.39003840644959925 0.876588055154071
Ni 8.355867567302028 0.9540239691777138 13.303052157812475 0.6634986246911219 0.4767056660308564 -0.7006387240765287
Ni 1.4026773190472526 2.020301251966162 3.069884499542359 0.6177998371024264 1.0676842691753805 0.8447002053065388
Ni 7.71376089506963 0.8531962415240208 4.71373018189495 -0.9436447395932523 0.9554116503211934 0.09994263653392466
Ni 9.182716025556564 8.733582802922495 11.201251899448593 0.27069525390187577 -0.1339328774364403 0.8264885673945185
Ni 7.752409109259185 4.751663201098906 9.722781445740349 0.5690648337905683 -1.1656736386376765 0.9592595633123737
Ni 6.821335977877418 3.3558148406238284 6.399229743041092 0.6963544948788781 0.36178841046497046 -0.0924751245122859
Ni 8.811580583803613 6.0039465500775835 13.512795314866691 -1.3820558809192844 -2.2710405099654953 -1.1894769117048611
Ni 7.776421204130537 5.62172789312844 4.498435266088002 -3.2107625174655734 0.5080795523564475 0.7187976543737428
Ni 9.133962798344667 4.754487067751724 2.98710275633176 0.8817801408779717 -1.337037150116749 -0.4239977941141795
Ni 5.495622867603062 7.1202228836012305 11.630856146230721 -1.390710985491121 1.31916412649107 -0.4755913499207551
Ni 1.68266462050645 7.14963354707356 5.787044060509457 0.019513644552895424 2.436350101941004 0.28522918585199264
Ni 8.045076125688881 6.634656244152365 2.362044486891574 -0.3877827776462031 1.0266206663658515 -0.9068070019396124
P 7.446720929930381 -0.3820737722875456 1.1753874297915026 -1.7382778530400707 0.06302879422671082 1.9791742784129591
Ni 9.154043627875822 9.359641422510279 2.986967099992556 -0.643842283912775 -0.5805926319245098 -0.7081977673707094
P 5.669549059778458 6.7541630191654365 5.409413725455023 -0.17271745440380576 0.023516080844069177 0.12759973612956088
Ni 0.33961610661340336 0.5415410289347184 9.002326316375829 0.327740576851642 -0.8167137473959417 -0.23638362510419936
P 5.721947474336313 2.064237294887956 5.042385810000011 0.17092822371386693 -1.4086236041054836 -0.2993082896528781
P 6.229385237860931 3.233096609417355 10.667890855484655 -0.1160948208137549 1.0993291497741713 -1.966933256262077
P 5.29599579755806 9.137128112926096 10.672590840080343 0.31227127757144935 -0.8017134173323677 -0.22561044574809536
Ni 8.650527901369008 7.9185189123661575 4.8150968435765 1.1102573666509008 -0.7240259926522176 0.8835827413043492
Ni 5.4246662967092005 1.6049898309091506 11.916425659906553 -1.15716328717382 -0.2572059611661893 0.7951128812967144
Ni 6.63984256133826 8.14139212652374 3.5586201449016106 0.19153124467619917 -0.13948851714734686 -0.28201325001785627
Ni 5.649966559656624 6.6238037370160425 0.4085092246197808 0.11952261554838124 -0.09805827502701822 1.4931252234939898
Ni 2.0696543201337225 4.696127156926807 12.686584533689636 2.0517557493251117 1.1049038156484714 -0.7915670729269851
Ni 1.4597083514473133 0.7895125115095258 1.2434407704599504 -0.7266228068451164 0.6798894073443194 -2.0477651401084795
Ni 0.540220456000018 4.844583179292467 8.793811449032363 1.2156126895599644 0.32894308180017545 -0.568278333333531
Ni 4.529316001317828 4.6814356676742355 10.733640806883352 -0.043746291848014984 0.17527467360802074 0.5410531790689908
Ni 3.083099457211759 6.815715929538966 10.878917672183993 0.33895264351737747 -0.2254993740915278 -0.13256376500305556
Ni 3.0632493357404753 2.406875677085667 11.871489266837159 -1.1553612009680747 0.21941280157781565 1.136214709946611
Ni 6.814073288152685 1.1259660720382203 6.9581587770321525 -0.7186714132085237 -0.3421510958500172 0.32727957805482344
Ni 5.821244223304703 5.584445470653319 2.8291018801131256 -0.46055373886134227 1.281964377512321 0.9520383629735863
Ni 7.042538865681537 2.9381594256785295 12.515550497752782 1.5943500691744477 -0.4099469724480682 0.9469424365079177
Ni 3.569238252649104 7.103990264508722 4.185662503656685 1.1280578851674314 0.7644424487960512 -0.310789036598968
Ni 8.17296221743646 2.64046297354365 8.592104315119567 0.6568556654533075 0.31968711041954617 -1.415984672456245
Ni 4.608291984372798 8.323780690335196 2.4241077234935364 1.259519932465876 -0.7576879036810371 -0.7052510260375596
Ni 4.220250255992515 3.0822227665842497 6.248833927308039 -0.15747518353275458 -1.1651658457633225 1.0802286814992945
Ni 5.038174926491249 8.983208923702696 5.202533194007683 1.5741825930876372 -0.1196928225776584 -0.07558709050769563
Ni -0.10039768783009384 7.436662058520014 7.5330131269799745 1.1264617443249052 -0.57185139539677 -1.7234690701620126
Ni 3.7889553805476552 7.306828790747125 6.929201224189409 2.005275346375385 0.9761810216580608 -1.6399285291351948
Ni 6.817533909050748 5.301209799711141 11.999382741242654 0.28707909457653785 -0.6768007411166667 0.258045169238033
Ni 0.9135356275026287 2.956699125369747 13.655155107458324 -2.652992282752218 -1.2198658084093637 -0.7127915573889788
Ni 3.611125607999246 3.6641423201575547 8.918207389250217 -0.6446897195147349 0.6787851185365471 -1.1914687453239095
Ni 3.657497928033276 8.75217787254808 12.493602778601154 -1.2881208840320202 -0.6395125461891695 -2.434970447984658
Ni 1.1947724438140863 7.288381374279856 2.9121816981370783 -0.5802601882857555 0.09259879457434375 0.12214154122846706
P 3.5900296630046604 6.493029180358881 13.077397527285088 -0.2632395689547789 0.32234794508116094 -0.15715405274791
Ni 4.593923486404045 0.3765801519659022 7.919949302337357 0.8224635053955255 0.8058780902330185 -1.2841798971064013
P 2.8165301365146465 1.69664552893462 8.18817695256882 0.18605942292835054 0.025819532166265206 -0.9828198671308171
Ni 1.4652361165618175 7.153149537905991 12.574723423780684 -0.5300084912190549 -0.07871586594466444 -1.0321289977785904
P 1.1167469779657833 0.43744370665653654 4.806452673989262 -1.1987272266585356 -0.04153668579120588 -0.2752180814728937
P 2.1771550477111186 4.527442651871676 10.376932001530243 0.1795229073614134 0.8910726219234912 0.1612171670736901
P 8.049754885143061 3.979843229284751 0.45705204608107514 3.846152813956253 0.24155462778217757 0.7681093561246771
Ni 9.5094170949784 4.007011410415136 11.500423037502168 -1.3325852849929825 0.18816669907934047 -0.7492914520872257
