# total energy = -381175.45377149474 ev
CRYSTAL
PRIMVEC
9.15935890484284 0.00000000000000 0.00000000000000

0.00000000000000 9.15935890484284 0.00000000000000

0.00000000000000 0.00000000000000 13.40564759943217

PRIMCOORD
 96 1
Ni 7.0375842996198825 4.997144744143633 8.715172186045791 0.9710359871220117 0.6053916932460606 0.4554261878267899
Ni 6.657269396771286 1.0827186636200044 4.211786501118983 -0.8569993343888661 -1.50868168317135 -0.019535498929766356
Ni 4.6494921153559705 -0.16481167330275728 3.7061120318276 -1.0375316568514001 -0.5886247582003669 -0.9692742672358985
Ni 6.105262310167163 5.906705726574081 10.909904806992051 0.7597594414980852 -0.5284321478708706 0.6883169692863823
Ni 9.10230531570621 0.682131351579297 3.9988643789288276 0.479997963628883 0.5506657624580904 -0.7435769182009517
Ni 7.8900916350717685 2.3110253379518833 9.946990558603963 -1.5386823432984984 0.22919070690018592 0.9207128133874272
Ni 3.7729597813449627 2.159795162118995 13.281846293597061 0.20869361538809864 0.268080441986848 -0.5883375659772513
Ni 8.341446526034948 2.39514489066518 0.4418813659880754 0.0772207694563767 -1.0420454855613537 2.317269459026048
Ni 0.9454839882820985 5.90966419951903 4.643247264415211 0.09740881436847741 -0.006222583870944122 -0.9561852952624242
Ni 8.758059968452665 2.892562197851702 7.9514391895320395 1.5114744154251387 -0.04709386816400921 -0.4618482893030498
Ni 2.875864686462728 9.86902609511359 10.049530498127115 0.3507558067998927 -2.095356773844514 -0.8983442158842398
Ni 0.6572114836495205 1.1022189388515604 9.439814870378598 0.03467929654974027 -0.4020917380697075 0.4261264104214081
Ni 7.719764195801683 9.118508221711199 10.700642764643383 -0.1654988251681795 0.013704236959969945 0.2597791212100042
Ni 9.020997686194457 7.436236239111775 3.061648543982345 1.7800230552976568 -0.7361364027625064 -2.525456052870741
Ni 2.5498647822628513 7.5753119456011815 8.873720689689863 -0.7538893558705533 0.4970284367486086 0.18791910184490862
Ni 0.40518531023997517 4.978001683911622 13.174453725695479 0.23274962789603787 -1.0767211825666683 0.15008506171627056
Ni 8.23043509540721 6.429622689112718 6.264150626028751 0.5737822938708956 0.9502707295502021 1.004570114323715
Ni 1.3078190694869454 3.0529700513652007 1.3534610711339001 -0.15805239619246328 0.973722275704923 -0.4503076356533019
Ni 4.867869551744301 4.446355852281547 12.614566842575758 -0.4897599281116533 -1.0564176951226256 -0.41352980470332007
Ni 1.5557354385299342 5.922780401553594 10.441511676486485 -1.3733390698715768 0.3294827563537293 0.11833348033628655
Ni 9.31754109197034 9.153597725897246 12.472024318718976 -0.46138883316812795 0.06656611795600793 0.1402747604940681
Ni 0.41740481103209287 5.303442867214774 8.139400226677084 0.2482801194314692 0.04627317203492676 -0.37447860433812924
Ni 6.74049133230624 7.6254960733577315 12.620814441324205 -0.02952526315262657 -0.30930268186142856 0.41827940357316346
Ni 0.8479505543679495 8.173234898685243 5.334241211726803 0.9092086694025696 -0.6050191403979903 0.1443764413672675
P 4.015582040907519 6.147468636267214 2.3485356607117662 -1.2622681846349746 -0.7158992497800251 0.21415052473761184
Ni 2.381561561323519 7.8573469267801705 11.682687250160935 -2.55646947053312 0.987766926723447 -0.1515017395581391
P 8.243423066416296 4.456183844448508 10.739291595722328 0.20321716565455972 0.7128830886615206 -0.49650984524097713
Ni 7.839449539367084 1.6327198506112997 6.162200549222797 1.6966879454134265 0.37789482910852984 -0.0912188835076816
P 2.366567690701604 0.2330122601389081 4.134516317037981 -0.08918745489994963 -0.17359291503022362 -0.8210599401797796
P 5.408619786183284 3.4554963996983084 5.112256819778967 1.3816439901928461 1.5845382252903484 0.8861625862163836
P 2.0658934140335505 3.6962593093914404 12.164083922585824 0.28848420245418055 -0.29705420351137873 -0.1678624403043496
Ni 1.8075811725679147 5.495267321970283 2.014332634624909 -0.5635271918017909 -1.2604133908144228 -0.07044539840575609
Ni 1.7278947495925574 2.727931879856406 3.8016542211032616 0.04630608215539122 -0.11913566452260771 0.024701873622054234
Ni 4.875774078529098 8.106692155821337 1.3280035488330137 -0.5859551817880038 -0.7025061163025708 -0.6278739335089768
Ni 4.855705923041856 4.57662025544885 7.449558526723 1.4337818485386662 0.4585019985386362 -1.3059147176803316
Ni 5.591541344027062 5.7390070233262875 0.8863209409344287 0.2467307726664783 -0.07401383248330479 0.40743757576265316
Ni 4.560939432904734 0.35446993966358953 11.779220482076358 -0.11251224566881915 0.2611945135002921 0.758343792097481
Ni 7.131824943986947 0.4223920819872748 8.389066949217844 -0.2912471099112984 0.8189171828051639 0.7637999301160459
Ni 3.699501722464231 2.494468979256534 5.845666842510854 -1.48507998459201 0.7258489047935693 0.8993914262018317
Ni 1.190670868354207 3.569182363143152 9.983453966634412 0.3019549832471058 0.055709634857478256 -0.37380240420671107
Ni 7.4378940830840214 4.1989340886225435 6.277985837741887 -1.7769894106776558 -1.0133005522181775 0.5014111391973365
Ni 0.8184226129440464 7.368740922915751 0.42802050806984454 -0.46904737815465025 -0.6519749403222385 0.18536136842006143
Ni 2.669760791084395 0.9465556332807327 7.815372332461875 -0.9714393932080173 1.0738307483927507 -0.11860447460948605
Ni 5.8233097632188375 6.730791571164757 3.3652867892107223 -0.6140205725656522 -0.4904386993462328 0.06298071459759476
Ni 4.411128957711062 7.287433293403998 11.880942490844143 1.962402458271259 -1.7842175529949789 0.8078272435395895
Ni 5.497181627993483 8.001405324545278 5.660360187593194 0.9172703633647815 1.1680331400087882 -0.9709136026115345
Ni 6.755796621132887 0.5629158831286808 0.3515380288596342 -0.517221880977348 0.6922348162835498 -1.369484472012177
Ni 1.381368721957304 1.4112007540987683 5.7298018675687885 0.0011389987004496514 0.5630728778731916 1.2755600166478742
Ni 5.797004084278007 3.707955810786789 10.364107765764627 0.036461328150827525 -1.545128098923842 -0.005175887773984635
Ni 2.8389158324072574 5.651993113180781 13.007714007331076 -0.5071326150621459 0.12277146150298211 0.2252749167855475
Ni 8.114926419528791 7.1051437313286465 9.00823320354406 0.8919467969983285 0.9889367786618323 0.5329776011497078
Ni 3.1198883279465757 6.945844160249633 4.341083675979826 0.454178688572934 0.29836135235857647 -0.48564462039169914
Ni 8.51820383529684e-05 2.5695116072378106 11.872510384983096 1.2994977584103942 0.5631924341701913 -0.7500113609723857
Ni 3.837350074852637 6.711153905548761 6.538751871473626 -0.5590131059815211 0.19803099346792993 1.3200254460501009
Ni 7.5626353927968255 8.076374677654853 4.461332320121433 -1.0702970242078793 -0.4410655482297436 2.431239520187316
Ni 0.2370396302748006 -0.018472595155942653 7.409904913965849 1.4276736787583995 -0.29334847252501733 1.000725286656328
P 4.719313908728516 6.100242981455612 9.113400963153607 0.8509837243224054 0.4623393700068554 -0.004301455588831302
Ni 4.5387279874202235 8.597560521349541 8.087707552499381 -0.43322625469098297 1.0351731839215528 -0.39461522718700426
P 1.735304670993369 3.3802980626146666 7.442627639795937 0.894555438265769 -0.606496239164149 0.26981259418660625
Ni 0.49790916476281816 0.48113196695086846 1.5600687312551804 0.31356428535125996 -0.7696481613667068 -0.8289655681801014
P 0.32844545304291334 4.25565799867845 3.207461874924701 0.38548369719938125 0.48145063691500956 -0.4453927148501878
P 6.070392630596222 1.9217159446019296 11.984380963481534 -0.3172874998391181 -0.028147923189125717 -0.5703151612579017
P 7.549189453839603 8.668069266644288 6.624682229453846 -1.2318772310479429 -1.8077549739952865 -2.028179247556752
Ni 7.902603319414795 2.860165545200686 3.892370344141484 1.3432818454748803 1.6245001103952668 0.09590111947469936
Ni 2.59352744643797 4.773006070967774 5.828842931968196 0.3331236955404263 0.22044124284233002 2.4862606136182017
Ni 5.338944542554142 1.0490030632783618 9.754459001336535 1.083672931294153 0.7376314992507942 0.2127616148098852
Ni 3.1251274812732315 9.099456755068815 0.3595020914776886 -0.8809936404209344 -1.0158318032804636 -2.4663435629793007
Ni 4.308818918097873 2.6489140900853245 8.483308509520803 -2.7195537727225356 -0.6187755707521343 -0.2098542113551031
Ni 7.790978211736556 5.433459967690085 4.132371195168921 0.9905545167709136 0.1672536030757571 -0.388888352005556
Ni 5.609099835158529 1.2449400702081146 6.474793899708992 -0.07553566844446992 0.13695855163664156 0.371482754934599
Ni 6.426059698476235 2.9364538460008878 8.123514234492205 0.9951557629883506 -1.6660085140516985 -0.8592480212137267
Ni 5.872165783925798 7.87058220048125 9.78039830591886 -0.07353483596435723 0.4956225575400174 1.066051361557648
Ni 1.970526168514077 1.295856946681679 11.99773256104144 0.2613639491986208 0.5339075691631451 0.6283989527745113
Ni 7.893059267375678 4.536877796909761 1.5700963974475275 0.44833148576353754 0.8408029271346616 -0.007849577951405836
Ni 5.970006056365197 2.803624822324033 1.0804187485844743 0.9749623187596111 1.498304453702084 -0.25917259797425685
Ni 4.686734068898247 2.1609858787841443 3.6183314833369185 -1.529088014741844 0.5539295208110266 -0.7167572269049461
Ni 3.424537766404434 4.383834068002261 3.8762700229568767 1.498806075928851 0.4606938639836324 -1.597850111907906
Ni 2.3600370677612097 7.657434758060612 2.0543214799200946 0.7857466095904662 1.663440496214206 1.3077620553017155
Ni 2.9260946110140913 5.167334793029279 8.410502596998214 -2.2703452836706837 -0.47018380575193863 -0.1723346171430903
Ni 3.622059342434731 4.936491469092735 10.668361519915297 0.3661723984652791 0.48118401351718415 0.4469688010880561
Ni 8.853656197946208 6.746802130631529 11.862027498650304 -0.6812376938420978 0.1797098265612389 -1.4425981612787155
Ni 2.657478090715435 1.2863953288732257 2.0073083222364265 0.2688139777187628 0.47486269928484676 2.6132479129747446
Ni 6.165127880347271 7.01024361311627 7.566589488061016 0.6099823979405365 -0.9988869478960088 0.40681279769446066
Ni 6.099913244532955 4.233968636654812 3.1454878203113834 -2.029590783192298 -0.002820243057614498 -0.1659935054164109
Ni 5.824317292704732 5.691011982361819 5.4998543289387944 -0.775731134335993 -0.5878431428393359 -0.4051906887100054
Ni 7.112517015293608 3.7267416560192554 12.53176074193771 0.10598678584547554 1.5304463285419512 -0.6620174121599051
Ni 3.791489164526474 3.803497084126554 1.4336805688008858 -0.2739739246531475 1.5178687489872569 1.170209578834817
Ni 6.839861217692407 8.48985561930733 2.2836516777560036 1.2798275336749767 1.7474456355822678 1.5459032865269697
P 4.8316168089699945 1.2422563780320477 1.7188187407964328 -0.806540920627998 -2.2426689008013376 -0.6050371381201193
Ni 3.6439593697145107 9.308564920186909 5.945673303344928 -1.4225062756248468 -1.0207122713012164 -1.011579712872329
P 0.5568752858927902 8.217447124398122 10.247625450028476 0.4744739484868603 -0.5858132568935008 0.3594178533502648
Ni 0.42055013489987886 3.9018960774626765 5.780796598593536 -0.02215879548522635 -0.9760905188267834 -0.7453167837101938
P 1.6431065636749842 6.852940782291121 6.988766748220566 -0.49483837107582523 -0.4363100358226292 -0.47911273281045236
P 7.837883288984465 1.3057765324382666 2.2844027451909437 -0.1324336671830945 0.6814600942655489 -0.14744299610773318
P 7.4365934541113194 6.852079802548628 1.2441926665167593 1.4749853193601692 -1.562749411550031 -1.1363486644213139
Ni 3.7511513476548104 2.5656738358324453 10.803691964524862 -0.09774665732387038 1.2534541858877704 1.4477712208392228
