# total energy = -340875.56015562505 ev
CRYSTAL
PRIMVEC
9.14709886654293 0.00000000000000 0.00000000000000

0.00000000000000 9.14709886654293 0.00000000000000

0.00000000000000 0.00000000000000 13.38770379410757

PRIMCOORD
 96 1
Ni 8.407071235928344 7.794910783448062 7.937904637752774 0.41632356539837334 0.2911180405326018 -0.09183080606006765
Ni 7.766326099119557 5.079676773605571 0.49802020721423723 -1.0176017506966926 -1.2824150918964947 -1.2382024019350224
Ni 6.960530708223238 1.6895332122448627 3.987407048433819 -0.6901205981540245 -0.5596268283061201 -1.1692703548499992
Ni 6.537788381526855 4.85748459215798 10.866129762173722 0.01076700870851694 0.892137829963212 0.758707603194803
Ni 8.274337682555243 7.186619553838489 12.908879116438955 -0.6119842588619138 0.28402153869713664 0.8850482701062822
Ni 2.2837287623183644 8.693960848497698 5.514676212942015 0.37025531028540104 -0.11142826857602099 0.4463370810413281
Ni 6.290011764217881 3.8586488242796526 4.726113956533664 -0.566019104985709 1.1585953916346563 -0.5561591814724938
Ni 1.9815177589489303 1.9672482845321408 5.815230676685243 1.0622103905450029 0.48664092286669736 0.4934098661594148
Ni 8.345712495936148 1.8158729434273626 0.47288946746251403 -0.7701456698284156 0.33642267800667225 0.31118987158181244
Ni 3.6214096650015377 3.7343763374677903 5.535614837228857 -0.41141892900790433 1.2560057486650305 0.2807827200448648
Ni 1.61678633401619 4.651693159190714 13.194827492522741 0.22036693796096885 -0.10404920250313049 0.11681678658144398
Ni 5.73541400565097 1.31297458832436 1.332148737216972 -0.8639060888110284 1.8888848486980823 -0.08471270695804765
Ni 2.0605761354773366 1.1961661342843568 3.466986510514918 -2.1648151257466526 0.6669511020160965 -0.748168394226376
Ni 5.011055237019188 8.224623199571107 0.5620197146834378 1.495223243673599 -0.5224077960536615 -0.8010048213011172
Ni 0.750366715176179 5.325376999444922 3.8377056264433183 1.4205602076420698 -1.08751775896154 -0.6628316805310843
Ni 3.5915352397161304 4.882227494912735 3.3582119535135466 0.35918259741100717 1.4031024171769384 1.5987628535301628
Ni 5.60941271713092 1.9897410009365548 8.748783986265025 -0.49597171334932 -2.884548661671103 -0.18219094111187978
Ni 4.403084155874093 5.2877275400221615 11.60879919355392 -0.23010396274307468 -0.209866038429645 -0.3107121606144455
Ni 4.727540903975343 8.542000093057872 10.103485810739713 -1.6171560113253698 1.9308732773147264 -1.2842205205363497
Ni 4.241381740015112 5.817253100270853 7.413789586553781 -0.7517139454857893 -0.8426782897805036 0.22812447041920064
Ni 5.702795450670026 3.4980610351871726 0.04175925099677581 -0.09958473897387367 0.2506738164746264 -0.35094221177908597
Ni 8.642087650153073 0.3414145549097667 12.196987843723894 0.7016273132420433 -0.5699644627867023 0.14489297599236983
Ni 1.7691404147123762 4.348521710427843 8.400984756263643 2.1456259544127114 -0.33498440289824893 0.41054243994022194
Ni 0.004001855805990717 0.8565197136084141 5.027765157445208 -0.785016416292661 -0.9932372058093991 -0.4123887491203414
P 1.1882447465632413 8.722097324975932 2.1476418824573185 0.14702570606465648 -0.6294019401177289 -0.27595470252860216
P 7.766682835979977 6.009891004897516 9.256191861167691 -0.9338688911534111 -0.262326056001574 -0.28816847098597465
P 1.5241079270989377 3.3008770223649058 4.258281005390124 1.4330444561520093 0.8961106985680309 -0.4405423287364219
P 0.3488575493539602 4.828790142641654 1.5826941813887434 1.8470684268829285 -0.09039330228259271 0.9704469473877608
P 1.0673841276728293 7.0089097147555455 6.590967785606555 -0.24901056983959047 0.3579260992960868 -0.5725566489939107
P 7.136466010103066 9.031991891492869 0.6960430090134401 1.697702759831186 -1.782510597606201 -0.35875759405844665
P 7.480973199179703 8.286384411918648 4.366426241981319 0.7321686763640101 0.9262275725580693 -0.1541602602269087
P 3.933709918551561 0.8656064417402339 4.230420771301241 1.4094209031957983 -2.8368086752826627 1.4493084834193557
Ni 4.033358414895476 5.132803124511156 0.7803106584138731 -0.9747854268621147 -0.5956220154538066 -0.6354224352801959
Ni 5.631438931487093 8.948698408134351 2.943153189964667 -0.4648369396177285 -1.6999825570042981 1.6542626863696799
Ni 3.3918266275739697 6.984596725653092 12.831887069571287 -1.885629060764946 -0.24845341178453986 0.13607383503884307
Ni 1.935690793033471 1.0172671723333477 11.525769146646175 -0.21661441289707212 -0.8270341554853434 1.2517850257154635
Ni 0.49712104738399976 7.554515875020081 4.245870221487111 -0.024059869162681144 1.5282385222573551 0.03780781487639295
Ni 2.9677671186237307 7.6828405266823525 7.828660834573466 -1.4706393836866478 -1.506989897291224 0.8960327941422439
Ni 3.3976533296274924 0.34327416013344186 1.4514543492799135 -0.8396775552809668 0.7816549560195958 0.08462117568550588
Ni 6.493232862370328 6.754355097098595 1.628426932184656 0.07696803001562229 0.3617812113761189 0.6441670142420455
Ni 2.379965390740829 4.370776602258643 10.929413966502285 -2.0331427622096143 2.1374981830992543 -1.92353046379641
Ni 8.068280983717408 1.4012532406297689 8.01927448619472 -1.0046469903082376 0.9731473770380595 -0.5011709981620724
Ni 4.193432647135105 2.448779016405899 2.932844409408435 1.2406457212691926 1.1077158311759698 0.3393848459587897
Ni 8.609551419062996 3.201466350594603 5.103392457144295 1.0608086251014697 1.7503255282332244 0.1058605446802564
Ni 2.904844224705079 6.275339817445745 5.277619995643603 0.0558880694168715 0.32224561517534184 0.12553822561484185
Ni 3.55692261715643 0.5848527031700984 7.571924633808564 0.6220164462869352 2.5864212797002035 0.7496987148279733
Ni 4.473937584612845 3.895722016466351 9.475442335581668 0.8923088083234374 2.329937798522336 1.382958852349528
Ni 5.785201665426987 3.8394490635098824 7.116475025271082 0.5842448839651164 0.5869460849463634 0.3767028656829577
Ni 8.959318190056077 7.162709037091381 10.612847505985602 -1.5353527647046332 1.8837071611518847 0.07356080410628621
Ni 1.0347289842959448 6.508224957606942 8.776912230354172 0.6513581326738459 -0.54523456414019 -0.31222474060423006
Ni 0.37947197494726376 2.806869647475441 9.504948132777974 0.26558184393471035 -0.07394569824953072 0.8295872609245003
Ni 7.853973601594993 3.0033493336758537 11.942353646305772 0.006355767014698731 -0.1571136864282778 -0.4442120642785253
Ni 8.435024770426875 0.49167120580866425 2.5358584840343585 -0.5809937240176704 -1.2117534637148744 0.14493822740800844
Ni 5.596140276503507 4.536558624264988 2.3573199177833635 1.150011506620387 -0.8713160081218542 0.15988944940120203
Ni 2.338849180802707 3.662031931594463 2.022762028272844 -2.0037000314684654 -0.37787760271734916 -0.4961079818168682
Ni 4.6647918049374075 8.001159571364585 6.1038024407579625 0.2553750786050376 0.5368535391653464 -0.7091876420878045
P 5.094138337101048 5.462464571934941 5.5162833582337 -0.535615038772555 -0.17007333191273932 0.398855490520597
P 0.5692953172162035 2.8822508902118282 7.241422567988048 -0.01583773836320498 -1.2729763150810978 0.22041758869324618
P 3.8423303996901956 2.8847114598388264 7.791897729042364 -1.1350705690398386 -0.48148277570452563 -2.354351965700642
P 0.9126106392950785 2.9305292786553006 11.856632522876604 -0.37766780069938827 -0.26571939795383914 -0.10866793222206447
P 5.685571463281042 8.820584139748737 7.993047923984579 -0.9516316144534708 -0.7298487699815818 0.6609360061702683
P 5.859713933759788 5.944553276846792 13.06518108505712 0.38711403371395264 0.17363790933554613 -0.7582579172518941
P 2.3661075357783696 0.22493722585302475 9.553733270505221 0.3404184294296267 0.6283609004477242 -2.444538551289067
P 4.29270611242063 6.704878438688072 2.2387049116937985 0.680534497127486 0.9555813431298383 0.34656156621288703
Ni 0.07682739908593515 2.799021436546207 2.670324497955241 -0.05247724396310963 0.030922657720785455 0.010724328396039595
Ni 6.2253692156900255 1.346370646719039 12.391391138454685 -0.1415500276620659 -2.720390409691218 -0.3326159026660723
Ni 0.9859017699133656 0.5052958097470029 7.242479972630727 -0.40531924386806967 -0.9925424937352196 2.067378543464033
Ni 6.255508906846002 7.787931546922414 11.560523549240145 0.7040894016292907 -0.6442310347107614 0.9348659649593577
Ni 2.139945513371237 7.702817790865858 10.804385929314252 1.489628523194641 -0.13765094971797584 -0.43953651317972686
Ni 2.8772199857700116 8.01247453280918 3.3319588647163485 1.277147158629336 0.13164639539510875 1.03403238544889
Ni 1.2335960633314746 4.7797799862793715 6.166791193789306 -0.09227894934107979 -0.26543117728945903 -0.5484332735831459
Ni 8.902962913208743 6.878883702682041 1.980991800757286 -0.5425583028596075 1.1792534342046401 0.1618792261377212
Ni 2.7645094320753425 2.3728306535324344 9.68648603278619 -0.0557361172200395 -1.192370174092256 -0.6005364220362883
Ni 5.415302129567653 6.494486014931289 9.420726218872467 1.0799962537735144 -0.7082041951286127 -0.34098201524258054
Ni 0.15093445093369515 0.4137928050493387 9.716902881041415 1.2717090183329003 -0.9780787529014058 0.05665657215177985
Ni 8.835265233619857 4.797946124863824 10.922732925403553 1.9323547469562592 0.5434437907883544 -0.14226196612742595
Ni 4.886352836555025 1.8619285868174502 5.933577672774543 0.3300877369275799 -1.4732799066332884 -0.44597841215032874
Ni 6.1500337084485635 6.619782976829486 4.141165208824221 -0.01946350804125035 -0.14397689193600366 -0.6566769737835981
Ni 7.029005891225858 0.03217309126036834 6.423099310321705 0.2033943146623723 -0.2548577726489869 -1.5437469023055992
Ni 1.3779006969207535 1.5292577438275612 0.8455047770105305 1.049619955474502 0.4217647910186027 -0.27493731700768137
Ni 6.4919888569083515 6.702161750289491 7.082242922029164 -0.13510632891925117 -0.7692411557362752 0.44978441615998016
Ni 2.0547768747207695 6.372143566005287 1.9256070311122728 0.45707580761507083 -0.6901306254563534 -1.374883017319929
Ni 1.3247926402131371 8.36402498810436 0.040851858777451754 0.6927454373713811 -0.3470426196143636 -0.3854099065386523
Ni 8.455386212767754 4.588779412371047 7.771053319875068 -0.6035394705286703 0.7184762664785819 -0.4788857044013107
Ni 7.784821533267474 4.8282961992964575 2.9931292799797773 -0.5215300214343986 -0.027690781047049084 0.41016345933424847
Ni 7.276938009217579 3.22639219532906 9.42958884307915 0.3607931364312367 0.7797621098722571 0.482619203301814
Ni 3.3236715930358285 2.8393235546746527 12.159181054198589 1.7102535999130029 -0.6006688338490944 0.511973488094215
Ni 8.317612607853853 5.953243020882657 5.482853455572776 -0.5246271723024836 0.34666621011155135 0.38214280575160636
P 3.3203694903021996 5.946300372752949 9.453138049416346 -0.908035989250707 -0.06702943074567166 0.6437286411530462
P 5.6406226188681545 2.8012990641935023 11.106224645754992 -0.5143131919709852 1.764734761680019 -1.4904546186403622
P 4.023799696456024 8.901984173617334 12.153826342452698 -0.462294632811849 0.8731798008034704 -0.3126592570384873
P 3.661336752071594 2.5145558052079084 0.8134707216547361 0.4363627434374356 -0.6456672529366557 0.08968007826565201
P 1.1012649823137197 6.493507275339882 12.19903679389656 -0.14209638708383915 -0.7318429175934751 0.78606645482373
P 7.389447326734575 0.3506055599700169 10.552509582240146 -1.8858470903130231 -0.3663773153872335 -0.6733652330725565
P 7.167346616276837 2.8059640846759137 1.8543575329874649 -1.094618117451747 1.8661239008524828 1.8011315551414981
P 7.0286400072664525 2.2413959882152215 6.036448692090918 -0.3237293988097199 -0.42942642132891845 2.1749738114472095
