# total energy = -381170.1700359993 ev
CRYSTAL
PRIMVEC
9.23707862978238 0.00000000000000 0.00000000000000

0.00000000000000 9.23707862978238 0.00000000000000

0.00000000000000 0.00000000000000 13.51939827290068

PRIMCOORD
 96 1
Ni 2.8171427330636054 5.054566407536632 -0.08774116306150716 -0.5740232062371082 -0.310357091267872 -0.7508749945242618
Ni 8.761830991492884 5.419652705684084 8.265814645160502 0.06917090256870669 -0.19737150550706006 -0.3290490112504204
Ni 6.168216325650971 8.284153941191823 1.353521148662423 0.14793921901786133 -0.8095126016618122 0.5774646278184894
Ni 7.951748427449941 0.4988558243217189 2.2211562551918944 -0.2909419199660538 -0.20536583656644633 1.1747511754589124
Ni 6.89240329495469 2.2750001105843474 3.4924794117147386 -0.1832558920412844 0.5404443418403984 -0.6660255048780336
Ni 3.632453483645145 7.175990847819403 11.753007676740898 -0.23400844000380344 0.8875764358447746 0.2697429172909354
Ni 0.45876690280669163 9.215288421468507 0.8966515418186777 1.1114102493084215 0.36228874714015674 -1.1317391906737606
Ni 4.203655955683454 6.868285282494843 9.564352082920115 1.4029394092365128 -0.5381167221484862 -1.397978979907444
Ni 7.755072547980365 7.9184949441655865 8.193728483062975 0.6077427099767405 -1.261807442948472 1.1520123391005
Ni 5.675113353937446 8.871909258242788 8.860437730217555 -0.3510795086878986 -0.10574098838325659 -0.8951994996076713
Ni 9.037012802749608 2.4032199998816037 8.88305564109813 -0.9411132314206502 -0.23176926626063957 -0.031812773635222634
Ni 4.1877866544938644 1.0169284671503185 5.0950830057950105 -0.37472645868287724 -0.15448319078396622 0.912936254765802
Ni 5.528419307259993 2.9769257202449286 11.116392831958658 0.1807549799963016 0.13155409279161862 0.8900264400471639
Ni 0.8348434771796219 4.234489324351002 4.218241302935119 1.1284885449469468 0.38204176139736784 -1.4310415667893677
Ni 5.456859658647799 5.378926425739439 11.37510031337159 -1.0290459879778924 0.5716431360407058 -0.467247348831434
Ni 1.7083515183402578 6.06867756568647 5.493255596102526 -1.1800702736789805 -0.9867042897868876 2.5524806610887008
Ni 7.239117043587536 1.4129959272243597 10.539519717312498 0.05566644032436865 2.984501839727989 -0.40580235415207533
Ni 4.140363492498898 3.838218648545778 9.152646248623736 -0.2750288482802231 0.6026848358378588 -1.2015780658437694
Ni 3.6592410118464307 7.7394526479154075 7.2016616132070554 -0.5459015083002277 0.23381277905322959 0.937431925914321
Ni 5.174057257471746 4.846196386445391 1.3177976705363363 -0.5680965563400281 -0.7930230886472213 -3.242151573299816
Ni 2.6732105729144915 3.5190591056454967 5.5993425211504375 0.8873260103968653 0.9887814840308907 0.9343018649257715
Ni 9.102660721000136 6.704401032375116 1.6103765957979905 -1.067921067776535 0.24080000900434012 0.5280791354068259
Ni 7.04816815290582 0.4433594555516074 12.883148551440668 1.028593473821506 0.6573158929191776 0.40115868473247684
Ni 8.22274584206005 3.3728823353746886 5.030595264627957 -1.4416802774501365 0.6056891698818214 -1.2915844171005884
P 5.581070655793554 6.979915378464683 6.670173960996825 0.12190448551699651 0.062224553157860574 -0.04085148679872319
Ni 4.192608409570095 1.717274536354893 9.751163686056534 -1.7100592245140096 -1.7977991483341553 0.9048015414738095
P 4.801507399742696 3.2324417909704315 4.695287460761645 0.6059177409528597 0.07160059505612185 -0.5181546772042624
Ni 4.094990961973135 0.901473296894909 7.545122062725247 -0.35200999092196794 -0.3432520422236798 -0.18202870450240263
P 1.8898785887580725 5.305011322061271 7.656887020043963 -0.12239530911048599 0.4816483547481124 -0.5094815749102968
P 4.2120801714488225 3.8363435215716883 12.60393198421211 1.7503005885325598 -1.2292235954751798 0.13665439013266145
P 2.8039983700875957 9.152836532444752 0.9634975091753131 -0.26885948624471756 -0.4237432549012122 -0.23648672634096693
Ni 0.1287824273894836 1.2634106749169056 12.406819190920492 0.24925662441212554 0.37761072220920777 -0.9114892379066303
Ni 6.508371748413847 6.774750623678906 4.275347694520914 -2.3081392145900055 1.74121996638753 0.6137727182209043
Ni 4.8454758943075635 1.0577101695671032 13.038648305233393 -1.421947060687267 0.2313013254852855 0.14542416590549148
Ni 2.528206911637326 1.9619555137769107 3.974784238439539 -1.0510546310384996 -0.2797511934565569 -1.6094077348385185
Ni 6.188888907759411 4.5645578571842895 3.268125549658151 -0.8663332101952823 -0.5374909156390292 2.1878414114384963
Ni 3.089276308352596 5.034420338913527 10.56100239122206 -0.9648841085880029 0.8535838809494138 2.038344361015212
Ni 5.737574480039892 7.624155431705598 12.807439607080884 0.3876971599109323 -1.0416670191760125 -1.290925443360351
Ni 8.318774512122312 7.637650803671833 13.085290934079046 -1.3302440384543155 -0.056577639284728365 -0.5503605725128456
Ni 2.4808022237997402 2.0219041544756498 0.20617529119447345 -0.5759787873015823 -0.24289648652205265 2.5575850721948017
Ni 2.184800037175536 2.482972937291914 8.14600511601058 2.0058142495979907 -1.4943608956733039 -0.6284033236498855
Ni 0.6961164108723783 8.760390007217229 3.0981725388390293 0.5969271074184752 -0.7560675944687947 1.562033102209297
Ni 7.574339866329898 4.27181635933769 10.231845558055483 -0.20522751121636915 -0.4093785015391078 -0.7472019165480487
Ni 4.035781287569604 5.493992714981995 4.67941538844845 0.3411316534465673 -0.1346864677730132 -0.13483713441826456
Ni 8.653055152838284 0.8160672673262588 5.679269115640122 1.6792604939655982 1.3593581822114524 -0.5557007537788364
Ni 7.409642753285443 1.031532288559364 7.698838136622914 0.7009287445131219 -0.19173976114257946 0.7440160626208993
Ni 8.27163769956674 4.290290516717886 2.4486063860254026 1.27481182562794 -0.8076848044244542 -1.1312535092865936
Ni 0.5499525725117365 3.3490506723542346 6.687965498261824 0.7009642257367475 0.4196464591240192 0.2920855466521938
Ni 5.514859275742928 0.4220735314181445 3.2187662959697407 0.045900104966224174 -0.6892222547094711 0.10984164081519146
Ni 1.265415120992657 7.273303471819589 13.491548739364003 2.73493462605398 -0.4572038485525029 -0.6832200143794491
Ni 8.047130502003897 6.042749085803364 6.126964455928861 0.7834804392641087 -0.3990010149595257 0.18399405575888958
Ni 3.439352353628637 4.047420006719127 2.958031275784332 -0.10769014168982742 -0.9853084378806256 -0.03601909840708635
Ni 6.693898473904475 3.241965219099923 0.2056367695068407 0.4260379644726598 -0.46334672822544715 -0.6887306597850332
Ni 2.603710792850191 0.4248899167107555 12.026789146868202 1.2573157257257057 -0.7061509121440096 1.6535193804457522
Ni 0.13092912447706245 7.759838880584455 6.381683366763409 0.9161277651199061 1.1275174392829292 0.13662585088757115
Ni 6.1757260706260215 5.0618729367805 5.84634200532367 -1.7021872779651006 -2.259768536596102 -0.383161733934424
P 1.4501936431093863 3.4909691493489072 1.8290662812018095 0.4351862066308312 0.005741787579783659 1.0389740457248815
Ni 2.0312613151887193 5.691148922543457 2.0571796342852666 -0.6391780456678863 0.7790044057706261 0.41771993152526765
P 8.039399067140286 8.409223986655757 4.184902838526815 0.6303990139236756 0.384187346985461 -0.5272440411000403
Ni 4.42485627907524 7.8573916686305845 4.856019095924442 0.7842412286895332 -0.1728982029560442 0.5813698764101665
P 1.662877379948903 6.385860373747071 11.552636965795282 -1.2158119500549642 -0.11685252491538584 -0.5777644184470953
P 2.511811096962401 6.877023558935676 3.8650468198933003 0.935370415399602 1.5907440969907443 -2.1787574468593576
P 6.285887471084136 1.3313032032891292 1.2328119280480856 -0.19872904797621904 -0.12454989355964356 0.39863643253125536
Ni 1.3011626155233378 4.102232831666172 9.244240197206883 0.15775620510828314 1.105996534492018 0.6810152934186464
Ni 3.76332441452646 6.940879483920328 0.5800386615132562 0.20093145494417655 2.234950192000841 0.5166063588805361
Ni 4.008328689702632 5.282066418595067 6.974386986868659 -0.958848186806568 0.5863439325859902 1.2941722324324227
Ni 0.2280523883641026 1.954861437342915 3.7028548025895995 -0.33604009785627287 -0.19184954724756637 -1.4227353609165174
Ni 0.6585141109407255 8.487970082488845 11.274948211382066 0.7004029539166389 -1.1541910919193734 -0.2552151559884056
Ni 7.378938703719555 5.312493355800251 12.571823898685329 1.0961420102954411 0.20352801202675913 0.7787439530203879
Ni 6.267884404717133 1.5735640660943413 5.7144743936516935 0.820681216684122 0.8879587588848579 -0.20304927261812775
Ni 8.872620513301925 6.467497675210161 10.435799331824988 -0.64579580809472 -0.07190167123630843 0.5805666637825807
Ni 8.457755598093533 6.177305611082028 3.815430775417305 3.169891747393141 -0.45979192099465327 -0.047389287917240966
Ni 3.1616488198895176 8.959421341752781 3.2815775073545415 -0.20607391837706446 -0.013271777408241661 -2.34978157272114
Ni 7.529059706591036 3.4275196558266208 7.037982426234248 -1.209681154566878 0.25345266477134415 2.309510383905919
Ni 6.05170905213276 5.111208174064316 8.471268520509279 -0.10281661564761004 -0.8678139085058667 -1.8952722402816649
Ni 5.965831931550914 2.494094380034792 8.670341421898936 2.037976179042516 -0.05614466551236782 1.1713948573921695
Ni 7.59895668103901 8.605234796459646 10.83494643393431 -0.7816598411156022 -3.927416900244068 -0.04298524531227436
Ni 6.992182218965134 8.62249889653144 6.069939350635538 -1.8168528225314968 -2.111812605407692 -0.09902012471965527
Ni 0.532833494575377 4.74093987477172 0.2561155571324907 -1.0457375897009602 0.2437012418115351 -0.028952935588924332
Ni 4.799927859286688 6.573465441942971 2.6006856495791832 -0.6061164872272271 1.7016272916965727 1.1331121597618872
Ni 1.5377242007767593 7.129897825155811 9.042503322323002 0.30852466604482354 -1.087163975166547 -0.3478453180213171
Ni 4.816138932387811 3.09155786678905 6.93290973242651 -0.6165333116851769 0.5315352122762265 -1.4295135601806155
Ni 1.5283855142210696 1.1803231520994701 10.25795138984944 -1.3450201683222256 2.1718730610346983 -1.4404826575976093
Ni 2.4000978672843503 2.989737548388095 11.786928077106678 0.13773553901198216 -0.2161115051187246 -1.9452321171395595
Ni 0.5174888594553855 4.360954168697139 11.321468910789008 0.6285303361460529 1.0271125184006054 0.923961659342028
Ni 2.1613840426961364 8.644400010105663 5.4402329170056225 -0.28617920847008776 -0.016760250177474362 -0.04802666439092374
Ni 5.169032286664332 9.108341524394548 11.011022704217096 -0.11658178775250244 0.09439316747060517 1.221598217719438
Ni 1.6542130001375908 0.07006231815652773 7.949717193845988 -0.6079296291765659 0.030350587267399344 -0.0913420393491072
P 6.998167845956317 6.11078017035594 1.813438067766032 -0.38002190275386166 0.14126746342464058 -0.03562854783688703
Ni 9.086745234417098 2.401335635828824 0.8881654376260841 -0.3588131298867304 0.02100385594517673 0.38410918544935785
P 2.028333161243958 1.4050889878656356 6.184097635042858 -0.350834482556628 0.9306807232334167 0.17139462182732418
Ni 4.506936960315455 2.4347184382148397 1.5025050671471518 -0.25891317366528316 0.4086758190451284 0.4161834402760832
P 6.678823561482234 6.419732741303662 9.87240588611129 0.9703181351193805 1.87650704385902 1.1513258545564364
P 8.241497111800948 3.1014323039087652 11.940129645721305 -1.524573414700942 -0.9109187101151408 1.4751421566530076
P 8.892378624620045 0.20859540581127922 9.346770846959107 0.8161319067505427 0.47661516319957914 -0.45567275661995715
Ni 3.0582027756391046 8.845611295212077 9.886194997179869 0.6236817498045001 -0.8020744002162122 -0.740752561378279
