# total energy = -340868.14822500845 ev
CRYSTAL
PRIMVEC
9.30037129804064 0.00000000000000 0.00000000000000
0.00000000000000 9.30037129804064 0.00000000000000
0.00000000000000 0.00000000000000 13.61203349062392
PRIMCOORD
 96 1
Ni 0.9258826699972175 1.2345127067620125 1.0128513735500981 1.9517439501161484 0.7900416374213942 1.1107595030982997
Ni 3.2781112286241565 2.850136035182433 10.551653665821025 -0.23186542551887163 -0.19764841331753058 -1.8948958307788528
Ni 3.7037334280866823 6.065386053113311 12.407531630074752 0.05513884995567279 0.8386151754547234 -0.8955928783913479
Ni 2.86607687186364 6.486218561274307 1.0883648095765823 0.0694552665783449 0.6002291752085147 0.0745275388949297
Ni 7.073062699983465 3.31557312486214 12.867155987592408 0.8194812828387499 2.102530408774818 0.9148190736108117
Ni 9.108923312791488 2.4586368986040084 4.197229738459039 1.8882243322959482 0.3808976204905956 1.0573026688307403
Ni 6.852160277082628 9.6971253057337 9.29496329327721 0.22394694200274334 -1.2612369151569824 -0.32345120544766875
Ni 5.488344505922234 4.047140343849166 6.221611832812018 2.455720793158132 -0.12304579821029132 -0.7499787079622373
Ni 5.3280433034500705 7.647900059138691 7.616586638472439 -1.324445172384351 -0.3527676950235989 0.8341941635688924
Ni 2.0940437366572833 3.8451734772394244 8.032502040242914 0.1927561182222358 -1.1735234736993982 0.668035593329527
Ni 9.367148126358417 4.564343301071229 7.033201307908987 -0.8537376329184587 -0.26387565987688105 -0.45662432189994906
Ni 2.3982681874618166 6.952362479184919 4.77879033614218 0.7322964601911259 2.1203746360450904 -1.7672012209426404
Ni 4.14045097070013 8.774193643600514 3.719705886030851 -0.5148047868954231 0.7627622328801509 1.8825306243452806
Ni 4.223363782259618 4.47886358698898 1.0774238525918844 -1.1277835484601222 -2.6971360671489677 -0.02131547364832458
Ni 2.0057925118801676 7.187726979704937 10.489542065067365 -0.09186423040116437 -0.9964024909112582 0.557623424722846
Ni 4.511386985982085 2.987335114949743 3.246932663344064 0.17959798357372295 0.457621909926528 0.46513184515032796
Ni 6.882237678381942 2.1304360901774486 5.75854354774299 0.11172060300545922 -1.4716986781890977 1.0024952340725575
Ni 5.965834877013169 0.9480891669305422 3.4329001009324047 -0.33772339909596677 -1.5700086642156057 0.8021188803009025
Ni 7.009727170345763 2.954607107784534 3.5632085354855336 0.02592211918240052 1.6954031651637316 -1.101336410012187
Ni 2.819296003423458 1.1310088727916767 8.258380161874467 0.47129092277318835 1.2485708896535401 -0.025168785956143747
Ni 3.1213627680494382 5.254356460378189 9.621815547842175 0.3305068267428695 -0.5201909909080009 0.3808811654303634
Ni 0.607756023935351 8.8498893669076 12.491436791268947 -0.9676220763444561 0.9409011154098441 -1.0538645896834689
Ni 5.040829232044562 6.520648536416564 5.424994095690198 -0.9221955685805409 1.6677846321155148 1.6614008400763578
Ni 5.591243815747717 2.796612397434272 11.032240130570754 0.3586802038532919 -0.8726897485409293 -0.24229510549262787
P 3.5372288778511787 3.62294110121991 12.510534174023434 0.010711987100865421 1.5223887483447975 1.0566107849700384
P 5.9322419353022475 6.756347850309117 11.333991612604263 -0.24842178721565605 -0.8220811823554424 -0.6851426853234588
P 8.199979409333059 3.850056172255547 9.39697255755404 1.1695050965686247 -0.4510506844669135 -1.8751929530332865
P 7.569116612507124 4.19334218318906 5.330772032436224 0.7617402193735398 -0.08774172359235856 0.7154307947840388
P 2.563777597951178 2.6293824182249446 2.4294755838934337 -1.0889462638779503 0.49020138652444606 -1.4640928408173817
P 6.427170502879333 4.538823081786964 1.713646453489802 -0.3014937273399711 -0.25804774034119426 0.4816331852394608
P 3.920125170829768 8.366186347681865 1.74758071883328 1.1462587244461744 -1.5187377818557715 -1.1599012549302734
P 1.8524665880024649 6.98623443203962 12.716810832767406 -0.33827772893754 0.05230883670604539 -0.39760079217788946
Ni 0.9819239182994058 2.5859310827671846 10.565429376026511 0.28908558348360536 0.22447118993732953 0.23585732028708412
Ni 5.977934660281694 8.889983268268558 0.5931730414871987 -0.1116576109780077 0.36122019666632627 -0.33969826343415044
Ni 9.162009833081061 6.73898405679464 11.66239609916578 -0.34486926611212865 -0.7789355002059036 0.9443145119667673
Ni 5.135655819443389 0.90803246705542 7.560341712035293 0.36018198520979905 0.20770168378847453 -0.36715815941731605
Ni 7.088157202861877 5.513846124463583 7.670979860952042 -0.4701028160023581 -1.0796334711174567 1.0720785415883343
Ni 0.25926552513322443 7.654187110245165 8.78701699576857 2.3822651471711422 1.212044512592732 -0.9291992535918836
Ni 6.5983252388444775 2.5619454247736995 8.582074010291858 0.0030611554238269864 1.5216737245556438 -0.4215511323458998
Ni 5.6672371509415 4.847818623150108 9.808069436871461 -1.7022908934225005 0.7059501089871132 -1.7406247560056924
Ni 7.7343842133385445 7.060860612628889 9.784588789048215 -2.6005016690526697 -0.4068302811959574 1.0592379381802401
Ni 4.687935937393612 6.639590987009306 3.0580383988574873 -1.060638675182509 0.546164017932995 -1.4674141918811308
Ni 9.20512635516629 7.407969076232166 4.172115945407543 0.9378106494099784 0.5422230310073758 -1.3784938745996387
Ni 6.1204535525237125 8.669657468398198 5.788939021746211 0.25793049803703966 0.6621709070186338 -2.0600676116249166
Ni 1.7274044929895163 4.951973483122593 11.55397608884207 -0.6610308798769197 -1.119151326706421 0.5226116845343516
Ni 7.871750699792121 6.564871802705445 2.2648794698813743 -0.8546002380290703 -1.0771279310867836 -1.720226394854999
Ni 6.048291970371153 5.2011118337738065 3.9951866088033317 2.5730595136813172 -2.002688045264183 -1.5974258798862941
Ni 5.511669837542111 4.781878989503807 12.610433184016152 -1.3070136071714653 -0.18814355915088887 -1.639734667956834
Ni 0.020397574684494615 3.731513637635554 2.036891093965711 0.49198933166280434 -0.36743532433810266 -0.0364808685348533
Ni 4.468205361296644 5.384766268980225 7.564901684161778 -1.21859491211674 0.8935149128163966 1.6408440989709292
Ni 8.128608358754537 0.25727524564093834 4.584546497992226 0.7950894842579468 0.29486568050049217 0.532939805933237
Ni 7.464775745105453 4.847837223893027 11.034459199200938 1.6105457050977037 0.8592778460103976 2.004862684317999
Ni 0.5447943692303119 7.30306088617148 0.8113671962190933 -0.21793056060533433 -0.8310108807449043 1.0960921308941123
Ni 3.567352781007789 2.9007765577782165 6.341751241211569 -0.737659267164936 -0.6066944712178841 0.06009182308557393
Ni 8.04154758152421 1.9522502733890883 10.899645664712931 -0.4500456402411669 1.000473318546522 -1.936347155945104
Ni 1.7661684412317984 8.803238703667848 2.544116612686258 0.2026090997569156 -0.5094067558083034 0.2684681643435699
P 7.956700292701191 7.889412105193295 -0.039355451867092564 -0.9009968230157386 0.3044942047291917 -0.23417504748865475
P 8.396979877583544 1.8452960016073594 2.1293442265681293 -1.2893249316424504 -0.17270588443958 0.273265071511581
P 7.072718586239471 7.8869103052707485 3.578481605495964 -1.3754394040440312 1.461678060728302 2.1015585317798515
P 4.734140182803319 1.1155609557978112 5.445221473576987 0.759435482499763 1.1608461353420458 -1.786653159019665
P 8.935322579132553 4.325184248995824 12.751140363897902 2.221796428227703 -0.23270103404628956 -0.42967504700461484
P 6.321118367129155 1.500047612295938 12.806895160759145 -1.3779480293984978 -3.299919119127588 -0.08215651619509722
P -0.24811995997642236 9.125487274360466 10.228721517826148 0.17505098763298885 0.7034702799880529 0.4835540564112575
P 0.49153765214303236 5.654179429412671 2.58762003022419 1.3639275467496896 1.9920238806821178 0.044466714953807294
Ni 6.263958284140415 2.167935187901269 1.424839228453318 0.16459019731098107 0.5375220259872807 -1.3388178961662554
Ni 3.90704884855802 1.1644437081877912 1.4031014702415412 0.4530705431104197 0.9649306455552221 0.3784748699817159
Ni 1.2052351374081967 0.1662515801318114 6.813367497688822 -2.396425497831925 0.39039630400965025 0.41288034404477925
Ni 2.317215450194185 5.353303112333478 6.227437585494111 1.627811948377319 -1.466102929268875 1.2317160228797304
Ni 8.469894789824306 9.116447313302045 1.8908203898633928 -0.7637832179454975 -1.7729689766643528 0.33615296928505334
Ni 9.4682431641208 2.166549432553836 8.271420212697523 -0.49795609076920055 -0.1728686352696894 -0.38936683430387137
Ni 7.464961752534639 5.671692028870496 13.530075304764193 1.8147265202171134 0.6955368840735892 0.37694712048327983
Ni 7.709496419313509 6.350042522367517 5.61652966567121 -0.8832675240567756 0.2421087005134346 -0.7203950807678497
Ni 3.9831072863520176 1.4085133563936967 12.343269783439707 -0.1527070727201499 -0.11619869338147083 0.6161332480332807
Ni 4.7057089472522975 8.4678859095891 11.923161774215389 0.43253822748502285 -0.09962613373477036 -0.32275649337348933
Ni 4.280254154476039 7.309664149907569 9.691754341215967 0.4600040370054594 0.5039030523812547 0.5002482292374869
Ni 2.1795792529682885 0.07247872481932106 10.14342874121023 -0.6395508556262727 0.98394138232977 1.2745793979021598
Ni 7.574352721638699 7.84977392203384 7.548580462287886 0.9007497400019391 0.6454551369258497 -0.4247339009492556
Ni 0.5597586669082947 6.9894709613074495 6.489509962733747 0.18458078150029503 0.42020001763464404 0.5086197411306338
Ni 2.6224350407448616 4.998838054905909 2.919808837932489 -0.29271366715449587 -1.0797193459630436 0.5898853700803454
Ni 2.491950829171152 1.883474026447707 4.473431240019614 -0.6281660108280988 -1.4661337825068106 -0.5517499966612046
Ni 7.370125864764352 9.158605897126966 11.640548596570785 -0.5612065140884142 -1.6574647382467456 1.5669500798949398
Ni 5.422525777104904 6.258052548263771 0.7169879566874579 -0.09667090776118835 3.3433427375288614 0.734457986618819
Ni 0.7412293748960732 5.438782826415727 9.215387454997312 -1.0949963267267722 -1.0631956372764078 0.6423824115377968
Ni 1.467812524818071 3.642974101343201 13.854328105506287 1.3954613556919129 -0.3002693680145668 -0.892033957395496
Ni 2.4989912103658276 8.84923834090545 13.858547684037363 0.7178093223185443 0.18906761362705504 -1.4455233053453105
Ni 0.636643907725023 5.267116570020323 4.717250708233265 -1.2510964842888712 -1.7632543204797504 -0.6600551462272116
Ni 3.1904273265060574 9.051967837974852 5.924732815386024 0.8570289020752209 -0.571509438676319 -0.0337092193269871
Ni 8.68461246570472 1.7917444627448205 13.089454396249286 0.5544817937700709 -0.5188468181752807 0.17389553387230697
P 1.2344755052761753 9.15622500203339 4.546269889214409 -0.1786926981506342 0.25546095345062453 1.0196429494964376
P 4.036658825214556 4.741599080713661 4.676033322000024 -1.2893627268589214 0.0680226478968764 0.43741766706451124
P 2.758648281137488 7.4028631723010205 7.252491976435931 -0.08946899069611043 -0.9244185443737886 0.349802698858004
P 1.190847462760689 2.856962507833545 6.010189278539625 0.32909374844542677 0.36882911936183577 1.2459563348488285
P 4.259579428722057 3.115159420286098 8.462941832121347 0.34752470145710473 0.9223655184995018 0.3134825242707311
P 1.7613694495588095 1.4677474222178561 12.49524808349296 -0.5461408780045433 -0.06172344515172597 -0.2397137179186968
P 8.255539828430802 0.565379811418284 7.057608272729579 -0.6583754445319436 0.45197499605339575 -0.3731668275052412
P 4.597471224209188 0.3954731853029752 9.63017379167263 -0.5676003334299 -0.9633864409965538 0.9573960277410737
