# total energy = -340894.4776849297 ev
CRYSTAL
PRIMVEC
9.04050465150278 0.00000000000000 0.00000000000000

0.00000000000000 9.04050465150278 0.00000000000000

0.00000000000000 0.00000000000000 13.23169238569358

PRIMCOORD
 96 1
Ni 6.46594073341395 1.9256094208007677 11.140886969160716 0.39116969184056505 0.5384928745409823 1.3791214808813086
Ni 4.6211263031468786 0.2984225400047087 5.872449680649469 -0.5160301746620919 -0.14775769913467457 0.19705680248011867
Ni 2.6325497670873883 1.6681358468498109 4.847245598685732 0.7118536189557418 -0.6643578873676236 0.34773296081316885
Ni 3.359668519871851 4.338664774195906 4.82272684587982 0.0021579268832672516 0.5166834919753747 -0.8389992982670196
Ni 4.836254153067419 4.848494996435733 2.329426164636946 0.040605175115872 -1.0817569452183626 0.8696607319066184
Ni 7.085721573855725 6.019403084602166 2.939420658737363 -1.0781172915832464 1.4264431487854077 -0.7024775770574806
Ni 5.1944389494135175 4.514448347647535 11.484156740847254 0.0835647093965335 0.870601755663649 0.5610213946608016
Ni 5.684497587867152 7.7693916610359635 12.569247838117287 -1.390698901306263 0.6822219121322379 -1.219962481888228
Ni 1.841713537153827 6.243987302442392 0.3195095172252356 -0.012168002821101625 -0.20123535933784054 0.024739411728209006
Ni 2.8599998249185727 1.7077875004786345 0.27608706908465136 0.04565173640084396 -0.7896078923180853 0.7668538864510213
Ni 0.6409428538513406 0.02510005725833694 4.68436282544576 0.0068648454406333385 0.01365590022053777 0.4997988004048941
Ni 8.643834478465958 2.3737201174309317 1.31200595722278 0.35660172405770846 0.051797187176949505 -0.050227528696984464
Ni 6.974767459631705 0.5459615033371714 4.907807035642897 -0.6225646054809214 -0.16045946297205912 -0.44256450137277326
Ni 0.876523037562233 7.420952528760059 2.144671698368198 0.0607885920422824 -0.5359585381549028 1.6099859759394917
Ni 7.641495640997896 3.959270953815785 3.8783674772256482 -0.16257496665316518 -0.6889008668143103 0.6119539198446106
Ni 7.534654956413892 3.8673832640110968 12.611351276621654 0.3236494375014039 -0.736595344676796 -0.2933759833288432
Ni 7.903371940739376 8.806455077069534 7.054516463771227 0.8340069872587509 -0.7855512057502083 -0.5080504988907251
Ni 6.821051758160915 0.5619984546304159 0.4692211791629195 1.1675240615828537 0.889834378641016 -0.5800393305242011
Ni 1.957169822720107 6.4613210355105455 9.141710441336565 -0.6571436290073714 0.5107169899792946 -0.26591557312504527
Ni -0.41216926613158866 5.073648766072269 1.276220927455572 1.2777498252103414 -1.001766583436649 0.005347123244526275
Ni 6.450535713399468 1.7947209937058959 7.016872706237014 -0.7856399088092728 -0.02268150075791578 0.5262767920907646
Ni 3.4538796193852965 4.085322710894373 0.20815671674379851 -0.30433582477445653 0.6898755720227538 0.6820509337720124
Ni 5.582692464402905 5.316286871805055 4.8704010433823814 0.38807074120026713 1.0123767548523273 -0.49059527952875515
Ni 5.223739225157023 3.2373414507310363 9.03011445127861 0.9032025724178058 -2.259689089508418 1.0455740675399023
P 0.1513678823993347 5.500017048890915 12.301795355074791 -0.14060231903681591 0.418908295406414 0.7740802289961314
P 3.9625164950042824 6.052012185067091 12.632164326549672 0.7192149444168194 0.6102942727540006 0.5985111640761435
P 2.4531590322591286 8.63694561388202 1.4133563433004481 1.2814547848657545 0.6794181241348557 -0.8179345071769204
P 6.220924974944187 7.682729382949803 5.703163517928125 0.7848850329211192 -0.8130751222020901 -0.13561746422771484
P 4.798383478865151 1.1751480848722964 12.57014736833527 0.4510882225730683 -0.9826306339381464 -0.11458892569218976
P 4.111603458066965 6.298817963468114 8.21677550108798 -1.2343064093147258 0.9107906691777089 -0.023200606486179397
P 4.862977884970474 1.1171713282098146 3.768769438707128 -0.9217039736561028 0.6552361275720134 0.5599893538518614
P 0.08415715423286729 5.720279905482949 3.364858673622035 1.1518015086412745 -0.4496877426811159 1.418481727846486
Ni 1.4947118451257522 1.1626360263628819 2.7282959442994597 -0.42806785041849504 0.28512737016680567 -1.4293178992300417
Ni 1.6117863810339292 6.542314917147715 4.768675476359524 1.6980465163238498 -0.4479715313209575 -0.8059901903308506
Ni 6.000255295640503 5.656535306819739 9.25047494532144 0.4552536668046676 0.2227776042849905 0.4763953338792892
Ni 8.675078462720682 2.2841829588491103 10.089535939493997 0.42527254706154505 -0.06366591359007745 0.9568123873234619
Ni 2.3719933810325946 5.157445204167474 6.945950850889828 -0.3801008356209131 0.577633806406502 0.7672387805942658
Ni 0.5875116629536953 -0.0838434487196616 9.238804557799906 0.34811836917704564 0.3228842772006052 -0.4026249848653582
Ni 1.6704773375679747 1.1454500269218437 11.505326890711054 -0.6275468891868611 -0.07812065556282675 -0.9022031846190139
Ni 4.007194669248159 6.996699724041993 1.573195178606807 0.04766053930075663 0.5630291691194497 -0.9444721205905542
Ni 5.722169370965944 7.84424703997957 7.901265503143499 -0.8302508626504281 0.6360276729643627 0.20899340601670457
Ni 5.031583297687656 2.7231627457289065 5.326748543847753 0.2244025414829232 0.15839923800892075 -0.9795154853479325
Ni 0.9736171540255715 7.414515689411285 6.918878155505223 -0.9431780843694789 -0.24381257057841876 0.9212853980614455
Ni 5.003819907743717 4.682583654120144 7.245396776026953 0.012880455507093946 -0.7052302001019531 -1.63949452692157
Ni 7.963771552662351 7.2415979559506125 9.022703949573287 1.0099000111770609 -0.8561529272281705 -0.02434011940726131
Ni 4.751354773398407 0.4194052860961373 10.463940305328347 -0.8382187113472532 -1.0038257799585228 -0.3519868509935164
Ni 8.391604397242936 7.232033101974484 4.941851768254713 -2.2851707787192903 -0.513539032809122 0.022484811366077405
Ni 7.136131428081517 6.044192148498708 6.9918377406125405 0.453472920755161 -0.06053251016741833 -0.5543969473657484
Ni 2.263751418219575 5.163610828375147 2.6406491552511056 -0.547075988224303 -0.28960777453566255 -0.5738553132006763
Ni 2.3557475940807033 5.238204032682358 11.40933119556917 0.30993748723195014 -0.008519864545553068 -0.5612826187419881
Ni 0.9166348528804563 3.27636930953533 3.777952783384775 0.6280212577201184 0.6995190086497888 0.22796300514067191
Ni 3.546734643193241 2.680066659808113 2.762962663634865 0.23484533408280198 0.3127549020760872 -0.34510632182359924
Ni 1.1321152824844258 3.1600903380410466 8.20351669689007 -0.37391296164264637 1.1906418785472397 0.1194331411583685
Ni 3.526086130450826 2.742120684091798 7.306739312590486 0.020378049435719744 0.24826057904744342 -1.102759772722275
Ni 3.993299413519135 6.88912675857702 6.0197719371940615 0.2543111561168975 0.02754499949780417 -0.39097583066220404
Ni 0.9963088208309402 7.29373454657474 11.265754420123168 -0.908707561396435 0.08804511376539031 0.5052770499106459
P 0.2458628537604646 5.439065966181036 7.906479162205912 0.019386889167044032 0.7320609471415521 0.852622802587725
P 8.469280413653983 1.6549909530111633 8.036996024557476 0.8064193074484692 -0.6783066362382318 -0.4784553017321115
P 1.9474603206687264 3.2252271744285688 10.482159634456977 -0.7162481484790116 -0.46507605221172804 -1.336013593948241
P 3.846951723381562 6.385317512469615 3.7099944054793417 0.19005157480687915 -1.524341501195794 0.3249367888542597
P 6.971992024687781 3.9242932411185856 10.367997045113743 0.1844871933452242 0.18920876719060964 -0.4986574877115992
P 6.290563982673969 7.797860210346762 10.250658526468229 0.10284541200301642 -0.3786363352602447 0.7659455157041389
P 2.42940962640347 8.462933979352243 5.726292745161136 0.3246264567026925 1.1061137767961724 0.7505800889916623
P 6.929013465328131 3.8108891501199618 1.79372834628947 -1.0449109800346068 0.9528557166685588 -0.5880552588501421
Ni 5.432592964813449 2.7974033703526864 0.588923789788356 0.05003289618767512 0.4898835981737112 0.23288538214295376
Ni 1.4562444976130653 1.0342970215943503 7.048707939499334 -0.22686411564953834 -0.16341828849006695 -0.3917165654829705
Ni 6.946434517891456 0.6096437225179275 9.16875601520706 -0.8841972349598965 0.0756325990336504 0.3347092948599913
Ni 2.8202125637191986 1.5758684558475826 9.173559235355944 -0.638405686278236 -0.7694054492282814 1.3111194018097225
Ni 6.667652474354741 1.8742593540858297 2.7920061890447965 -0.9785281817339986 -0.12139977796643608 -0.8443489926147071
Ni 4.150079846084356 6.9033113104565516 10.484210924974162 0.007398863567232419 0.26576336381789717 0.08710409000835967
Ni 8.32187498446612 7.234862779946629 0.4206610121994304 -0.6456911641960557 0.4798262139377092 -1.2131138343975107
Ni 7.502226666043033 3.7563116232259333 7.989917596314864 1.4377976545662787 0.5808523133437996 1.4892636836560544
Ni 3.016843541016717 8.200931112544916 12.503354311486095 0.652915706968953 0.41546970203851025 0.044233515897078655
Ni 0.15976651126873212 4.664059659983012 10.251941374085632 -0.4852227023629321 0.6633001355270707 -0.7328551609080733
Ni 8.590694391819762 2.275088211117556 5.86404833962866 0.7552468983397121 1.039897071759783 -0.1068470769632418
Ni 3.875384110673548 2.732637194658001 11.232780987318698 -0.40675983296933826 -1.0132126204900613 0.17527673049054973
Ni 1.14156260989941 3.4605153498375434 12.485570734684169 -1.2677783158199265 -0.7285549908708226 1.016322626873953
Ni 3.115168070170179 8.437557282649983 8.005478113010243 0.5154910143291702 -0.6953851889870734 -0.2540054519510206
Ni 5.582574937841763 8.143677596258701 3.2958958956440614 0.015536147962386147 -1.060318315728613 1.9060533900575687
Ni 2.9500703732778906 8.397977953058787 3.5370034439305726 1.0584128711757836 0.05865740463189253 0.42221627673372447
Ni 3.4048077598555984 4.605305419916044 9.334813813698844 -0.08730720715810125 -1.000914776959315 0.0912106559775655
Ni 7.122326577399525 6.101246773681449 11.52704037490752 1.183142741956717 0.0722251160139982 -0.9078421280723461
Ni 0.6779980745293667 0.1587810962560687 0.4053979281087914 -0.4276461895000442 -0.19208428896619179 -0.21155859564071952
Ni 4.716078724045998 0.5409277503183549 1.6303826992086876 -1.160482324244724 -0.14538379958585929 -0.6429470257920152
Ni 6.108018111704246 5.672392352069387 0.5217890018613965 -0.20428237369428046 -0.6820560759783351 -0.3326218162033433
Ni 8.15664168000328 8.773728450043464 11.235453360509002 -0.7626529609957963 -0.41802769257367356 -0.016200778129578552
Ni -0.023857891912098826 4.923748157586286 5.743189448451668 0.22447196126827793 -0.7194550854520836 0.10803029863806556
Ni 7.994916091365337 8.635083269913132 2.6766394044750785 -0.05408546899049394 0.5181402790265592 0.010215249970104989
P 8.517059481011104 1.5763928051203762 3.7537784738080595 0.7403887502809571 0.34575758225435294 -0.775899027372425
P 1.6988554818317405 3.2149119585620642 1.5403808586851149 0.5450892968115774 0.22068832585612957 0.056414631344302836
P 4.6788408851729635 0.9869699794723961 8.166944239163202 1.1037979841788024 0.7435077555259131 -0.1057247904333405
P 8.544985600039704 1.4473576814896876 12.371103480332431 -0.3086444794521394 1.8355226310268582 0.12511270804164903
P 6.396211320637132 7.647715508233789 1.3710675744496619 0.13249537365896535 0.10090757155035525 0.7435501787280743
P 1.8413338359562867 3.343892839164533 5.935525281964631 -1.277947028822812 -0.8537692574873426 0.2199761302804534
P 6.80373919165403 3.888284910885205 6.014478721690259 0.06568782911611268 0.0238760352866492 -1.0728609282803137
P 2.4915902177530023 8.494340692691626 10.213146760302685 0.3456400828398821 0.4822980725169694 0.2496962830527055
