# total energy = -381165.3732494426 ev
CRYSTAL
PRIMVEC
9.20106041745098 0.00000000000000 0.00000000000000

0.00000000000000 9.20106041745098 0.00000000000000

0.00000000000000 0.00000000000000 13.46668197837531

PRIMCOORD
 96 1
Ni 9.090868345936766 9.043952139755609 7.680438741330185 0.3063698244853498 1.6252184766185298 0.6739010509713684
Ni 4.254588658674134 7.994571218994485 10.754694229540885 0.03329887126244588 -1.1517832538088293 -0.42623311120260143
Ni 6.564993287915341 6.658715287554735 2.3867807901097198 -0.15852702183603667 0.5892058275148175 0.6171066676901436
Ni 2.736146887764117 9.207500985582254 0.9014609958639368 3.862564679655373 1.4409369715262088 0.7811888150164545
Ni 9.200646195700914 5.7144840832553205 9.944444263975916 -1.6079465769119599 1.318537805760981 0.07341887921178324
Ni 3.7568849079874993 6.076177761423842 3.615252067554636 2.024893377716629 0.07149286583366397 1.8992422806730063
Ni 1.473476189500463 0.687029366785199 4.161015716210684 -0.01687183605467417 0.7135860282658162 0.4333761500052859
Ni 5.890960418723961 2.785473771729048 11.552742669117068 0.1037049317898343 -0.5951039381668074 -0.3775351317762659
Ni 5.276127171138693 5.7669117245222825 11.36679476223386 -0.10440118652591053 -0.4630711059665574 -0.9700188587114068
Ni 4.556843487670214 7.477204802567679 6.242628621651259 0.38909044071403315 -0.5752753334766544 -1.8787025088484417
Ni 2.652444842729799 5.827141864875656 10.010713980273064 -1.160318287863034 -0.381668180108033 -1.2197315968243443
Ni 4.683174044812259 5.665295215194042 1.3745574310355908 -1.4374209879531503 1.1251363406452624 0.32428578553382215
Ni 7.968329795180275 4.312168893677406 8.142723010609807 1.0034408858152783 0.06797482537807649 -1.188384964192263
Ni 3.0568038372470205 1.5448580148688524 8.520342803953648 -0.43420713054701343 -1.9948430952984677 -0.013651529345163588
Ni 6.548192151910871 0.8908926580683539 8.108396615159709 1.5618451545682068 0.005533528223719502 0.08640886371354796
Ni 0.8417589963685346 9.159094207641665 2.0101583916962635 -1.164939331574813 -1.508741332764692 1.4494702058082005
Ni 7.968955467276827 1.4643579387992418 12.01750478392024 -0.6652107222862221 0.8875805496098327 1.0162583492949206
Ni 4.743496195768067 1.1230814133108524 10.205670645240597 -0.230916431342041 -0.1106836771005126 -0.11857722091597643
Ni 1.9675179182102198 3.86713201182406 3.7175448548107677 1.723761918812083 0.26877541117134357 0.15138912523967477
Ni 6.531529031810051 8.110145736711981 6.659166139506661 3.048497111633027 -0.7635091383485044 1.5109614803444624
Ni 1.0308131811899184 1.6648306393826997 10.389100221935184 0.8454157433163246 0.5430838363457743 0.7258568752133693
Ni 7.5210018493263195 4.615132204312228 11.892237869342333 0.3296771317527225 1.862671680637824 -0.8277260393460455
Ni 7.988995376486978 1.3302616868117576 3.4322392988890766 1.1928478850596231 0.04597980916422404 0.5087488105093304
Ni 2.149459683463446 6.591602754139288 11.994746881514185 0.58287654286268 2.8606471724631573 -0.08502072511676971
P 6.5367644350885525 8.949503256356985 10.647257129502663 -3.498812460595813 0.3635421599312836 0.4525383247560335
Ni 1.1641917504784167 8.297221693581033 13.373505516656916 -3.382530463471916 -1.3975902291094575 -1.9042608169335202
P 6.993744293137847 6.057324788985091 6.60396621878836 0.8759213681043495 -1.3134830169458926 1.1604771820384014
Ni 6.215113771099361 6.695353909444 13.302644471298304 0.11532169009315624 -0.41026373235753866 0.41229876050969644
P 4.131193239749737 3.458126481883916 10.516791615887229 0.18549275179160316 -1.0016300578587847 -1.8326861900193274
P 5.221951328425484 8.023204918471983 4.235621593088364 -0.14256252808698028 0.28285014409685477 -1.1965513020531393
P 6.38913342348301 0.8142533468768791 0.6869391963948135 0.7280695665939718 -0.4043396535636198 0.18810473549315346
Ni 8.802921165619193 6.744229941457004 1.1771900882842845 0.3837574585368939 -0.5718053726501829 0.11015402984928772
Ni 8.55195304641989 6.033043191002727 3.849491739125391 0.6214654588794716 0.595723059808045 0.5505042971795616
Ni 4.695337846454049 3.9302052797926486 2.999057063053343 -1.4684680870669422 -0.5776435765985147 -0.7823054451194011
Ni 3.685438675197406 1.5972028465936225 3.060505423782945 -0.4208901017231332 0.3515307372927043 -0.51523467534399
Ni 0.5204533721384705 7.939309651172554 10.865471314447467 -0.5297038154944426 0.8625295201784757 -0.4483793082823374
Ni 8.215001019245904 0.58873444020483 9.97028636177556 1.240367270796825 -0.9503761447798147 -0.8618877728294189
Ni 9.013662249434297 7.332131685709805 6.152846516008096 -0.40507601750901207 2.852056859690985 -1.8554965030456239
Ni 2.9857992553486112 8.293992121435595 3.15785632158234 -0.10249831307624283 0.3376166983147734 0.7461493069138181
Ni 7.719882766487668 8.312173416476577 4.359272801487529 0.11163601371145289 -0.95936806386578 -0.3554804659690717
Ni 7.690374966287045 8.459740020660416 12.79333450322063 0.48123055048440344 1.3383386425369919 1.8017761307040325
Ni 1.2179811486614023 4.05304863510244 9.04426405569786 -0.5722476023939242 -0.8195337333432402 -0.6750151099711535
Ni 1.916341621136363 6.21737723191924 2.544260616599811 -2.207315718113024 0.7930092046901503 -0.4972629213569178
Ni 0.5670806650279845 2.937714514516541 6.831674977798341 1.0156705951122507 0.22237162709582345 0.855865735005055
Ni 8.849579742113534 1.1344355216512227 5.670510376140007 0.4427899871200181 -0.848155767955307 -0.3484184169159677
Ni 2.3611852807245963 5.320853524981918 0.32706916836653727 -0.6938553826061082 -0.587159229398434 2.878081822999837
Ni 2.4370020171303106 7.525455162484132 5.681862644268329 -2.5202505974104015 0.577115986229819 -1.1671024006644029
Ni 6.358070644101251 2.4209829712465307 2.275936537463361 -1.0173898917962028 -1.3613500158305005 -1.1759310546996264
Ni 2.7217932337843944 0.13204165523513067 11.910525896682138 -1.37548928344536 1.1655206579995798 -0.09349482402605189
Ni 2.6063199277295754 2.5417744901220414 5.640021742917438 0.8868477852088662 -2.607679160637715 0.01854279599919387
Ni 8.579289396403066 1.7564455962263519 0.9706584895305401 -1.8127819948962327 -1.399820146881241 0.6060537523100917
Ni 4.914617514175041 0.06432461216169236 12.583294540196073 1.591833473400181 -0.46460656877447726 0.7591138374942861
Ni 4.998494379353983 2.2107203425640827 6.700428294168241 -0.46772737379164614 -1.0052722825970624 -0.4960059090213651
Ni 4.548433718607735 5.135010510185484 9.009708553847704 1.4735167052344431 -0.027261406819114337 1.4671802214934537
Ni 4.409479306811729 1.846413563286433 0.5975784993107974 -0.07414161631042071 1.1430245337795928 0.588041117782755
Ni 5.558737736515089 4.272098276317347 7.25036738396275 1.2728909544561433 1.8192274934112604 -0.9329039561369804
P 6.2422937030584 2.545270893014538 4.523983741222917 -0.6402126575799877 1.5022526397165548 -0.647589152549717
Ni 4.9095385289206765 8.544343769598587 1.8895637755099617 1.0579881249335394 0.16385974690285973 -0.36425409839664363
P 3.6381728287269994 7.319379016212436 0.050676679502639536 0.56727688865221 0.14429468028673856 0.106701552524313
Ni 0.3440451245156322 4.489611340471604 2.37585913160079 -1.531207375077692 0.29944378678947786 -1.2222561630184112
P 0.7992813816487994 7.804146076196834 4.028948298006872 0.03620370361406668 -0.5736732790968572 -0.27878548710917794
P 2.151723144283326 4.4863173609044615 5.777677885113098 -0.8069106452625909 1.9515878841542582 0.7796224989705993
P 7.00820835984049 4.943573250761058 9.782777034969046 -1.7444760114309827 1.6302907489351148 2.2057799981947883
Ni 6.174031037112527 5.958671021055229 4.6900812807369885 -0.9261224144387727 0.7698618200394096 -0.10689489948204171
Ni 6.623843269232203 0.7160771139736503 5.472940610063346 -1.9100481130392588 1.313803633510105 -0.2648531932988019
Ni 8.207180118039004 3.0787023606263406 10.286376825059659 0.42491902037686824 -0.26617396899275453 -0.4480522639602219
Ni 2.229812542569162 8.8916653916669 9.606942013399372 -0.6574002251028678 1.7014830528092244 0.6960770728477754
Ni 1.1186741054542582 2.180264833158389 2.282925662824257 1.4080368783640784 1.1385135332831167 0.12084107724948867
Ni 7.305089769654417 7.1180506170263405 11.112368884595083 -0.3241423179774224 -2.4833125867334713 -1.64760815716764
Ni 0.9094116320202691 6.575188062665041 7.925774891554495 1.2705599923301216 0.04430473545464628 1.3786856788954707
Ni 1.713780279877651 0.46309580279308965 6.5008517768524925 1.175072563354073 0.1107996338530866 0.7292959828019053
Ni 7.777352588768018 8.59971575014344 2.0732629432696794 -1.1027235201677008 1.5539626664963364 -1.6098743900622918
Ni 3.810591496628294 0.46386685164148755 5.173589635680087 0.9179360219732385 -0.6052574816610414 0.07695311761728683
Ni 4.59663807322297 9.166326240992987 7.634463803611929 -2.140671438620913 1.4111306867980535 0.2720844209399185
Ni 0.16501641493547012 3.845840758420805 0.16484251489686963 0.3112976008042703 0.700743110864877 -0.6429405980341121
Ni 0.8525711622605678 4.1824891506067585 11.321022247840958 0.8527053349992024 -0.5550433227004957 1.6002360956415795
Ni 8.675569290790127 3.5079502231019912 4.36537310442891 1.3323186615951572 -0.02340449496686937 -0.5848799464459541
Ni 9.074518061884223 5.220920809678222 6.298676880124003 0.37090734204710313 -2.401221119448355 -0.9105695543058382
Ni 9.152368232603731 6.304446865002647 12.348637140490267 -0.5114852356038868 -0.8198574352312461 1.378614202227587
Ni 3.344640604841674 5.867709339488859 6.966610366480025 -0.7953460803534431 -2.151522265292488 1.391232662322546
Ni 5.09564837446417 4.157591081588086 13.230772229418942 -1.704993122845012 0.42693862191005827 -0.12900304423499073
Ni 7.911043994104793 7.642621463623739 8.827679378522165 -0.9453380681352752 -1.4992251657441404 0.2585745593789418
Ni 6.9212399384197605 4.445335838580305 3.110615317974591 0.9757483049960163 -0.2698791857584836 0.34185644742773386
Ni 2.250091679345642 2.7089393526243484 12.827957172810565 0.2924871529659866 -0.4137403780522294 0.558967083234934
Ni 4.424973892261635 4.186740040439215 5.198017530520321 -0.41334365683444296 0.10253456563081695 0.6972415254695218
Ni 3.1456308728369184 4.638870939740231 11.900425892852946 1.329637258108252 -1.558785798916593 -0.9192254302086235
Ni 5.311965300786782 7.369736418924629 8.745371294114724 0.6224103392912442 -0.7409078560092207 0.15422350936467633
Ni 7.045518659127525 3.267866958170645 0.02913883768486104 0.6461611618539388 -2.1192276669248407 2.2488133231361784
P 0.6898577727040237 1.265780656625927 12.904475030006827 1.4797606292616257 -0.9779967347105607 -1.02260280345571
Ni 7.543783674489008 3.0393770291459985 6.212113305353984 -1.9164069653777513 -0.8027817106958819 1.020705586432997
P 7.358593934969857 5.087404224486073 1.109671788112104 0.3573424588784749 0.12131955954780398 -0.8421303876968335
Ni 3.1813217855211136 3.5356270123141744 8.102956028237779 0.6143594439623098 2.106508162475643 -1.5211031967641544
P 2.993583352314537 3.5909989928590265 1.5753724110601035 0.10004213822626641 -0.7182453814146985 0.022395851196696914
P 8.656863535315273 1.940485203215076 8.450020020619275 0.34557143438547583 1.1123738987732714 -1.3722787469278623
P 2.881247607802722 7.360470951259513 8.60325723823113 2.0708639309094723 -1.549256519269919 -2.2172823424074335
Ni 6.14386076057438 2.936407963961976 9.109752601980345 -1.2513736492096577 0.3447036870685418 0.11078497856506728
