# total energy = -381163.8048137125 ev
CRYSTAL
PRIMVEC
9.25360962398611 0.00000000000000 0.00000000000000
0.00000000000000 9.25360962398611 0.00000000000000
0.00000000000000 0.00000000000000 13.54359305389772
PRIMCOORD
 96 1
Ni 6.986456783747892 6.873821847003981 6.248621143115123 -0.2220453541046563 0.7310237641262894 -0.7335249332815883
Ni 3.7466292387187754 0.7801292635696778 12.499734283310852 0.6228733949705919 0.42113667051630055 -0.2826819939501067
Ni 1.2688364489362136 7.988113761060138 9.294033125335453 -0.049063590295870346 -0.9814404702847871 -0.1451228326149888
Ni 0.8644416772366837 5.506721317121038 1.3965612469476483 0.28328234653826695 -0.4492807370506843 -0.6591704296294132
Ni 7.872878560002635 9.162637420373123 0.6905950379732774 -0.9665964632934193 -0.6276965273908479 0.5585734473409412
Ni 1.7307766430091713 1.7149992385441395 8.994367931649936 -0.21396540530999925 -0.31199334131971435 0.1424296020535418
Ni 3.723152831019194 2.790287187896419 2.506431786309733 -0.11265956987996081 -0.5039056234844161 1.6362829619628076
Ni 4.825415052521367 4.441936214729352 9.892998920486006 -1.1499621414396906 3.1120293278587177 1.1859167051574284
Ni 8.521029141201597 3.1861010873610964 12.143348163872336 -0.6883259681474468 -1.1765586609812961 -0.8646601933682334
Ni 8.314664392242841 8.596677400146838 11.878110099554387 -0.10498611249510306 -0.012293729765688504 0.5991236008491617
Ni 7.1527348956729115 1.420003416291499 10.474723390123804 0.07990268716391401 0.5871029222392018 -0.5089930653096525
Ni 4.260102784971066 1.6486971253523777 5.080269641443297 -0.3159104169859333 0.3938004445951928 0.9003920995522041
Ni 7.476305864546092 1.7868165030914194 2.003409266803957 -0.16918604421177957 -0.050547116819932306 0.7751819467007424
Ni 0.7997561696519844 4.569145586682896 11.033463744095767 0.5996601900789221 0.7834745257268377 -0.6429318562833637
Ni 1.2405759250440098 3.5620474868923875 13.346750488202607 0.4530815988540133 0.41015034670812595 1.7534789862605416
Ni 5.420375885412409 2.9164046339104486 11.658757909442162 -0.8958541024725346 -0.6765662565083574 -0.7475333317455384
Ni 8.684262815549493 3.108241215707854 9.611021076298707 0.9835618875031642 -0.6419458382210105 -0.8180741180785782
Ni 2.7323318306151907 7.39331949314292 0.6828368116369238 -0.5667492982835143 0.6977614025287338 0.21309225867642656
Ni 5.743465666583429 2.907928327464719 8.874046946724995 1.3814863815690595 -1.3880588925802546 -1.5245160791004453
Ni 0.23848680416078694 9.374739407319161 7.794080372330182 -0.31359359592729863 -0.19571031575455325 -0.3263550093580251
Ni 1.4240657509308825 8.720083538531393 5.4959769509484 -3.5797479598996156 4.775188031166447 -1.7844592366921395
Ni 7.601349891839919 1.61002629059615 7.9841920812875395 1.3293269259566847 -1.23834535527079 1.4258541090511574
Ni 0.5181586488215841 2.7443707767788306 2.310171053735359 1.2403346177866768 -0.15227487027873776 -0.09361412321273554
Ni 7.416916197768042 5.1406762799226415 2.5110363824750115 -0.40050459608824573 -0.2922986911042643 0.9697260100613365
P 0.1688024966394246 5.515465978246818 3.4940713957136906 -0.12417117006398615 -0.8735204719723407 0.3296413934187807
Ni 6.074855935616697 6.932804354957127 1.701942395318239 1.741190141590859 -1.0824868814058517 -1.4628648819475516
P 6.8295248175763525 1.2022104594064604 3.98918392968474 -0.9410291563472761 0.6168541853597054 -0.15346683370430989
Ni 8.790059334756947 5.570543462924748 13.008946542316135 0.6461110253422937 -1.4824389474247373 -0.18713028739502613
P 6.118764313438736 3.476682937807391 1.351069576513312 -0.1910327077732258 0.16582946903472084 0.5240476456499298
P 6.9282145645673 8.299969660107669 7.915986500589351 -0.9878949676608793 0.5670742857231008 -2.643615469523008
P 1.8255891275538731 0.3511198901827666 13.144707174953629 -1.0918055877036164 -0.4273425422166963 0.7473374136846485
Ni 5.8727663543194355 3.2554383845203247 3.721928578461585 -0.14080157953181557 0.0568486335579279 -0.5568274111841119
Ni 2.327569690612281 5.3865817029453735 12.695493470241821 0.7035008761156722 1.303198090080117 0.21335219720603252
Ni 8.218556402346172 3.716869630062152 0.7850799447361247 0.4465779934075405 0.03909079535387461 0.663564702042367
Ni 5.439308770770447 8.736619738988292 5.19373740305633 -0.7485759140774398 -0.1530747404722138 -1.8399804096878958
Ni 5.999679610763958 6.281775901154866 11.409054805016233 -2.4736570659215786 0.05814189844805471 -2.4151243597930083
Ni 7.660684036960027 3.893650588947765 7.354807820472791 -0.060544594352276375 0.5223142078985907 1.6121019938412302
Ni 3.3618548955747922 0.6045521993004292 1.4468351828526758 -1.4828953182358655 -0.644556022150348 -1.752548761136788
Ni 1.4271749637756044 2.277933328412615 11.51812154987644 1.0966035233128921 -1.3994221401118738 -1.1107049957112807
Ni 0.2585449284531055 7.569489713791176 0.014107127921959612 1.23847750997328 1.2408498668601986 0.5945503796561825
Ni 4.623316217614448 0.9443401190973436 10.03922908708933 0.7987121686121986 0.7136431067559967 0.5573601437591305
Ni 7.653901141081512 8.061356081494582 9.728484546561594 0.8451828013699121 -0.5088611677174786 1.6571438645722172
Ni 4.788965084082798 7.856046244036715 7.071868526242139 1.0689199413546946 -2.0576140078781013 1.5735071642871674
Ni 1.4308579004190545 8.449221130263973 2.298333836262239 -0.0151049739622385 2.7784700874427695 -0.0095552477886029
Ni -0.01815928359072059 1.7255298463337032 6.004416533547331 -0.2538640412771499 0.5051356392367752 0.60178752083457
Ni 0.09953922835745171 0.4975286514524685 10.36948949038349 0.7997930603812032 1.5006354158281061 -1.1082814738714526
Ni 0.10485080030051817 1.6159763616055434 0.2427379124371715 0.25623562683311996 -1.274234098747599 -0.36342620317870955
Ni 4.766756420906214 7.7297437258295485 9.888543307436203 0.5582109217951999 0.850305210198142 -0.9329584635239997
Ni 6.983106977052091 8.336826787371143 3.254065148847239 -2.0667193126134795 -0.6086001728810293 0.7707822749711499
Ni 1.2360138954831532 3.1865822750632558 4.676805782875252 0.20680591144708257 -0.47226614220226404 0.3648770766926232
Ni 8.750028219381154 7.311323257973038 2.199587642252385 -1.008423169521218 -0.9078989494522106 0.446070971864135
Ni 5.9936092428290255 0.3494200020887922 12.053378093261095 -0.703146320989731 -2.4435671885147334 -0.5828564882580219
Ni 3.2216627092726027 8.81604347067355 4.316803352782817 -0.6757802702719522 0.9645676057888486 -1.1574623064714775
Ni 4.412454214362436 5.975203813221431 0.2849880434086921 0.5503045224639297 -1.8646308612467244 0.8577621806968195
Ni 4.303890865867565 2.8003643688127946 0.24456179890054847 1.3678914164934444 -1.263328764689005 -1.1178686033392553
Ni 1.6119047733565028 5.757753239893699 8.589468838224104 1.1748599331226348 -0.4907731998675161 -1.4560018362791312
P 5.772892145292404 6.192321256601515 4.3406267708445325 0.46579236155246234 -0.33445681252955306 0.48199108279951186
Ni 4.37563410153759 5.184492121648111 2.5784702121278134 1.4172547974179206 -0.12287996205638839 1.0414875561753547
P 4.3140143148322245 3.2081339319541997 6.941118723233861 0.9190912186236042 -1.1306022488558398 0.5471094125653997
Ni 5.413537467875952 0.877798337415468 7.800594913528647 -0.6447917923102379 -1.1855870897321519 -0.8587836799827984
P 3.7244205755421906 6.441557979100735 8.344017767435528 0.24561080012942219 -1.0341743103433931 0.5479036263319209
P 5.4555303484990105 8.589848236220039 0.4358561191720591 -0.8778787489410365 0.7881179380361201 -0.0011060885799851917
P 0.5218860027913875 3.8251183558286876 7.222134192016841 1.5313102192041432 -0.1461777562420644 -0.2787422925760683
Ni 2.2910456932964567 6.614831819926378 3.045615561632783 0.21767884960584447 2.2884561343387815 0.587081324972647
Ni 3.156026855976138 6.172620321641954 10.539488478751553 -0.5591915405409144 -0.2773541539792901 -0.38041039644153196
Ni 8.265842347692985 2.911028286699784 4.024153320578203 -0.38484837760822754 0.0706819398965944 0.6016759349573703
Ni 2.3494822382798444 2.151195890551573 6.637092303317042 -0.09015753212270279 -0.3561921473241156 0.252982410003145
Ni 8.808307453000374 5.641241040703542 9.267392908494173 -0.5048661876254725 -0.004879953800120628 0.8312777612530459
Ni 8.821901005586376 0.146803890402052 3.51900432157327 2.2403392242268967 1.5757599648770861 0.44595038712587065
Ni 3.740993790437717 4.036230206541437 5.055945603099143 -0.32490336451316304 -0.22355613432222787 -1.4194975707055102
Ni 3.5188793978429014 6.468097331596753 4.989161376844256 2.4797410673321294 0.5471834603364447 -0.2195030472987768
Ni 7.803485741185465 4.881667745625724 5.359443641904552 0.3767990249411898 0.4403692934936674 -1.836723850423811
Ni 2.960146446758663 3.7453614941957785 8.581329363169885 -0.3334700231362515 -0.010472617396549706 0.3240407594025516
Ni 6.722266228043106 2.2061715855232764 6.0632361779705155 -1.8965523925456693 2.1809210301695794 -1.6642815040582628
Ni 0.04994358204027577 7.142555925050311 4.83838121037263 -1.2876562856907758 -0.22601025228967528 -2.5560807197351334
Ni 2.4047077807122847 7.54579121945983 6.709116848720637 1.6105274502652587 -3.5461161307777833 4.182795321283215
Ni 4.569608267165742 7.48385681002613 3.0201940451833194 -1.5273147248915049 1.2375066614195784 0.9059279417687688
Ni 2.6149312848979704 0.059217549638431184 10.547547447401756 0.02517984169973728 0.8275164944384007 -0.4722044357263932
Ni 6.406070386066484 4.960277159661176 13.175437487263263 0.14032823943982284 -1.9814972701191809 1.2144834610515278
Ni 4.310035262679754 7.485874096931337 12.280653223961572 -0.4670406321372666 2.048949133114252 -0.5022842858309092
Ni 0.11636784287950862 7.004797438087889 6.963899259487242 -0.7196242640400962 -0.3409017968239484 2.6397708989659376
Ni 7.462943652201513 0.1560482464493053 5.656197649992006 2.7033293404438736 -2.4391667454541928 1.896562162737682
Ni 4.813699982695719 0.7563798743852178 2.999499272546605 3.049600886220167 -0.4704815394980155 0.8803269533712129
Ni 1.7618225034081052 5.332300028697937 5.600424293867877 -2.239442166333924 -0.4907647152270838 1.0579346459877845
Ni 1.9444887580355124 7.723127394924857 11.940492383695483 -0.9059238280037107 -0.17367416189012025 0.04544142016225077
Ni 5.139195702377536 5.165929380676349 6.58043892891454 0.7399534625157514 0.8772601415204312 0.6617199355241442
Ni 7.079733169089548 4.317993366984696 10.77669088189196 -0.2949991207545629 -0.45756303166413453 -1.34037032825504
Ni 6.783830493090529 5.921505116382381 8.489516898875955 -1.8868140822119825 0.4310737271243544 -0.0544456805433901
P 3.1260821751263768 4.245731929173884 1.0224655693477394 -2.4027725230958747 2.1787186232016222 -0.34200891384519805
Ni 2.194946957009444 4.536480344594003 3.0988413990183643 -0.6406798270243934 -2.426459068079537 0.21836764814275295
P 2.974498795336531 3.9760262221135796 11.010954338605332 -0.058789559334382624 -0.5395632247870257 -0.021452513446821118
Ni 7.011487797869835 7.199363834734083 13.18570344181664 0.4023683887698618 0.5264477704509901 0.21675993733600088
P 2.1027995120459324 1.5351368276427757 3.5046621519660244 0.32939636728751015 -0.9651095943352477 -0.4100261624254358
P 3.37620724415266 0.1179057928044871 7.154199742081601 -0.9176133485264971 2.691579656107113 -0.3447530522492385
P 8.009896758192504 6.184779564731134 11.217454190265078 1.5962832816414185 1.7163784818638181 -1.2836263385957765
Ni 6.738034378898481 1.9184953685092518 13.326529500380328 0.716454865173179 1.3156270598720892 0.713083891818417
