# total energy = -381173.0578424793 ev
CRYSTAL
PRIMVEC
9.16656919650898 0.00000000000000 0.00000000000000
0.00000000000000 9.16656919650898 0.00000000000000
0.00000000000000 0.00000000000000 13.41620059010230
PRIMCOORD
 96 1
Ni 6.098435858008437 8.455215747874853 0.3476054631304767 0.8515185137799528 0.3779220828020394 0.036376738856821224
Ni 1.5224204461528466 4.820377808314868 6.669917352535289 -0.21567596024320276 0.28918020007994066 -0.6867984757593268
Ni 5.422713057446051 6.277944778777513 13.155590334754992 -0.2447381677164817 0.289080955497915 0.8720156052920403
Ni 1.3022944581352502 6.725823340222493 0.2162072797691777 -0.1911815746462643 0.2639664198184744 0.5610298793012338
Ni 1.4753592808958156 4.379236675086467 12.617560400487681 -1.38782543641321 1.2772461461010454 0.9016719947058922
Ni 5.97395385095926 1.0966241494340423 9.100235125564542 0.3073843817927932 -0.24619572609861476 -0.8300096931738995
Ni 6.704116904825405 3.1199700918473026 9.315283751011847 -0.04217277671330801 2.940028697016279 0.008756406036391372
Ni 6.219342903146777 1.2354610035405849 4.640932136871908 0.13354309819718937 -1.4481818260140802 1.8783245566837328
Ni 2.8002218319143553 3.142639016989616 2.5200053174600745 0.4385931754298511 -0.11263797261340601 -1.1637028880645506
Ni 2.3434975313823023 4.673391874365415 8.996018569265313 0.5941544297693445 -0.08105171316669267 1.2653352535960722
Ni 7.231332120983982 1.8875707223534353 11.207263593055316 -0.3210693354790535 0.6933025954264318 -0.12108250383633341
Ni 0.16414116783697372 2.74917320914139 5.925466367565495 -0.1428054973357218 -0.5992896941133807 -0.06683299846414942
Ni 3.5567571047996833 3.3354211296738034 -0.08446810004099883 -0.526947335795228 -1.1206430807605992 0.9576575089325766
Ni 8.293719135195 7.499921759315937 1.1109340803032963 -0.4257443444916409 0.8268024990905115 -0.48181933310833797
Ni 2.2350845197938907 -0.29798315849424545 9.952513378363511 -0.8308399023846789 1.1199275427508133 -0.45989322245920794
Ni 5.046654564132906 7.199194130062449 6.661290694447366 -0.19239539244870735 -0.4113315115004206 -0.5571045761048986
Ni 3.1975925981574966 3.1274775118600626 6.831489131080961 2.0235870002003797 0.9206439078227048 -0.5825476987683516
Ni 7.978709991436163 6.2853238668242435 10.088968757843295 0.6926657331733813 0.6946873915891004 -1.0098696721597575
Ni 1.2573966031627262 5.699708439552978 4.31550885406973 1.2108867448392049 0.4197554738980577 1.3774374083106666
Ni 3.7008005700994455 4.966832081262196 11.53834814887322 0.08923373475685277 0.5640239289325513 0.31448808271711004
Ni 8.005687204009487 8.512910133174376 8.53271725547422 -1.3199904790471073 -1.2803767213102273 -2.3844670399184675
Ni 8.803948698992594 3.8647996561168863 10.314817434888933 0.2758395171069766 -1.101072357717523 1.3987528819589912
Ni 5.639896576813959 4.021190489862543 13.198052632343646 0.8496115265652271 -1.6123848151889715 0.6330295095679872
Ni 3.324118750094154 5.559093271060019 5.479257038335805 1.2515669961673865 0.015612766836592466 -0.4138265100081325
P 8.020482046378953 6.308872782590762 7.627297652199094 -0.06681268674917526 0.16815683161631684 -0.01997541468066237
Ni 6.714200130727768 8.857444795689133 10.628474509719952 -1.0601409096104837 -0.5566908856062477 0.6075496201293278
P 1.7607512402087098 1.2709081258718933 5.270554428608687 -0.04036040609491759 -1.938987164671112 1.1580868274293539
Ni 0.3894270175458794 7.201128276121902 6.1657368076222125 0.5325240585520571 -0.22777428616863354 1.6591994615496652
P 9.42699122749963 4.095549697607973 3.494732432303545 -0.8574744742530716 -2.801168814591866 -0.09971946477952504
P 5.613496858087771 0.7899089173083499 2.7357240191014376 -1.4255139521029192 -0.2244925300935682 -1.7076135911869947
P 8.835490862928987 7.426314210228684 4.193944565933935 1.4379529491972203 -0.3876750484237452 -1.4557627236851316
Ni 7.1456613670899 3.1431156785777277 4.517650950362011 0.855129885280295 2.3494704692386246 1.4714163710619885
Ni 7.636796967656021 5.303263496779053 0.48124487261280097 -0.1690592888259282 0.16327302116145428 -1.147200262423837
Ni 8.263185293848842 5.148495145746777 5.2645439093139785 0.6876867919015511 0.28626996841168123 0.5874078550741303
Ni 7.081632882609893 4.2776435908356545 2.5084270241534603 0.8480701502200363 1.2222044838448693 0.19605895734322362
Ni 7.540318828908406 2.45552217115756 0.25540811210686615 -0.577429917925812 0.6880230921950473 1.1730971847952572
Ni 5.583916339917836 4.656837050747535 6.269792948963903 -0.927314634974661 -0.08965488145467139 2.7677174769119564
Ni 5.513718754499383 1.4338255567470803 12.888554429868902 -0.26564792128595544 0.6723095381145325 -0.5529573867057445
Ni 1.4673568661569398 2.5578394143595427 8.086265928822872 -0.9314669665801377 -0.09345265793420679 0.8956977794003285
Ni 3.1254517001105873 0.7985539085342763 12.077840150896373 1.3715482965197412 0.7342492130421225 -0.3399990825040209
Ni 2.3513441144481413 2.9667875572523976 11.212965198974654 0.541749433805067 -0.9939283183391528 -1.6885470614738467
Ni 0.676655040629904 9.527548489453201 7.096754054835837 0.35862286825279527 -0.1937616766686147 0.902805336979387
Ni 0.1750108853597215 2.3220660930552786 12.17662368174803 0.9957846548216012 -0.577382095407012 -0.055278460857330604
Ni 7.233706262355538 8.514010121454634 3.18668254773114 0.4794166372041163 0.7623014911936484 -0.39366880411333494
Ni 8.38357901112306 1.7004718824505807 8.915400428205217 0.4719236712611808 -0.08459006533725433 -0.9945872920793903
Ni 3.6798732930675406 1.7811101899624817 9.25462948058153 0.11452053434809953 0.959108125336174 1.1008712974503105
Ni 9.292884322998196 4.613836675558456 8.350739777672864 -1.8943710686236341 0.8229864677785311 -0.6176334867278912
Ni 5.398274984486324 2.9801615814265325 1.991863361175381 -0.8067270684968751 -2.451954898357797 -0.1882415181813339
Ni 2.9387928555198357 0.7762855624573568 7.343249511901915 -0.1912239978484255 -0.5495925839985696 -1.1402593123296298
Ni 7.583053373596423 3.629658828073771 7.012446369752376 0.08109927857517645 0.34915503797167613 0.8450187649882221
Ni 5.84212942213936 6.8218431505199995 10.98154874791711 -2.1444980114558554 1.7970460722182147 -0.24852128890799777
Ni -0.23697230852974493 0.49280299946761014 1.3322407224083692 0.8381793734688856 0.43334195433324074 -0.8185366595372935
Ni 8.56659872781996 0.333361531558038 5.235726049685024 -0.3974917774038509 0.11625320076849012 -1.4735884390126428
Ni 8.951961288670287 8.990424212203303 10.432705928854864 1.7346343427502129 0.5852203605045082 0.2727354242603561
Ni 3.538350634243369 7.620287976883151 12.45015318411524 -0.5931627552800366 -0.37005142180471107 -0.07657927921763585
Ni 4.145150002478599 7.800640222000424 1.4370631889186392 -0.9902207875805784 -0.32421585152783516 1.0440303772018666
P 3.1978125958135486 5.507100491679832 0.22936863954246267 0.21734692018772245 0.31253404431453274 -1.6879243402881834
Ni 1.8471644861919645 1.8339646268288705 0.5271281337530558 -1.2640155063433842 -0.3526126575029734 0.35721158972756545
P 4.403253085872096 8.627583911391254 10.653187579749746 -0.09523031865991986 0.49445399115321303 2.2596818904195666
Ni 3.930221459085221 1.6413841786627308 4.8138264614490325 0.06370550857876126 0.2015498052544658 0.6972695504939798
P 5.068095169028931 2.787086138534277 11.143751186410128 -0.5377873638335254 0.4091154776857083 -0.3077872736581667
P 3.872646239182725 6.511967285402367 3.4503653216762453 0.8229921242054857 -0.24019939930586376 0.8444523509617908
P 2.0582614037424443 8.713621328045422 0.9486115597563489 0.3544759359639572 1.2342938109092356 -0.2267540724342353
Ni 6.505688185635895 4.861664035100545 11.364340086162334 1.2513006298798772 -2.4977454743293497 -0.30166239170735143
Ni 5.63469913218974 2.54298040600706 7.236778896285059 -1.034932014445024 0.8178244639616173 -0.06880606303012021
Ni 8.122313461423822 7.66380167993635 12.143365536094434 -0.3768723013812864 -1.4835787174561352 0.5907392334402084
Ni 0.9058064324870156 6.949120961114834 8.875768767124429 -0.36241755940853715 0.2573651124518729 -0.4463283392905797
Ni 4.648412973834561 5.092469076005645 1.7729638600902724 -0.24999967322573718 0.18203307537777683 0.7845554174958423
Ni 5.140850227198985 0.49724236883535067 6.759416982301568 1.1031364393354033 -1.7225612136357626 -1.6782991584935933
Ni 4.924565031593289 8.297651593296921 4.230194679709833 -0.12561253049620302 -0.1524821011935374 0.00680802406076892
Ni 1.5938738515245947 7.548000413732207 2.8029525528200954 -2.422737396253576 2.72597227465437 -1.3622141636030087
Ni 0.6240636842938768 1.329858331124711 3.3691027708152976 -0.3905647112667145 1.3992249364994032 -0.21491439948682986
Ni 2.706915326041485 7.4282483562881385 7.306690484750645 -0.2018457392283298 -0.20134385989124678 0.3118431888950952
Ni 3.227411447121486 6.878694211471326 9.96705614008542 0.7942852431890965 -2.0739633957704022 -0.35095763839805366
Ni 4.553172321902237 8.568496207603404 8.640583022893201 -0.7037158203399558 -1.5184421049922237 -1.0849075750322026
Ni 7.192154205068799 7.481891118088711 5.438122976595563 -1.6897423673335286 -0.0967506119591882 1.49488514360789
Ni 4.9873010298439935 4.594046053082818 9.64298767618176 -2.0849322360770803 -0.7462719485346115 -1.2070624859971082
Ni 4.746559428140566 3.832734997747371 4.249876220014346 -1.2675487163076233 -1.1914795439571868 -0.6678088220307016
Ni 2.505489138788272 7.75620986204701 4.804528810510154 0.7214520612774543 -0.5204146768830328 2.690906798409804
Ni 3.9778876178963936 1.2150745540798065 1.209015451969386 -0.005205198350023294 -1.211264697003914 0.7505235247221139
Ni 6.303812836501576 6.664893156065212 2.1142049743625573 0.2001452115974553 -0.1474494238656364 0.3129587905567771
Ni 2.0841294614665076 3.2344330389771323 4.67848390344611 0.40535806752580505 2.122794301230176 -0.5957318015587935
Ni 6.115925671664537 5.572595627200183 4.4438609865516145 0.019371205437760188 2.243562102039568 -2.560501217400332
Ni 7.529511444054873 1.9218903566974797 2.6696898893237595 0.39874570441561 -0.6321465927424016 -0.8501177767776843
Ni 2.3575865479386042 5.686646078724917 2.163148036235729 0.2123101290947634 -3.083023427544671 -0.2763516808567047
Ni 2.656334198287629 0.28416638903730695 3.445428207611688 1.298903319359505 1.6010359658350555 -1.7040163607540395
Ni 0.1256883275298606 3.720682858265106 1.2148224734322473 0.8746234752285326 -0.4739828677830547 0.8890033980992883
Ni 5.966996425086629 6.338499133605707 8.702619611929043 0.9227231589492366 0.8518926092899198 -1.796758365774467
P 7.472614550258537 1.2007655398674524 6.856778778300988 -0.29566169403922626 0.3287677325645757 0.5308117038466407
Ni 1.0810409821303897 6.615842845334715 11.320925382054359 0.21944956835302207 0.008215445931256818 -1.0487046427490843
P 7.790300332166 0.49925259741752187 12.806795967624938 0.09373959304700631 -0.18660166858506572 0.00687384430169784
Ni 1.0349239734805802 8.996886643349816 12.336960723449112 -0.003834543254741783 -0.35576303020649697 1.6068021788948714
P 1.0873384150348657 1.6298709679960321 10.004997485842212 0.6192098300760754 0.09692004765751695 0.9471758926749625
P 3.808956917755797 5.426608849271965 7.683323721940226 0.9735649241914524 0.3664768170795753 -0.28924216366612765
P 8.553554700129903 5.2508490552247675 11.933387856619117 1.6093316301849447 0.30477754029756543 0.9168309618345177
Ni 9.001112431659807 5.91473781520538 2.4880607411444866 -0.9506407112951111 0.006257036653305353 -0.38242794109219297
