# total energy = -340888.3891988793 ev
CRYSTAL
PRIMVEC
9.10669677512184 0.00000000000000 0.00000000000000
0.00000000000000 9.10669677512184 0.00000000000000
0.00000000000000 0.00000000000000 13.32857124941265
PRIMCOORD
 96 1
Ni 6.565709856907973 2.02532937597969 11.406298063001707 -0.3354423163712739 1.1057083138276378 -0.5535217438496467
Ni 4.959743870154294 0.5551906831813823 5.810550681957201 -0.24036729234229573 -0.59921204679791 -0.38525666879023973
Ni 2.860495435969445 1.8976625930576614 4.4455852308998525 -0.3385986026120685 -0.7149721099800654 1.221459892369361
Ni 3.8035212132663196 4.5752318097136895 4.787676476146263 -1.7985008023868703 1.0375612245377552 0.27224742888034403
Ni 3.872595508755555 2.761341720836051 2.458374666529765 -0.0719932025088502 0.8997554944094698 -0.7743005725370536
Ni 5.4727878497162 4.623488196239392 2.4006618860111786 -0.10444335261775561 1.2167403754065045 0.6316177168221251
Ni 5.783654052856679 3.2987916479142587 0.1375147648787937 -0.3383705457616624 -0.4796907168011093 0.4090671409462761
Ni 5.529522570994767 8.329950234644238 12.25087680483954 -0.06600870279064117 -0.42533605330962876 1.4180973479238739
Ni 2.0049030549800393 6.967533748030851 0.32620370194904547 0.21242942828144706 -0.8904640418052148 -0.5223676868443456
Ni 0.7429033823509821 0.032940743789540185 0.21890313582756027 -1.136492646198346 0.5443123094362368 -0.5857062990019912
Ni 8.530953247174022 8.660514223037614 6.874490626473366 -0.5345945679278405 -0.4443167081771896 -0.1959928799919786
Ni 8.715117977256924 2.4118813365112097 1.0894031795349461 0.07959209790203067 0.4756183465039486 0.5227795775707835
Ni 7.508589927055498 0.9973016904301432 5.042198635302373 -0.30360408881475454 -0.22069963871003928 -1.262725326777051
Ni 0.8427009409505712 7.769351084212882 2.4972948674607993 1.4369095955343705 0.3056478587176607 -0.8023109417070504
Ni 7.894386031749758 4.003968717289202 3.9458971329153383 0.04155802594744456 0.09559001599218375 -0.7706511487099245
Ni 7.7787856221333636 4.005826483443427 12.583450641224276 1.7655192052545272 0.16676483636479666 -0.2101331760481026
Ni 8.437764418467186 7.337857574803396 9.360722678619688 -0.6632857373493674 0.10275002407573272 -1.3685712161692882
Ni 6.925652049289256 0.8405745272397291 0.08311591133826006 0.4989685911941149 -0.0851564793636856 1.3005447116176698
Ni 1.6619357454981545 6.940049736984508 9.178707128989712 1.47948140745831 0.18018522353576066 -0.8857365544225585
Ni 0.2834058695059063 5.138553862498544 1.2487166446263416 1.186219838220144 -0.7404098333268797 -0.09340457830509075
Ni 6.585598882794393 2.245383598287124 6.880968219931705 0.7732654464043198 -0.4335417290488727 0.36373499266838005
Ni 3.9502756327533373 4.6891748005062155 0.4716075982955154 -0.7368650533984148 -0.07098275896646485 -0.9141747551585935
Ni 6.480944722772996 5.992798452356452 4.585041543543749 -0.6953417373436477 -0.26951408910958097 -0.16626064303486848
Ni 5.6677075887605755 3.1553338526813084 9.042396269432434 -0.5832069296189053 0.1363512570699458 1.011728322635051
P 0.535791597584656 5.516008232892457 12.439501995031952 -0.031185938684501126 1.7522695393334724 -0.8452529924862152
P 4.101911241743615 6.540147358893697 12.553967710222773 -2.2244469784766725 1.1421241334525103 0.628076536438086
P 2.660822001177491 8.810537946688196 1.2925234990787369 -0.5198644608065176 -1.0894016062478142 0.04064014211886549
P 6.677676694487427 8.223001187020564 5.624577361882979 0.4618575452744304 -2.172413506919201 0.4329781432359188
P 4.739680541150025 1.5385946435724849 12.648054459237484 0.6290525271981101 -0.7890851870453959 -0.5448650966159132
P 4.3534564217045455 6.545720657356376 8.196791202861359 -0.17727576319844954 0.5208376233530643 -0.8162956860219168
P 4.883111016292472 1.3655127635370983 3.7763304378580456 0.6896752830864896 -0.8805807212532317 -0.8842535421191287
P 0.5133681779692117 5.895748384191814 3.285239972354927 0.817219740498083 -1.818394970207636 1.2639933948561972
Ni 0.8120323180212241 0.19599706127989072 4.410731170105396 -0.005273846804429627 0.15763407770812207 0.3978622733693922
Ni 2.1637329544695256 6.618774579362261 4.628439507308278 0.834721239716956 0.22170031206041174 -0.7373106255762657
Ni 6.2299277312284635 5.944879013613624 9.154329412233597 0.3754165427713664 0.43327947652642157 0.9317490165969308
Ni 8.554166217405012 2.4180647836617952 9.898410290485273 0.8393307134645093 0.31332594408820874 1.0801237804903139
Ni 2.8901195207718815 5.341696948784421 7.075805088034888 -0.8758558049737367 -0.7621040304708617 -0.06517592247670065
Ni 0.6042548337163004 0.32235794387586103 8.903205872336102 0.5052762785796975 -1.3704110975915045 2.386101490198097
Ni 1.4528550928762225 1.6268385358982187 11.263588838248547 0.19027448945096262 -1.3957925137790863 -0.35411829551422236
Ni 4.5257642325090055 7.021172192385708 1.3373484822372224 -0.5949319313653173 0.9641575148346233 0.5417365782892606
Ni 6.274596079201396 8.304405950023632 8.008391858750443 -1.3690335005176872 -1.169851681274766 -0.8673559950328417
Ni 5.527564631175363 3.339598756429389 4.419794154795032 1.4945017921265422 -1.4250979476114232 0.5677049773285642
Ni 1.5954932853940726 7.30146721425297 6.787467942193131 -1.1071496742598546 0.6526328856212116 0.20534115397609798
Ni 5.175791145854573 4.648731959864462 7.313133803567572 0.8704099513678171 1.0294622495797046 -0.93262704832651
Ni 0.9164979694181477 7.48605995908709 11.270093751797388 -0.47937601377416794 0.12924087127740966 1.5307867426005055
Ni 4.761381799706498 0.6129754066049612 10.409134794363448 -1.2207507821174783 0.3409604179760257 -0.36763047106804425
Ni 8.688171261323811 7.134860195666871 4.700267667920248 -0.48337742162407726 0.8231440764023179 1.2907503512350673
Ni 7.34633590955626 6.240391325891236 6.895976056314864 0.38241791378986395 0.04256846948982992 -0.14205602076420695
Ni 2.7416894690673272 5.611191428206034 2.289395353418294 -0.8622870651503666 -0.33312780930548436 1.3244199755733705
Ni 2.6602391725800865 5.625097354272226 11.028726216218631 -1.8723739955272527 -0.5496877148155372 2.1866453342478662
Ni 1.2639639871362462 3.7313688542470436 3.4142199409604825 -0.06185585696453218 0.07194409443846965 0.2615755509887947
Ni 1.66795527210572 1.4170384542263657 2.2631380144355506 -1.0019933547354742 0.5329999697472111 1.1208960773116696
Ni 1.1908827450398567 3.384030330284627 8.382285510682088 -0.24728098874299348 0.5226643921491579 -1.2527864703967844
Ni 4.180784343026709 2.660093465430735 6.757852053417846 -1.9592222607710645 0.42282691373452985 -0.6325224880245816
Ni 4.632822560494694 7.038247248950285 5.903677585125561 -0.294887277767047 0.2840639618992979 0.15927881240039665
Ni 8.318457583239175 7.197350349344806 0.17036990571809013 0.9041124858265849 0.8166885505849613 -0.4438641940208033
P 0.33655801624980497 5.522774508640446 8.160724130048555 0.5133138041721933 1.3905436066753212 -0.7918601786873717
P 8.553792842834799 1.6709969088484233 7.803891874636234 -0.8540191687146195 0.9283600455200399 -0.8730427610049739
P 2.249217517654424 3.375406288382411 10.272250212905595 0.4342624092649812 0.9670762311433151 -0.09286876040627877
P 4.418113969229077 6.400004401308484 3.6019526748631177 -0.7962948174199577 -1.0262095469703618 0.2957347133690068
P 7.044640150128063 4.079244673322691 10.51473696152531 -0.4721054482546837 0.6539212654153319 -0.7195733561975027
P 6.4490894972461215 8.121443303922877 10.304625430821718 -0.5480432372335787 -1.1741521084223328 -1.7913238250224568
P 2.6941251915010413 8.78220701283625 5.544685221224111 -0.2827989791439452 -0.09360666701356783 0.7571811392479476
P 7.4618998923853175 4.374501998088939 1.612610232764088 -1.2806001501749429 -1.3496759219266818 0.21060291659566954
Ni 2.746088003638362 1.4701760302553293 0.1774776825973714 0.5225790315242033 2.929508257100929 -0.40983461523992004
Ni 1.2974037779123138 1.0706470267347314 6.855923892967308 2.1959414148378116 0.655481153703284 -1.6537952598149583
Ni 6.857023981944908 1.0842251117148831 9.157994857709461 0.6302285497840824 -0.8657074036858251 0.28149414428959263
Ni 2.8618432271009424 1.6548689487546284 8.82374083575877 0.3312719870436682 -0.270687797702708 0.8214872575251854
Ni 6.332796978670309 2.2824569611001335 2.2932602355548313 1.5085307594157826 -0.19082470552747782 0.5627707732517405
Ni 4.305491449477545 7.2110103945964665 10.3739337684196 -0.05007480516920409 0.7168163622776559 -0.6199780757006678
Ni 7.579321641368601 6.341448340663028 11.304361341315708 -0.3667979478644199 0.04850951756461323 0.7834899523458055
Ni 7.786025446116744 4.2276929384209145 8.283533400879094 -0.3079425682891083 -0.9601450512411206 -0.5469453761837096
Ni 2.943175136529335 8.723140977168066 12.254514930224898 0.9095799366990592 -1.2316337475785692 -1.163777450056228
Ni 0.05800601615665574 4.7872903522004835 10.40732165102371 1.2961396405714387 -0.10894998223885752 -0.5095571653432386
Ni 9.011249544919279 2.807230366184799 5.785932548404656 -0.4045959925487999 -0.2253628485136635 0.4501453990438247
Ni 4.150632069807875 3.2848675084543983 11.42147892662472 -0.6215269082450263 -0.815536439258389 0.028456455568480022
Ni 1.675176882695432 3.5978828920478065 12.593660159045369 -0.6539881140975253 0.6418903023927268 -0.6129669344901573
Ni 3.5453736781004195 8.617384906829702 7.64173620946281 -0.07473502692004548 -0.09639631394356302 0.6484173048779671
Ni 5.6108726938168285 8.183122961582546 3.502508456100705 0.7823355270263881 0.9971702223152181 0.005407801279132622
Ni 3.0778176492265468 8.608223569814253 3.38175183473665 1.0667746128769178 0.048432127359458524 0.24783120481950863
Ni 3.9819214042530198 4.799384045596621 9.43432300243564 -0.2283234738038842 -0.8967046233982878 -0.3911444950295844
Ni 5.395034872143741 5.2697813638828395 11.693128961187046 1.1273474893639681 -1.3990822402739518 -1.9888845637221875
Ni 8.193741370091505 0.07815367223317313 2.341590386324893 -1.1877820405009416 1.2832722976904671 -0.23660191176259251
Ni 4.8272960713941835 0.6436622429279771 1.4089899555640868 -0.5643607434466796 -1.0951122834793463 0.31351054929518907
Ni 6.398693036964325 5.753920687692229 0.3685252541477434 0.013643044704731344 0.8894194025907843 0.125726430366248
Ni 7.989632973941177 -0.03268575627817583 11.234119567292296 1.9859450214778895 0.08623248603668375 0.7130250135560237
Ni 0.6826671361395716 5.094249782398988 5.846671484281328 -0.048728832664270916 0.07611699486923666 0.4258412750808214
Ni 7.676153148809212 6.742070147803759 2.4468856578034344 -0.7621456823420745 -0.8915960985271288 0.1401829721112102
P 8.823423922708931 1.9382966743329373 3.496910569556574 0.1842030864459021 0.024666649508744615 -0.20656577041181848
P 2.1754168465081136 3.5318957667854463 1.317690766450398 0.009440833697925675 -0.1918721729553857 0.8384935622751947
P 4.970844933595478 1.2327098036004445 8.161897072600832 -0.4900856868821882 -0.7048468486206054 -0.3284949385191633
P 8.651917501225903 1.7965509381048623 12.297406561645433 0.18486565973056548 0.015984034133082147 0.40234859127552
P 6.403883854159956 8.043025537481505 1.081302772700711 1.3633706458049553 0.4068385087260735 0.6874337953504807
P 2.0989752332798153 3.262537887816349 5.96085671320965 0.13638082475630062 0.8959001252191217 0.5092663735756972
P 6.811053376324651 4.132109048446622 6.003841232937896 1.366201944606163 1.6908158029033653 -0.7363343777059255
P 2.4117265226650244 8.911649601640995 10.147840895441247 0.29992124064652864 -0.07011835408364053 -0.7000062326988524
