# total energy = -340863.9257900834 ev
CRYSTAL
PRIMVEC
9.37169512635616 0.00000000000000 0.00000000000000

0.00000000000000 9.37169512635616 0.00000000000000

0.00000000000000 0.00000000000000 13.71642312288698

PRIMCOORD
 96 1
Ni 1.706932416181414 8.184929166084393 6.688607789296878 0.4901260532018204 0.40889487703447003 -0.41186424407543903
Ni 7.130182378163468 1.0781947688654108 -0.29790744135225017 1.3227029928822638 -1.9797034114435517 2.722306909987641
Ni 3.8413547007811903 0.6121825480600341 6.099048513019413 -0.2995828834705034 0.783363196959954 0.23553824638476856
Ni 0.5588960273357116 0.4742846160010994 4.0188433584596215 0.7760656348572763 -0.30754996083638003 -0.8538232506537295
Ni 6.461868062770501 1.709369056887076 9.005819362279402 1.084872350918893 0.494754038892135 -0.60365105640587
Ni 1.4566425572348134 3.3574753434167954 3.122105222944864 0.752987155771258 -0.38303780676205 0.5742342938066497
Ni 3.778976698716242 6.824009101802011 5.6030356221103235 -0.5953865024042326 0.6546429740727048 -0.26816760238401555
Ni 1.8439653407898386 0.801952812064505 2.0460378288493963 -0.027043891491669556 1.15158065087972 -1.6090873753846222
Ni 3.7280602796629267 8.123338386401274 7.830349210596452 -1.2642811012999453 -0.7519067782228858 -0.09177501312146776
Ni 9.143419274436646 9.397560900037197 6.1331061898980535 -0.7042539522316129 -0.12714722197317457 0.5449018633911197
Ni 8.157610675095913 0.8418977877558254 10.883789898455758 0.9844607451683497 1.2277040735068598 -1.2790546600646941
Ni 3.813567625041621 9.12825587189141 10.215648959420694 -0.9302878586703721 -1.6502890464339128 -0.5299136175124035
Ni 1.9952619852214082 7.8911171554566595 4.121085739638704 1.45222102908046 -0.060361274696876695 0.07693409145389331
Ni 9.414523668026613 6.6240358734273315 6.914353178981444 -1.5459511090457698 0.04436361371703973 -1.4233287715261422
Ni 0.47709893601613906 9.275635147803877 9.214624476042605 0.2582202613633166 -0.5063402010678377 -0.5187118352593132
Ni 7.619815956271234 3.8573428124883415 10.261118549327351 0.7075197674670782 0.36041621270779217 -0.7254444702662989
Ni 7.659936182659462 6.270872918226683 11.681687578084341 0.08238251616297426 -0.16435545559235568 -1.0955334301771649
Ni 1.566506937975106 6.433696747535038 8.557648974456486 1.0203106649874234 -0.319502762322882 1.9694933036797695
Ni 9.162134549395134 4.947139739790713 4.993807032321154 -0.6952594620424865 0.0996472167806929 -2.4697258491879723
Ni 7.629824926554493 2.8534655851456234 12.49800719861723 -0.32182626824973604 3.3029213962890216 -1.4692373611327987
Ni 7.198473919787158 8.102598825318081 5.543437264788834 0.6380794132870687 1.0203086081048944 0.9337832734181402
Ni 7.76998799730019 8.105307245179374 7.809884240177398 0.6103323250807875 0.20786212062573878 0.6764348731368157
Ni 5.150730442443798 5.292692878633677 4.483171485669586 -0.43906728685279217 -0.9226725082169593 1.2088530022386277
Ni 5.470989376422987 0.04582852582599215 1.5508608931362493 -1.1776086995123654 -0.11534688690413682 -0.4619657887175205
P 3.6374734755824294 7.837679750442486 2.550541475448216 0.4408878850012987 0.2367104123159988 1.4138357444340426
P 5.890700737973273 8.858069904413576 12.919169298556888 -1.6161622799535327 -1.947034203345305 1.719109507641736
P 0.40418902308571764 2.6113572159530336 1.364769019427826 0.7524616222850912 -0.7277183539021403 -1.196702997139655
P 8.076030069931344 5.304510586056138 8.00778444961326 -1.6351164524585324 -0.20344316562243672 0.3735170117558083
P 0.6699365558012375 4.995375854067799 10.265165247237757 -0.26740938406175235 -1.1795138869548782 -1.0295928616202976
P 2.688373805641998 0.6847972525972695 8.42857730476906 -0.9992641287297693 -0.6046864396489199 -0.7425862721529082
P 8.481112215552635 1.1481169854228896 8.072554108247765 -0.20831566322338962 -0.0421213546500823 -0.19770112093233694
P 6.950377037475653 3.646489046193379 4.1292878471217636 -0.0986059200003721 -0.42988587746384027 0.9048079692317127
Ni 2.5786031418519233 2.8202804130735104 0.24698071343441128 -0.7355507054623656 -0.5199071411189949 1.1965243054699457
Ni 3.7197100993985237 3.614250415318466 12.137978539643628 0.5244644214723743 -0.7461253956544182 -0.45888252180650646
Ni 0.41036028425755783 6.7837951584635645 11.217770868285834 1.1764933549609997 1.5428578148324266 0.19459111454844555
Ni 0.28669608259769824 2.832754139147496 8.783037302560722 -0.38049395729427377 0.16094128770448413 2.6922990507716404
Ni 5.883775055352181 0.5911093546340661 11.196990071744546 -1.0082789306338698 0.8641513720526148 -1.239892902263568
Ni 3.0707764493105905 8.212884932334353 0.5703004430077122 0.12012708190159954 0.6891134970457488 -0.2596276832338045
Ni 0.7174651071041801 8.125568849816457 2.1328215990900565 0.6441834693022777 0.19059150647074916 -0.3210001728040149
Ni 1.0688043304535901 6.734425069088844 13.723418175901728 -0.952337896491876 2.138867295532639 -1.516383422690982
Ni 7.03516276233767 4.4103290489433205 0.8586806192008237 -0.7790949086019034 1.556471034740487 -1.5340073064203321
Ni 7.799049623562722 -0.1778457192587617 2.130475863826106 -0.6456155737631138 2.001778903186352 1.5941212409930934
Ni 0.929379749275608 4.793359596178373 1.2214036404931865 -1.5657447467329293 -1.0300217216276002 0.34716140458041495
Ni 8.189540040035107 7.162252318527989 1.2324313140253116 -1.3003307958346508 -0.6814474958600587 0.07190887032516002
Ni 5.683398844091564 6.873482279821972 1.9999365866982706 -2.0848749004765836 0.8954902913752125 -0.30787469116565036
Ni 6.883200727559554 1.1088214681965785 6.5044511706104515 -0.6275782566454289 0.013933836472272776 -0.20271374365557993
Ni 8.419915047060432 3.8402207256835554 2.50092865917243 0.2232103209470349 -0.5932141773432622 1.1578376875330252
Ni 6.096287611665997 6.654203359702431 13.396309470031122 -0.051584299835195024 0.7659339457399132 0.1968778537000932
Ni 6.476619110734777 6.131759477323424 6.578341362840151 0.7059670782679777 -0.24466052040101088 0.0741434160826336
Ni 5.882163123808435 1.6358949679163437 4.014920366923506 1.229489704652373 -0.9797736241053255 -0.019056245300502664
Ni 1.0748959322177454 1.8937571564405404 6.879924382979942 0.9947883523466029 -1.4629692687359 -0.4886669521577907
Ni 2.078838761425616 4.142467261830888 5.350639006122827 0.4725124538851153 -0.5565828992734737 -1.3149706572350126
Ni 5.289365926900946 8.5627771659724 4.183783316503894 -1.9916754962037635 0.0070414802278136795 -0.441414189818414
Ni 2.4618693086606673 3.5847202043048463 7.789336798842151 0.9931063366584896 0.5394524102407742 -1.108750185977755
Ni 2.6914102348290543 5.784678752191909 12.055240530143871 0.045818343885695285 -0.895743030815967 -0.16085901240332298
Ni 8.969358782797178 7.132918913109828 4.427318057678798 1.1646482826969555 1.0584730349897575 -0.06354532885181315
P 2.0376970202800146 5.672368359050933 6.651546484163758 1.0308660719057667 1.457901110184373 0.8080509295146212
P 7.815590665276157 0.8313218299237499 4.2026297951926885 0.704828079567528 -0.40737946883120807 0.6454029435316756
P 4.522958079715038 5.060902745660064 -0.0931790149235209 0.5738643120617407 -0.2883638748262324 -0.191806866935089
P 8.589552098649618 5.670297214451121 13.618432699589773 -0.5763163731466591 -1.9192817158223847 -1.6380716784321143
P 5.078868285016812 2.5020551369140476 7.122567875958274 -0.9616285777651826 -0.6671493340698316 0.67353235477804
P 2.0823344036687392 2.03224269377734 4.929448791098104 0.24465203576057865 -0.9398541622025683 -0.38561096680586493
P 5.458346959838609 8.553002488064688 6.548796157114496 -0.9729727991334082 -0.28437300849928443 0.35794049747379003
P 0.9901664375258585 6.153417464518751 3.104286819199959 0.47309095209640456 -1.4376547012305112 -0.1332088547862222
Ni 0.7122235180785002 4.018667170593212 12.252606552963492 0.15367972104606437 0.1951654989946768 0.14638987225287045
Ni 4.422784031627263 5.391470544163209 7.336077580622408 -0.8222138512785646 -1.2392264723241626 0.686259058316089
Ni 6.840709462330818 3.5927048884634005 6.838446197983059 0.6933840993966446 0.8960186530748568 -0.4984800815934705
Ni 6.138310292143647 4.668772282558868 12.04263560033958 -1.5466885014324265 -0.8054944816413547 0.227405332864989
Ni 5.695478958974635 8.674909496907965 8.758471278400139 1.1464713546776126 0.1764614948272703 1.5980959093701252
Ni 4.276548102507453 2.9795898567487 4.329506613906013 -2.0719643630625026 2.446308755815613 0.6123264726926809
Ni 8.083696116459157 8.529929374921073 12.431496279047678 -0.002642579829169642 -1.8096539907902125 -0.2096096994444648
Ni 2.8175907366022606 5.791848098883569 0.9699048328887765 3.20899951202788 0.32036408188191273 -0.357396709155178
Ni 0.04378362197224039 4.108082512795988 6.975980508275148 0.9223230952973406 -0.40733678851873073 0.17054127268809338
Ni 3.24469636552473 0.7366845792548404 12.18435343528939 0.7719639539840769 -0.8383948319138012 1.4122486024525807
Ni 6.978323432030592 5.679322156757092 3.31908606909909 2.384091915967236 -2.602308383244105 -0.3622761487346664
Ni 3.178579057146093 5.36985941544299 3.1807832798152145 -1.6388139559147774 1.3327997149966337 1.955957988197496
Ni 3.5170753096376592 0.9115098012080834 3.6672501621751215 -0.23998522641252865 -1.2152007988335265 -0.9618018701182534
Ni 4.82609492688944 4.314578440905825 2.108502050508545 0.8099969974973986 -0.49071920670112906 -0.9540505083076085
Ni 4.155962502662247 1.9538390932251533 9.42908072190394 -0.6940672415065982 1.1501202642841095 -0.8175182455751082
Ni 9.078248507255207 2.5207422967874713 4.8289486080235715 -0.5251845874678504 0.797591167633878 0.6580491715407764
Ni 6.4059940170506655 2.3238898428550434 1.7391466806492706 0.4342652374784585 -0.20784000913855172 0.1587620206649782
Ni 6.555978624179186 6.135405066686896 9.313972877798962 0.5912076884361946 0.10928242587761178 0.2183563352888433
Ni 4.989762208749755 1.847058000147025 13.299429572743502 -0.41532057805515565 0.5256368445139206 0.7567659060873999
Ni 2.4138299999790385 3.7358012997509147 9.98807983788489 -2.1448721069658223 -1.0444888048955236 1.734376718213452
Ni 4.911105572431979 6.862404936306231 11.132194172363977 0.06546877112677112 1.132024326014347 1.9452161762999598
Ni 0.12728167593826556 1.6269918576456555 12.87413830397725 1.0461116852109273 0.5065482033135857 1.1921269477331986
Ni 4.351962132347693 4.740849988971355 10.120470961949028 1.286814506515771 -0.982415689713863 -0.04040437195897558
Ni 0.943560998182561 -0.2620682052499702 11.706994903321148 0.5799146320208787 0.45932115200582185 -0.3614523672817904
P 2.647700649247486 7.863245734461894 12.141668175973702 0.13380535071964053 0.7376417836634392 -0.4740466311414545
P -0.24276532501361595 9.26426728174246 0.42509633750980014 0.9536519873176091 -0.6194723397088429 0.4140013450230999
P 4.229296016207653 2.199930432801998 1.8007196541118482 -0.36588803445564083 -0.7808026353216294 -0.16793751651665917
P 4.423233872988308 6.537581986851437 9.183954666914337 -0.8077830205652153 1.9634290997635606 -2.070025494168577
P 5.527913051985261 2.864449211711146 10.824863491667331 1.1540617654303609 0.07325355727851256 0.6089040772746933
P 7.084879604428197 7.658099330435194 3.5641577682575654 0.2788945018832164 0.9527708702642366 -2.610540798456227
P 7.602262771495446 8.19767467131401 9.98676311473433 0.5499998467393172 -0.22987179212761055 1.0696334224819515
P 1.8180900908347122 1.9516367448950356 11.447603254169398 -1.125921555550719 1.6994379973547378 -0.27980852905705356
