# total energy = -381171.9042638885 ev
CRYSTAL
PRIMVEC
9.21261200551911 0.00000000000000 0.00000000000000
0.00000000000000 9.21261200551911 0.00000000000000
0.00000000000000 0.00000000000000 13.48358889516534
PRIMCOORD
 96 1
Ni 3.570366276308169 7.068431972213021 3.723681646977635 0.5132886073612127 0.3154905558396954 -0.49364923586373044
Ni 8.47473722177551 4.8852824130265065 3.5344932857331846 -0.4238126746865668 0.05235074568757436 0.07959981121151453
Ni 7.54959749385992 6.446847815690054 2.150241187211656 -1.3620138746667445 1.1778974343973778 -0.2883147667558518
Ni 6.166848893646473 7.549385603779737 3.924128741569549 -0.7343389445424515 -0.09566920596955136 -2.039564606575558
Ni 2.491845768176622 6.447649312949878 1.4056373351793041 -0.7188416202378007 -1.0426172989044238 -0.0866700877947346
Ni 1.4561823319151352 9.338640716518208 0.07985952869854204 -0.34124478198566394 -1.3796953511069077 0.3043484231799468
Ni 4.791746761543977 8.192628611542279 11.610623809929624 2.1009728344797103 -0.5569184282360216 0.5878565125757746
Ni 8.524688005025611 3.4203112490898664 11.243222993594204 -0.029749977568922954 -0.19877969870849638 -0.2750771850196553
Ni 3.224847256427126 7.199333978705214 7.723763769680613 0.6353273044632284 0.20389773666135202 0.6219004895343613
Ni 5.3394457683683445 4.30414162398195 9.649004408313234 -0.4199146251837413 -0.2452541881209518 0.38192940418921967
Ni 9.196149243901221 2.528005270990463 4.923424469981884 -0.11703944411521133 0.3407801836444196 0.4519919653342602
Ni 0.4338854746683237 5.161974007296797 5.384954230024348 -0.5870772112075889 0.32639486145702495 2.1756831788094075
Ni 3.0795275118703054 7.722960429898355 10.128373470584668 -0.13571182371373403 -0.8665067596586691 -0.23509730219260802
Ni 0.6212368410437094 7.074539934089601 9.472234648289945 2.0978458588149547 -0.7322501803342227 -0.6997514363755691
Ni 0.9058485180067535 3.7899488876630456 9.157837674881696 -0.7925566905337641 1.442603046374722 0.2115385410360615
Ni 7.3086692600796495 -0.0287433500074351 12.130726436963199 -0.5222069928967652 0.6885326848416141 0.4155645757451617
Ni 0.1306118092084651 5.441622850077467 1.2053588313903183 2.3962596616780214 -0.7933879281858078 0.40221695079366215
Ni 0.46123679897507824 3.416819669072938 -0.11494760471563116 0.29179784020844585 0.8254099896183591 0.8018414582697997
Ni 2.645862218633128 2.5530451509007857 13.067998253861093 -0.09142868552564254 -1.2386438603478154 1.2022298404951552
Ni 2.1047502295187988 4.918843959205059 3.9755010308793124 -0.40329964233487964 -0.2214874247186573 -1.3086012633735593
Ni 6.393948996541756 7.418566510797181 13.510286552100501 -0.4652120635689601 -0.14230156111610978 0.1661860810431912
Ni 8.317735884972079 8.677773981651749 3.148809119261624 0.17262772290347692 0.8716787907779118 1.286954631638061
Ni 9.440808585615148 5.5665182334270815 11.286182325459484 -0.10019666152625971 -0.009635980427867275 -0.3551256537328142
Ni 4.178960649654698 4.835184227981496 2.901897293869229 0.7946333705571347 -0.2137779718895415 -0.9534293297838418
P 0.5855877169447443 8.873652541862674 8.157868504518865 0.5255008331566885 0.3767977393896092 -0.4640838635017878
Ni 3.7639140456370805 4.787122030228678 7.887238809064246 -0.07462781191821986 0.7600407201839299 0.427370053020522
P 2.8608477365092515 5.406191143625994 9.868382499677674 0.012931106239371278 0.1337058490272988 0.5366113412475533
Ni 5.199017920880096 6.666200111740385 5.676955343218469 -1.006469131118641 -0.6798027611677842 1.282295792709811
P 0.4178546082106514 7.43063503275543 2.04819768837917 0.4063232596525518 -0.31932715597696615 -0.808166372046563
P 4.303469103292674 7.466011463533812 1.4773565997539455 1.5081090984973315 1.2848838651519614 0.27562045911763505
P 7.2149862068022115 1.902266226373473 5.646172320873968 0.45898485171232567 0.9602679499722301 0.6448450141456765
Ni 4.035317600514977 3.298400752087178 11.502714640920942 0.48296707355953605 -0.014380694201704266 -0.998525450791532
Ni 8.51812862515212 -0.1632953934460861 0.8556388603543426 -0.41260317912399264 0.5186894666618099 -0.5242301939743811
Ni 7.449852541766811 3.162938502564958 9.085593291412689 -0.26709982324113357 -2.0288253657811834 -1.1074453511234026
Ni 9.30372491634892 1.4479738944610887 12.265616583268924 0.5728983486040455 -0.875604093974247 0.8789678682401572
Ni 6.427353928313217 0.6269772196942327 4.132599100110654 -0.2858632198915657 0.9968272371535025 -0.1029071184788873
Ni 6.42007596468954 2.0270418457647237 10.933397318350599 0.6445035716458578 0.16614082962755258 -0.3693243138306994
Ni 7.816440805707792 4.947992664148497 -0.37463732320427995 0.040293557412724154 1.0829910747357798 -0.022112772738639336
Ni 1.350274142272355 1.9722175906704136 7.688800985189198 -0.03688864549623325 -2.7418058992525167 0.2617547568791363
Ni 5.583368101107721 3.0153340301870335 4.3604445033314505 0.3907721992918302 0.053844042403649206 -0.5345565156010536
Ni 8.851551485238366 7.224069842413536 12.795480894170408 -1.0380366215122767 -0.6912140883285193 1.3576681961035393
Ni 1.232647509934236 7.647057718131926 4.160172448370992 -0.0812939110844858 -1.115124207824899 0.3150403556761542
Ni 1.8604870301286915 3.9918617088530954 6.964664793641307 0.43479128518525767 0.4106733090911315 -1.4227690423679304
Ni 1.733472745977247 0.6423788647398834 9.845257921839961 0.5148428392222101 -1.0546510901405062 -0.42408855405577284
Ni 1.2908804315358375 0.9453982621035224 3.9303315933516023 1.6025416038463045 0.42400525031334724 -0.3258503018074646
Ni 6.273374328305438 3.8910204559103443 11.983620366904313 -1.563800735632681 1.6697916352432147 0.12126710904331374
Ni 4.635159992288729 3.4956704167375654 0.3531442989839767 -0.7217572512226988 -0.3674594927078188 0.045727069723469634
Ni 8.190343883721177 6.988355947128205 4.764763020463279 0.5018677671187808 -0.6197878140667327 0.8318135791518578
Ni 6.062341021055337 5.360625563774464 7.489594829458181 0.7385051601049991 1.5009981984841634 1.3499024361151912
Ni 2.092331628297638 7.123200951634239 12.472063852174891 0.3697999679155374 0.052913560169579835 -0.33318977289167134
Ni 8.13858742848343 0.913432340354869 7.744070209451891 0.24973407826917635 0.4326989214326032 -0.6177167904703167
Ni 5.844960224011928 6.814523167868495 9.639592803708235 -0.7652554316156498 0.5066489905575081 0.07619824172913328
Ni 7.940405715227037 7.947785017584716 10.280602674277892 -0.3865684456231278 -0.7311021827727087 1.4423194536960322
Ni 5.376830548602373 3.3215981095611276 6.848004564321066 0.40149832746008274 -0.8542605953014643 0.40555038604226934
Ni 4.2575350189538685 0.9962610939596279 10.466905645386982 -0.1856974116032415 -0.3387942635626423 -0.5973739651479066
Ni 8.637606992538794 1.0955914785045526 10.20137328825259 -0.12912517163515183 0.08976698155250347 -1.406980412075106
P 5.298670746851387 7.831144134750056 7.788647276016308 0.840477939695075 0.7578467978564045 -0.6070767942579673
Ni 2.188161220213452 4.787020691494678 12.11077099771605 -0.273309037375639 -0.8025138017464759 -0.09721495319011646
P 2.3679729847791946 2.840616840157865 4.858042561327153 -0.971311095160269 -0.07026336430193705 1.0484310773727232
Ni 7.590096137011422 5.251677212111667 9.635386324985994 1.4167434049991408 1.7319467686157204 0.389138006122517
P 2.975775073478083 6.438178747626915 5.711365370978973 -1.1623646288691014 0.16899989634290252 -0.31111196715602546
P 2.260111721353858 4.117365124606714 1.6103176250687876 -0.30196475343911866 -0.3876377674279066 -0.32478843620185355
P 0.5806820009578985 8.534213846021665 11.546576808780046 0.8322550375646506 1.2105625287305668 -1.4835362942539743
Ni 2.098909433395493 8.79378840685804 2.210742253932434 0.40126692817556703 -0.595909207676922 0.3195783527558238
Ni 6.2502967347898535 9.066251412136852 1.6397390233328082 -1.560135628076268 -1.6777119185315559 0.0281037002147516
Ni 5.230156550054818 1.3456401983448742 12.70190470719428 -0.7107285042123631 -0.31592275828110755 0.719753847639425
Ni 7.411601775987687 3.7919664497308756 1.733166887252809 -0.35167009108404595 -0.7411048025113752 0.29588358024204525
Ni 4.224397252935682 5.775782719138264 12.037245139892544 1.247948682688509 0.21150305981243575 -0.7027549990885832
Ni 6.770901449187339 8.324774320679026 6.149756734265448 0.16378878445560824 0.45352665681123183 0.11320310108825667
Ni 5.452853024327167 2.03653083631205 1.9429177988871935 0.48489257271702296 0.8308098204776917 0.4005058816398263
Ni 3.970912228751523 4.499974121131966 5.432942726879709 -0.39388297700667 -0.13752419433212443 -0.1066825263609195
Ni 7.432155113765439 2.300509025771359 -0.1234204441392972 -0.4197778424955609 -0.35694933720511435 0.6780315281999743
Ni 2.722971782595382 8.83309862303808 5.81742741124519 -0.8235310274280913 -0.9899922165095402 -0.4017693217332822
Ni 1.5678852546203115 1.8088319136249453 1.491703400704772 0.7121564949081413 -0.4104359962693447 -0.42694067879258735
Ni 4.221071499938026 0.09931195932056101 3.272952753457198 0.15483517480674625 0.17453650989041555 0.7372394060186981
Ni 0.3494979470823925 3.071245373518804 2.728026742899574 -0.3133071750351314 0.6867054018248884 -0.23966949494432274
Ni 5.743464875604262 5.280881192728196 0.9488142987005598 -0.15239571212731817 1.403145611710048 0.34365493408905334
Ni 3.9310584684527523 0.5153046986092564 0.9812344022297794 -1.0253338292336278 -0.4847776444057134 -0.9372995141015148
Ni 3.304646903146486 2.5672878493339573 2.962721723277591 0.23534001433103338 -0.4404875642390865 -0.15657966830167871
Ni 7.113850150269641 4.676266667844234 5.542874064262311 0.07858293991122596 -0.13570462462488242 -0.19819168741551027
Ni 3.1964079226216926 2.769126969626552 9.189551171056566 -0.42087133267005583 0.401047098855277 -0.7431886816235975
Ni 1.701099626770155 2.6723484786560054 10.969938223308768 -0.42032265925543744 0.06415545163198628 0.7577946044622303
Ni 9.206808236195645 9.131918911769223 5.5646637345948715 -0.7260707909963883 0.4986361475553606 0.9669577032875799
Ni 7.909764567110137 7.388376780677191 7.9962000583840975 -0.05072015206268684 -0.6616137489635832 -0.5721375591786211
Ni 6.5084801911867665 9.61612459543614 9.464846133320085 -1.1359925666334758 -1.9312661418777703 -1.3270527852105274
Ni 3.594088752676485 0.5058977003103488 7.903149911563554 0.14074013016626086 -0.04506912442449657 0.6657465401850341
Ni 5.867973329242239 1.0756830235795312 7.098894395653592 -0.7743933893611761 -1.100720373694743 0.1838354186938382
Ni 2.92428578399361 0.11801079826610301 12.015778832247568 -0.039540738407099645 1.0131048912676037 -0.31484263784305133
P 6.526739588531234 6.278266225374011 11.730479894415756 -0.06600073237084118 -0.3176986192346077 -0.8549043995330502
Ni 3.9440114011804615 1.460576747925887 5.485932750888608 0.4669480724234603 0.8633990672676227 -0.4055344452026693
P 6.172468587077414 5.233786319254475 3.651261302615953 0.5103410946971146 0.08807391012079671 -0.4022084661532299
Ni 1.0449221115042664 7.16359825605174 6.811814659887025 -1.007783221944374 -0.44229787797494796 -0.32403381742401616
P 7.509587119154058 1.3887183729072996 2.1979063213794343 1.5566456126451385 1.8523283897302871 0.13458645186003917
P 9.160468796920838 5.207944942084328 7.672984772595362 -0.2384775315187506 2.120695252609303 0.7562254602028976
P 5.210681087902344 2.132498617410592 8.921497321967998 0.8511840132586695 0.8178046664672755 -0.7647319550120121
Ni 8.715232462783232 3.3395534907035924 6.9633437050544265 -1.4141478763578226 -0.80088243679064 0.6153889136680886
