# total energy = -340869.19944539387 ev
CRYSTAL
PRIMVEC
9.28099046244683 0.00000000000000 0.00000000000000
0.00000000000000 9.28099046244683 0.00000000000000
0.00000000000000 0.00000000000000 13.58366767867996
PRIMCOORD
 96 1
Ni 7.190846351618035 2.4359258496541343 11.993998304201764 -0.8866063586220214 -1.8886220819549988 0.159063611065797
Ni 1.9595511772760277 4.118987043591319 9.708844926983417 -0.6118739585362947 -0.5934126665073135 0.17227573888069686
Ni 5.692365493642817 0.9578353274647392 4.072763999281937 -0.7690979452901916 -0.2603473350086484 -0.33413259642091486
Ni 1.966669696869895 1.32277314878214 6.144436036607026 2.036508336247738 -0.13987778216596555 0.629200108519568
Ni 9.103055197149192 8.54063646329163 1.9465670717847372 -0.09682800216434292 -1.5201012378622014 -0.671766778237185
Ni 2.637137720312593 5.012449422029902 5.080604374621248 0.5395012612008386 -0.3586696623303307 0.24285920552621398
Ni 6.585317417612479 7.361245334334331 1.5363129589145663 0.8134255635629734 0.9677146360582625 0.0753628903120315
Ni 4.2158713017925935 8.560590592531284 2.61461182864861 1.1313015889157096 0.5906505303811441 0.7908628477711088
Ni 1.675218757096483 7.073952278235042 5.958095096776798 -0.5315190143263104 0.09759213402387709 -0.48554126204461545
Ni 8.368093571805867 7.180442361442384 4.796515116388716 0.1811473303387138 2.130489355881589 3.0598009666816206
Ni 4.879814789023443 3.8585624545379815 0.9546667973612891 -0.19791529382567205 1.3916211560102163 0.7284945699465325
Ni 3.1684094505756066 6.815875779738744 3.443011680478476 -0.5102637044919599 -0.7599746428326847 1.6713301833749281
Ni 8.95413242608897 5.240659693599128 6.34237728626825 1.738766362640715 0.8134566739112249 2.6001437714926188
Ni 6.443114083561331 -0.10794998298845608 7.674595698923504 -1.0641304903858513 0.2525517502236296 0.3992437270979511
Ni 2.764936957349815 2.956598688944272 0.6341737826033547 -1.9365793265605682 0.3112793459718252 0.44162836271174905
Ni 8.419862935944836 3.1385246616678466 9.852424631902583 0.8834205046948721 -1.366493250594337 -1.2597963260557141
Ni 6.422965053524452 2.0920744383983587 8.676133353720187 -1.0884042753315513 0.20227537056658065 -0.010405254493724016
Ni 7.943692445354297 0.9904394465432985 2.794445866148642 -0.08178422045734303 0.8786140844451642 1.571676538836332
Ni 4.9908618384897 1.2302509560425563 10.90991273698822 -0.6255105754831227 1.561139386750434 -2.964812588829178
Ni 3.617757879071913 3.0235888772474433 7.705580285187031 -0.08737431295061081 0.6652459463995317 0.5784570736387458
Ni 0.2664507360837122 8.105506512002371 9.620632826159596 -0.24866835600882337 -0.7488533361085427 0.3194585393485079
Ni 4.787116257467322 3.45508996131219 3.8728124871121974 0.35336881894270755 0.27119070548105556 0.3288911455163175
Ni 8.055444850086701 6.098742936846288 3.0108470056041314 -1.239135455272253 -1.3959467799687635 -2.837537583028887
Ni 2.9940567659727564 6.365515723294938 12.174714963883513 1.0889506347533244 0.41349046682495244 -0.7201032605590437
P 5.180101231604366 7.307369185387267 11.9752794747769 0.8756506309414661 -1.834696278470821 0.14861259093580212
P 6.006703355604595 4.2083815425849656 12.701353623766789 -1.7158789165195802 -0.39945121512306686 -2.3244310097714935
P 2.6688415833277817 7.332799098929895 9.865437508463941 -0.272503253644892 -1.314899180567129 -0.8288542394132177
P 0.24265149254452936 9.269389106094806 6.457417017780506 0.628430320233079 -0.9939098063963915 0.13842459465920676
P 8.86443165441397 6.42199054953833 0.7837935560384135 0.0686566819364495 0.061701590774855035 0.45096275273879755
P 6.677217783999012 7.2948584104035215 8.693805287434245 -1.2311784052087054 -1.3392575548068355 0.4199791598730896
P 4.818857244443887 0.3128621844970772 6.293788517520177 -0.6203128333322673 1.7537942035081153 -0.3575327205124101
P 8.174260088470907 2.31828929704362 4.513431917509477 -0.655991003460167 0.4633140752152988 0.5471117265582448
Ni 7.475039556942419 3.856093711106471 7.555751689469231 -0.47528564575487825 0.37699417167113136 -0.46091420752455453
Ni 6.276900827490189 5.733480280866847 10.43006975851855 0.4759363919649997 1.1854467074995456 0.26438216719965435
Ni 1.1229534266752852 6.494196654414843 2.431082100793588 -0.08690765772683742 -0.754672513893481 0.28271156163646155
Ni 4.3690169234593474 7.453034328836736 0.48709143192835225 -0.5073074500771134 -0.30240826873444043 -0.8218263860321589
Ni 6.5408893168356315 6.044866787899225 6.599339137824232 0.15172079754748063 0.12409686518262501 1.9015997251615897
Ni 8.276777907811004 7.621567832493883 7.377575236844643 1.6130491882458478 -0.20465595498361527 -0.6234506076303006
Ni 2.3447679624951223 4.250619329640623 2.914783186949268 0.1472337083104045 -0.42666454231306516 -1.3360943265875054
Ni 9.133682465284474 4.080201784943639 2.5510259076036275 -0.15211597610337027 -1.1039324528741374 0.07539811442534111
Ni 0.8953928244301401 3.2450333068558757 4.740442157027222 -0.7047707439670314 2.0747473251242785 -0.08448439299732546
Ni 0.7368243201053725 5.673450835321694 12.494311434974213 -0.3572169890442041 -1.0728886961944555 0.06511935820715237
Ni 1.603114743113754 7.461860550653904 0.2605006931741579 -0.7484339891829368 -1.3764920136782617 -0.846944007035393
Ni 8.534167613021847 5.481046624499715 9.036630221157973 -1.0419431556555345 0.7884789209199646 0.7008305283723607
Ni 5.266228821996916 3.439033848017027 10.443952263875143 -0.09870696435461064 0.4187373170461885 1.414458979840338
Ni 8.583486795709993 0.712578660930642 8.401376131278573 0.11976352791459376 -0.11101869184242816 0.006689239094717512
Ni 6.806984590989168 2.336303699301372 1.2972959021887573 -0.9723786171928351 0.27932027656672537 0.2990581213152849
Ni 4.3634483292529325 7.381849132898066 7.873990351672602 1.6041652554926566 0.7681777474687673 0.5704100349645531
Ni 6.196935814686071 2.573033920006414 5.9871780081188355 -0.11196125826135557 -1.0760436968836693 -0.2595394943953723
Ni 3.1129462522797144 5.4991631176512525 7.412906110886277 -0.043847850422885776 -1.1750157419742084 0.1465582795099347
Ni 7.535152531400668 4.315010840647467 0.4420869816511414 2.0935148355397684 0.04598777958402403 2.412054462618433
Ni 2.3346980879718555 8.529257969129857 7.696858938560751 -1.5533918815945311 0.5664145406519149 0.6047977684158037
Ni 8.026265416445087 4.469771354634081 11.609566690765773 1.1341406010264017 1.2788140048087977 0.30331586815037437
Ni 3.404629216811727 3.9316038485454574 12.106688088958913 0.31016117320698194 1.347532650331434 -0.6048353065219584
Ni 3.166655343400586 8.946122931422076 4.830474260057503 0.45982405978416935 -0.36052188504772104 0.25146520202767014
Ni 5.7595413017528685 5.744051328868692 4.454559811460225 -1.595158681118672 1.0588476447203572 -1.243326096314833
P 6.388857414010161 4.287065778721608 2.5517461124543237 0.8350503409216006 0.4333869486385633 0.3838045097247455
P 8.550743461776273 6.564342379434982 11.103914206248405 0.1888909788398747 0.6587431122840074 -0.4546314598396364
P 0.6878596712483663 3.1175403425000066 11.644626559889362 -0.3545116742978991 1.3217881943774783 -0.11020956567757148
P 4.068684075926703 6.764152820551493 5.888899745167887 -0.4595204125008215 -0.7896017216704982 -2.3083999244505597
P 0.9968526108710196 2.250677282387399 1.8869209311407926 0.1405133588674354 0.44559094690392287 -0.20639196383811553
P 1.149422811136444 0.07767632058528147 12.605493986899495 1.138918224920703 -0.4482317269608797 0.4517109437587317
P 2.930806816778227 5.428098574587054 1.0971355677362769 0.5137670896595281 0.34088277066055483 -0.5469937129231418
P 5.6075558038791185 4.388813275863153 8.60492773960276 0.036168479500757064 -0.2386112288831375 -1.578656826808907
Ni 2.5424808997938837 -0.05013219744228456 1.0216560575654259 0.46407435042009104 2.5982439833667446 -0.029099745579433758
Ni 7.493016835238796 0.45986657485318977 5.523553560275349 2.219490405802345 0.5647867752405047 0.5178811118279016
Ni 1.2773705440191703 6.286033321988709 8.350750185149986 0.09469681475395304 0.498428916640561 0.3285450750308084
Ni 2.5403277100340698 1.7679080076622589 12.00410437458737 -0.8990795513883678 0.1638898288098468 0.9089716136910991
Ni 4.739495496012131 8.28301473332219 10.029473444200374 0.46575302367409466 -0.7885144021435904 -0.16807249943262667
Ni 6.352522336813304 9.324425378834873 12.046593676481352 2.350797415580164 -1.667819084897876 0.9023751914205039
Ni 4.031875668222302 5.432395673116337 9.72377339995178 -1.243266189611175 1.0182450407076464 0.2043523077002674
Ni 0.09687497721093123 1.079536953845937 10.928888649845613 -0.8462114997447426 0.20024574173106158 0.21993165019576313
Ni 4.763505418032123 4.417324478199997 6.183203661373052 0.8905386037968921 -0.05810898832759025 0.24086814323811417
Ni 2.1498393222995693 9.283681831224602 10.514356000426847 1.1126297235378193 -0.38434855515367355 -0.46201566811884953
Ni 7.530493474247968 4.489344963269629 4.885134652688638 -0.1949505547703933 -2.181747896946249 -1.313463476561867
Ni 3.7726204839523114 1.7758339734160562 2.4516617687824285 -0.05920016450923998 -0.28232538194163637 0.3062615810422596
Ni 9.130963135113674 1.7906093100437437 -0.2199891703224895 0.5760476928663048 0.16238496212954615 0.9294779611745669
Ni 6.019102758704212 8.04112428198587 5.406802414143654 -1.3414872154683026 -1.580852291798329 -0.35587950117970324
Ni 4.970007453186676 6.027919699531036 2.1820257968126473 -1.0092338383479715 -1.870498889991727 0.47850415269217594
Ni 7.199060028072497 6.330693447524157 13.009336791640012 -1.5650700892634077 1.1421143632604975 -1.8438686889987084
Ni 9.287487037265652 2.2545381743705133 6.650821719361572 -2.422581330291686 -0.1583599001305531 0.01592027077468226
Ni 1.3943945512669793 1.7850035918759528 8.874793880133073 0.3296586198099613 0.352006134267226 -1.1465096641147159
Ni 3.981433485702526 0.8081273846214121 8.308735141862586 0.6892826756337613 -0.5272838931990403 -0.002192636775944611
Ni 4.683846677909358 2.0849187948431154 13.099192555853756 1.1749761469855249 -1.0002524607849677 0.3120553049059013
Ni 0.9593666908715033 1.0581164281319275 3.9616631200716848 -0.8690716921723678 1.6628637977751295 0.30414067804451494
Ni 7.240620302833039 0.16046739494915502 0.7517787798466998 -1.567063465544353 0.8431385172463738 -0.5596725939423909
Ni 4.054716185458947 9.021530977967279 12.267233444226958 -2.4021384890563016 0.4786779592658788 1.8001607065877967
Ni 8.514668252309049 8.38304524725009 12.877452990752385 1.3805121905812483 -0.9616473468182599 -0.9965102201337162
P 0.4325442673794151 3.815489378351362 7.941595869635582 0.6959148362382982 1.0966667724506596 1.9225521590435406
P 2.891297640883713 2.5188514983779964 4.463050061426938 0.3418875577759854 -0.005169717126397549 0.22599456856039146
P 7.3344232722401 0.8545601793125684 10.162702060588849 -0.9240135956258859 0.28760539939365304 1.0639176030440969
P 0.5503970670649457 5.581281320215184 4.486793619024057 1.1313915775263548 -0.41120707010741436 -1.6834740178263135
P 4.9357327558461925 0.40836635943419597 1.0196160958878093 0.6461832733411258 0.5251624759806633 -1.3417306989376763
P 1.6430137206027167 8.744493416198136 3.027568565906961 2.727030797825871 -3.17564844737126 -1.189756390618493
P 7.007648883217329 8.30727524208147 3.4658187861498826 0.15575177308374466 0.5432216474752193 -0.43246957903061656
P 3.242824431153998 2.131871324993537 9.94877337696101 0.32981777109564486 0.9312646207613445 -0.4837875125783023
