# total energy = -340868.0291471763 ev
CRYSTAL
PRIMVEC
9.24201582728058 0.00000000000000 0.00000000000000
0.00000000000000 9.24201582728058 0.00000000000000
0.00000000000000 0.00000000000000 13.52662436050214
PRIMCOORD
 96 1
Ni 2.295550396615131 7.552067093598051 3.3800325731410092 -0.18404882025622496 -0.2590730962819151 0.12230197806573131
Ni 6.667985093333109 1.2479031987139086 12.37599552432478 -0.028631547693763595 0.18638775280204675 0.4680952986540261
Ni 6.7787044439762685 7.183393836794522 6.942133783978622 1.6590729632741297 -1.752864492604994 -1.3670025861305874
Ni 6.115136943406301 3.908078849162477 5.50338850186147 1.0979559235757286 0.37569036525804334 -0.08692822655212772
Ni 6.315235829948459 8.943794543957107 4.696497666908864 -1.0014017438980625 -1.0777251983511502 -0.21549186925685468
Ni 3.323438164493392 5.048026059991348 5.1185694432571385 0.46848996298928347 -0.22800799944599442 -0.7888489026648737
Ni 0.33662471822045037 7.960444050765772 2.0424661086395592 0.5804903020186907 0.9042351274473782 0.17918146486159464
Ni 4.947593073059861 4.446814440789444 10.414729767500814 -0.07477333635714865 1.4465314348948506 -2.857719457293401
Ni 8.91775978512891 2.827798093070854 2.3355341300615002 -0.815200653185525 0.41118033063453696 -1.0219240322211303
Ni 7.755262055471215 4.340133851100463 10.4639804703036 -1.3236283329100107 -0.2829329336186482 0.1379404559339366
Ni 3.502419044673311 8.840478048060621 1.4706819923076784 -1.271996724776648 1.1049189851571228 -1.268111787899945
Ni 3.5575384275811412 -0.28459771383726146 4.6672938208239465 2.9663174555094782 1.8954794711964646 -0.8157590967921564
Ni 2.9396726957031953 4.775349622480849 8.235401417803711 -0.09051234435896026 1.8450161723395904 0.04423865810340123
Ni 8.149951587071113 7.381237671453797 4.370655608654639 -0.29007005888406173 0.7266842562106711 -0.8273460302988075
Ni 2.064084108062716 8.385604508832323 10.81316970915839 -0.33539269408026107 0.7529761000276646 0.945721419616623
Ni 1.4608484873757652 1.3234012267109012 5.241702669675247 0.4832131281320711 -2.0899656847359296 -0.5372039805262296
Ni 8.11910173795201 8.431195373333383 8.85464975526231 0.1579642073540312 -0.026436854035289954 -0.036789143803891484
Ni 0.007235574258641874 5.213532080969453 3.4411195257241554 -1.3718432020523406 0.42246593085068535 -1.301365150636436
Ni 8.376639753396272 2.765636294036973 7.121213553728815 0.007920026178025069 -0.8631648397696297 0.09958165365008011
Ni 1.3507483517988068 4.471462897230621 1.6991067334229764 0.16395102106508538 -1.5683834699073569 -2.951294756848401
Ni 4.680646685415702 5.292579043077211 12.413342510631042 -0.04721496712290578 1.3820599946843426 2.4459200050176264
Ni 2.2827779306227396 5.55256619273854 13.254576676718035 1.5803259869812138 -0.7355406781600365 -1.4950237260682833
Ni 8.606257638765998 2.2963636940155148 11.743463637393775 0.8049265249530266 0.5688573457654525 -0.2918983703420521
Ni 0.9963077995019942 5.535764207807884 5.48549226224666 -0.1375175094639051 -0.5003981245517898 0.9180213825981931
P 1.6976012090306751 6.616312982360997 7.328048945670288 -0.46536890086179855 -0.8283348765746379 0.10978199122184963
P 7.173209135257897 0.6542413823117033 10.139057068431173 0.500428463569093 0.18839964102575293 1.4661180987775264
P 6.158149285467509 3.678599594031454 12.004987734301514 1.3699734958334537 -0.49092386651276737 1.181558942409365
P 3.2901946332527037 1.602131184644712 2.9158939129594734 0.45725449928478024 -0.32723355530823645 0.7609213230166701
P 4.6907944188886725 7.625725960428268 2.6914598743156044 1.6691480881219447 -0.5343246020959056 1.7732980778689977
P 6.853084188047734 1.7149484729002251 5.145365744196602 1.9229686777556687 0.8666175742049205 -0.8410376688532871
P 0.4023742678319333 0.3504720306635761 7.445270978710152 -0.788621617145416 0.09165545682446796 0.11341778820222402
P 9.090650176821864 6.627578999759496 11.820416358695546 -0.7427521083068112 0.25344932233723444 1.8295062496294492
Ni 3.412216969358016 0.8161430170835621 7.684651205489256 -0.4356803726584303 -0.5546003216258061 0.25889389039157346
Ni 2.837964310575652 2.951474750024674 10.130157007106517 -1.174670185709332 -0.5418147398253637 0.4842685659797788
Ni 5.187589742300393 -0.28474188928551136 9.119704302248985 -0.44888170184005277 0.756795987994387 2.270751775080483
Ni 3.4726597534319943 3.071787313185997 6.412850926227934 -1.904807947686242 -0.24259438190060156 -0.1472578766801206
Ni 6.517793092723594 6.292315630483097 11.164781280384094 0.2446209254123271 0.36988481431985976 -0.20917312612767847
Ni 0.8209821366158457 1.2048169205253938 9.788541600292804 -0.08078277577602216 -0.606750264156484 -0.5369185880753269
Ni 6.563679701733887 3.616068114361035 1.004276265622573 1.4233313426293035 2.031015431453967 -0.05473055877366058
Ni 5.129817900825402 2.246234999700949 10.533804824731325 0.6574426483050291 -2.9552144036177816 1.885982587449623
Ni 5.867349254750729 8.603244741578212 11.32627534225417 -0.5748158773417327 -1.3248943441066279 -0.5557766013220945
Ni 6.502959657182504 1.905435662892392 8.59328831783465 0.6490443969390047 0.20408465586117755 -0.7479922736598279
Ni 5.142516430690486 6.641968818536741 4.662843790161618 0.911684641746888 0.16676123682037086 -1.3559365581244132
Ni 4.452156325987419 2.985965953413678 8.524830857560525 0.40367656605832414 -0.018914063295683552 -1.752194463121163
Ni 7.361136286842039 0.30205403349459037 6.756656690813137 0.7838740751581016 0.5170493599552257 0.5125951808386141
Ni 1.677361194180214 2.8616978074413977 8.209876818253939 -0.6811145380006722 -1.5516687282558372 -0.5701855776585728
Ni 5.3269131321956875 6.322500054456433 8.459997191726066 -2.359703716930859 1.9749008478485859 1.7882783533279136
Ni 8.589252329485246 2.9847922173926698 4.632003183058428 -0.06800079352000547 0.2637789863980167 1.018204417277698
Ni 4.979783014486415 1.522501975534406 5.932020261105112 0.06152367043609404 -1.7109300571547372 1.0704893427243434
Ni 3.1943272021824622 3.5388972814837074 12.251510190978534 -0.5609969691807694 -1.4205902895490568 0.6599756991395279
Ni 3.236572456922853 6.267565511866871 1.7256451821184549 -0.49014687913742677 -0.4743369086883637 -1.0743861066755884
Ni 3.7965554431348467 0.9911599966382013 12.572375423663363 1.4056946033841469 -1.7025474895179968 -2.4001070604485695
Ni 0.36584704833719545 4.781624951286084 7.843034404802864 -0.5908834723275566 0.7091817285505335 0.5773712967737347
Ni 2.526933507024325 5.213984939749213 10.618846158360547 0.7876042316244952 1.9691253788173895 0.005069958323739656
Ni 8.034694406614449 4.929099799217043 12.95695049304758 -1.7601008624524332 -0.29757562323248754 0.3197716997135525
Ni 0.732454714584068 4.422461728857496 11.830101991372844 0.10279270438821006 -0.6773237034996722 -0.314583984865026
P 7.703026181528382 5.772840400019765 1.5864428626316263 1.2700108046948708 0.030851181052901702 -1.9461831681989192
P 3.327532377543051 0.8790645098255286 9.962183367879522 -0.36680771805643275 -0.9889208378222324 0.3101148933500788
P 0.2380373618668797 2.769249922259133 13.774973336167939 0.9289938224492968 0.9206228247767824 -0.9343717989317585
P 7.464314152499821 6.013502494406065 9.161501319217573 0.39720689917358043 1.4548504962835072 -1.359755417649871
P 2.1555430975422407 5.346663320202735 3.3309445298182982 1.1400171144118367 1.612963827620893 1.4656437302442695
P 0.21073737106013268 3.392836461987506 9.818976482897392 2.068773881149663 -1.1477749039803846 -0.4725577053007539
P 5.325850300365641 8.549825889598457 7.206688337904379 -1.8597568209838746 1.1390051282075546 -3.4359186492850697
P 1.2313969582924826 3.1219622175801303 6.163933863227738 -1.0850189037990863 2.635307463877945 -0.45367758056679935
Ni 2.811652291270053 2.0210902500333354 0.8198010069821066 -1.2705345384088247 1.1976748741346213 0.36062087251943054
Ni 1.8982638585435532 8.03260571101801 5.625060565563661 -2.490452283102046 0.6190061987057016 1.3161914170159912
Ni 1.6530362082960075 3.378714661671751 3.8384365624482473 0.7365254106708089 -1.5467090702577169 0.9067501805597481
Ni 9.07634353618784 7.475617137961973 6.5527029594334785 -0.4217269958021318 0.4944115679510518 1.1237124637145421
Ni 4.424679812676724 2.9866036525117066 4.171097380043419 -1.9597863608046506 -1.8649149681460464 0.21137270488215856
Ni 1.620994139124068 1.096056877255886 12.148680749320688 -1.2535732279641378 1.1480068174855325 0.3253767046051558
Ni 5.14675851599476 2.095220459675137 0.4236604788837969 -0.5730999230918904 -0.7965663259137894 0.6351858937893576
Ni 0.42128065978608287 6.360882146545 0.48333155462900224 -1.3964684568001886 0.39828059185373343 -0.4692332689132112
Ni 6.886604979765826 5.302283159786336 3.413551516455918 -1.1335304782462283 0.05519952799027913 0.38006586861791963
Ni 8.819202927427854 9.04472659974792 11.64292067047292 -0.5589812243023212 -0.7599013663925881 -1.2229192505237068
Ni 0.31615827398011004 6.677800114233196 9.830081689218998 0.6515311679166005 -0.25317164319581553 -1.2744711544590697
Ni 1.2548624366967385 1.0936169850547346 2.314216496155531 -0.05447884777417069 -0.7187619160398008 1.2751450405976426
Ni 8.948424793929746 0.656882750459768 0.4135681975063069 -0.5588575542402634 -0.37307349646048654 -0.15770452593474132
Ni 7.27223733577054 7.8896317248369 1.9389333495707004 -1.5891065613873212 0.17818413394533184 1.23736576496634
Ni 2.743584844067476 7.292412656509607 9.007460018980106 1.1173063030778823 -0.383345824920772 -0.7941834275039097
Ni 4.789582326987566 4.629667725637098 2.8136596571264545 -1.47055556572359 0.010534066762104438 -0.8785024985679645
Ni 7.455293944968291 7.637990115545418 13.22176105081414 -0.20601015501866457 -0.3908935553610429 -1.038406860367502
Ni 3.5313280704505905 7.534738313760329 12.721492577822143 0.1484027889178412 0.43367002709662084 -0.31444540240463265
Ni 6.513135116703214 2.922879952788452 3.2381519174424622 0.8931331039969457 -1.094004395127148 0.010069468420860078
Ni 6.383959460280891 4.526388197804268 7.835540978300237 4.409716001202303 -2.6743396380797426 1.4883154608101723
Ni 8.009094022534185 0.6398219890835348 3.143438814159811 0.70330444383415 0.047193112746034854 1.1158621144321879
Ni 5.516651718898865 6.0751929506283595 1.2380678453788125 1.1594130024399452 0.9791025661802298 -1.2442524647838442
Ni 3.748506202400808 7.051427091566335 6.3656704349897595 1.031868802138668 0.21663883837710432 2.325876741079085
Ni 5.465284594451896 0.5620726060100252 2.504535481458073 -0.9803354101460665 -0.24346881408575485 1.0183180600374269
P 3.933956493720143 3.966248097321746 0.6820626228159689 0.3869710803781852 1.5819810060861335 1.1818775020910484
P 7.897237903933671 5.453334667875803 5.247275605271059 0.3984605690750234 -0.6127039106367577 1.7561573044236527
P 7.059754147904356 1.3051205192340924 1.3633757181413568 0.38186255550702625 1.6587099235077565 -0.9429780525435308
P 4.677097751304936 4.820339755947535 6.92269690031104 -2.035019410407037 0.8913166196134973 -1.2865016032610423
P 4.373626916770814 6.852806927570331 10.4083453829078 -0.09007782792470292 -0.10570576426994699 1.7240046309505082
P 1.6761967001751192 8.729573857099194 13.605890655031327 0.16312852516379003 -0.7585556509979711 0.3698416197867501
P 5.32483367861516 8.7109604370495 -0.1778173103764153 0.12752568835851588 -0.138682990526916 1.2531963042406935
P 0.5419148451011943 8.799979534327873 4.1081306014234755 0.017896677774762726 0.40786694999058787 -0.5892719048660626
