# total energy = -340873.14291057206 ev
CRYSTAL
PRIMVEC
9.18169919911859 0.00000000000000 0.00000000000000
0.00000000000000 9.18169919911859 0.00000000000000
0.00000000000000 0.00000000000000 13.43834487828733
PRIMCOORD
 96 1
Ni 4.744835896346796 6.466836043127774 5.21698090718584 0.23602855575762577 0.27064691716244355 0.2747401133952107
Ni 2.6477266089419214 1.1330308675314424 11.327906742794054 -0.8751592931273443 -0.8441219642055656 -0.7383393239510961
Ni 2.508403504721355 0.9919173319596826 8.297170141034892 0.11553020655953651 -1.4703611903245968 1.4496445266025357
Ni 5.85061548054315 1.9333628632141817 0.10645353912242442 -0.5719961485047503 0.7294569338598018 1.184366329951173
Ni 3.247282387411591 1.1873589819161194 3.71341797610009 -1.1403760404131522 1.2500852694155373 0.37698491569975073
Ni 0.7932997322372053 4.242128681427841 7.037876218277435 -1.245911597653822 0.49702175188038916 2.339189913248223
Ni 2.6841045013184788 8.882320751571804 1.8487131052695995 -0.7663481504591964 -0.44202097016447744 0.9794617492918614
Ni 1.7014055953926337 4.004331852891631 0.53135870738767 -0.9456445436321004 -0.9309080087528742 1.0493034526753475
Ni 5.515538548592092 6.820046831071689 7.400362358790456 -0.6610949003456357 1.3885093498541117 -0.7850390420004802
Ni 6.750293461969037 4.052802043163173 10.935131094668456 0.3810549720040663 0.06716055700689723 0.6360071041390724
Ni 2.6283991320482682 7.630561331208139 7.83372203571303 -0.4039568163029043 -0.30862622461969424 -1.1202134494223484
Ni 8.461835653319197 7.158190450567868 12.861866607373452 -0.9521157531787409 -0.2525862030059908 0.40357963546914366
Ni 8.093025158371807 9.220905092631353 3.1151834441506097 -0.41344315852678465 -0.31588599150590113 0.9993564313332596
Ni 4.993806852854301 0.5645771770568138 7.8141154351625755 -0.5729888514353229 0.3629569768517749 0.06817382876276001
Ni 6.224944176731912 2.907238156173376 7.049097172914838 -0.4755823510596906 -0.5383033842379956 0.29075911453128633
Ni 2.9186785534225406 5.472696739952764 6.682244216244753 -1.7202875871102374 0.6792492026571593 -1.1973573428942024
Ni 5.215003169170214 8.76229757914718 1.6097391828912204 2.2143695396360124 0.9094578092988982 3.0740027121032996
Ni 5.183482395689971 2.253005358748027 11.163771014555717 0.014989788540612895 -1.176086349330568 -0.7713394330262007
Ni 0.5975945675126696 8.974569283804836 7.965027680159944 -1.069080378191959 -0.3679552013973147 0.4811063662017134
Ni 8.833731199210183 4.075912380142425 3.570138477678348 0.8184042477244874 0.11095595692529277 -0.21555203307082876
Ni 8.483274921037335 2.4134188261157297 10.87354301069717 1.374103458841427 -0.6183120008521544 0.2096150987611035
Ni 6.512450724936643 3.9718378192922783 1.5315680319281877 -2.2096276540756525 0.5239818254090007 0.23957899211304545
Ni 8.823117154892339 5.651914327357616 1.6335923193387365 -3.0981165744323675 0.3244102269268284 0.3219152284191166
Ni 7.901045009027676 7.4625178717745815 7.757634212306847 0.8276000552911424 -1.4298840561461568 -1.405470917409115
P 5.361001368736 4.0645637998856285 12.845042061691773 -0.324055414690571 0.17255701756654152 0.062050232363525394
P 2.233126979900161 5.937823259895129 9.830149400135788 0.7578856215141399 -1.1424560628706324 -0.8177249622692756
P 7.270785628309848 3.9769703891657 8.889128981555958 -0.0740526561410402 -0.7336596590872396 -0.867916495522002
P 1.877492223357707 1.0619186069417306 0.1847330341364524 0.7562213464378396 -0.5354512595011811 -0.45779777338275995
P 3.992946545837888 2.371256463219932 8.789578243919827 2.626965262560837 1.3277865780527587 1.1525972650696923
P 2.0911779096978442 3.1618742211100415 3.1407425403163396 0.11594415416850355 0.8358820927942765 -0.3528584549651923
P 6.691264317575072 0.7959238618791085 11.975930875195417 1.4457804156614391 0.3938456960108314 -1.1304495253280595
P 4.714628105857429 4.391698561996777 5.823815936810516 0.3620627471722797 -1.4566764937486525 -0.25176344999437933
Ni 3.2448033286176305 5.155312942431193 4.112133265462031 -0.010869595724652247 -0.8850824657783273 0.1521008065947187
Ni 7.659832588375345 0.4713664027437555 0.8796848313375597 -0.10622204178473318 0.47413713397273183 -0.47359720230886176
Ni 7.099253123166272 5.130200995018299 7.061366677605093 1.1486267104577186 0.47674217569574673 0.8131142029701415
Ni 2.4804452305450253 7.499143670030534 4.638029779973676 1.0411635971770328 -0.0748034182641357 -0.2466947772222203
Ni 4.0642332587131005 0.23229239984369435 13.482556821146593 -2.073610126196042 1.860949298630079 -4.13607374885696
Ni 7.351143860031107 2.2987761294439233 3.43172344351231 -1.0708531538216655 -0.450757578706527 0.2478137213180119
Ni 6.818430852005997 1.447953969657527 9.491032520520498 -0.892889877637888 -0.2865129376604227 0.5835748544812853
Ni 9.06920505783946 8.813540642588261 5.618410306842206 -0.5586300116104895 0.20899006358259492 -0.15061008098180514
Ni 9.249827445227556 9.234861275471426 12.122623211223512 -0.7893484680091115 0.597404818385842 -1.6069541310917037
Ni 0.6804190036489581 1.5775077458900424 2.128056204682812 0.5531910999831054 -0.18492170977948152 0.6471371526139629
Ni 4.494083690187335 4.652660817707659 7.98982194077924 1.2788672266442365 -1.2299663871784752 1.2191682681217069
Ni 8.725433056711069 2.4538458478557557 8.322044282437549 -0.23137203082222088 -0.5170948684811805 1.1404032941066617
Ni 0.8188129199067512 5.780357117982469 5.1397637347735206 -0.3619797005401702 -0.058478712962183155 -0.20573530409072308
Ni 1.5844123837161834 5.312219000690404 2.5353049653155186 1.3184722426303679 0.3764791797079258 0.8361561723912697
Ni 8.375876585063436 2.749193567208791 5.861053236235646 -0.09657937648864658 -0.5523773458325584 -0.7339975020426327
Ni 2.0794161529753885 2.934204806832121 9.51355522874859 -0.6766968685489507 0.6848860892279623 1.6278284034375514
Ni 4.372618990982519 4.350344188633825 10.415536898513013 -1.2754929108553645 0.2780416669646179 -0.16161003163673457
Ni 4.178242418137562 6.785753184421906 9.371794383380632 -0.24421906198821808 -1.1711724569687185 0.6414503866418307
Ni 6.669522053782117 7.9220894636786285 5.025592059272566 0.6082073083179848 -0.1615457540577024 0.5937402250500613
Ni 0.3085262122677433 4.480513138715212 9.378647603691045 -0.24569616075437686 1.1706854900299708 1.1143050543577133
Ni 5.931377707030833 6.062859640103095 11.819978795486918 -1.165151190475303 0.11007124032749432 0.21707078370820035
Ni 7.387815566783246 0.5433261341730322 7.35856910020398 0.6322463515450595 0.4347642886020642 -0.2628785860709344
Ni 0.3806741685313762 7.47069876579465 3.5251600876265954 -0.5011164907750532 -1.9829671697964881 -0.9657569981112594
Ni 7.172155815107178 8.115465231306766 10.736592457559416 0.19641248402790043 0.10518820120358012 0.7261173279636076
P 5.280569683420845 1.5559032075856405 2.749135722503598 0.23720149301980437 -0.7380729576635869 -0.19346625691538294
P 0.7114742649778905 0.6289280343284799 10.026724989947981 0.5573519162290143 0.19799165558956225 0.11533377427801426
P 8.14178916301893 6.061803744690853 11.13345396184543 -2.3576437490780364 -0.7397778561698356 -1.5661265555523802
P 7.118002153008001 7.658510423685232 1.7893828011406647 1.7861242830993886 0.9936470396533081 1.084186380595462
P 3.739568373696676 6.999402143965096 2.686271382338385 -0.44701225273148176 -1.2636123573676947 -0.10764154784007912
P 1.3616827236277098 3.779003771919118 11.816524640234002 -0.10349358710997661 -0.9579287603160922 -1.0554756429243306
P 7.866356549310708 6.261698518777182 4.360971087330601 0.5852650976995146 -0.9155109574715137 -0.19261187933488766
P 1.166920519414803 6.207049044919213 0.316043269432985 1.4523840370208856 0.3680017383645339 -0.1450909509357888
Ni 6.207948851444429 5.917283798702207 9.438528809774192 2.4360917060732947 -0.44179188487280685 -0.040360920315549845
Ni 9.108355823385558 1.9991221931487868 13.23482080318645 0.5289841637195986 1.7588178819749516 -0.22558113517205666
Ni 4.191427338241736 6.958075315699855 0.4437248971910987 -0.9181517375284703 -0.7757779284135284 0.901215623894764
Ni 6.493361972223149 6.1123673623884045 0.6693651559376663 -0.41481895582838885 -2.6097239589818866 0.02109513010740238
Ni 4.568987992561882 -0.20879826783634065 10.088367245944767 0.9396893544899301 1.0486635050985038 0.7641825102664452
Ni 5.116446809561438 3.58258886184357 3.466945359954943 -0.759991097892917 -0.2948422834617245 0.8839822907356131
Ni 6.830715965584955 4.389715314961609 4.915303324378892 -0.7627511771365574 0.33289898112412986 -0.7425037397414309
Ni 3.5683939548233385 2.5088717713824367 1.6051024247765913 -0.20777264623572603 -1.2924663054849095 -0.08918694067931737
Ni 2.431864859882641 8.037916599551993 10.19178898797917 -1.3368584584470398 1.6657316062412282 0.8487720613830673
Ni 5.8253658076417025 6.049380905623341 3.169568485070555 0.3834903209184364 0.3423552414410233 -1.0231260229490315
Ni 1.0246959982353794 6.10010061220792 11.543296552512556 0.3568711756690112 -0.45207166953226013 0.46871724850874114
Ni 8.536840954385351 4.656553858184101 12.82973616906388 0.16995300428479118 -1.3496975191932368 0.1003244453533756
Ni 6.28632383613052 8.129999861198762 13.149568725771928 -0.32271792682607003 1.1566878901992983 -2.3754432391533027
Ni 3.479202928436191 2.8063863717553774 12.613982764055594 -0.6260798177230315 1.1449867997122862 0.9290295607832387
Ni 2.010131050533818 8.127171897833799 12.563817632104923 1.4931820448738544 -0.5578746215017037 1.3709713409703486
Ni 0.18842774990937688 7.026010708353602 9.590503377373269 -0.07749124950894397 0.6107663272944126 -1.2119807492343322
Ni 4.743633093746764 8.53663895700214 3.8001896247383176 -0.2371996932475915 0.3524643048505672 1.658469525362176
Ni 2.9732270285889033 5.292257986549405 12.4867088037436 1.642515573136081 0.3272682652009138 0.06793085951401849
Ni 1.6233336067813597 3.536882363042333 5.215247402369915 0.13376138485558253 -1.0886282184168994 -2.952383104816573
Ni 4.759948973290717 1.471872296169625 5.585930045791708 0.36171847645898353 -0.24947953905620904 -0.48059831621704324
Ni 2.901637319638873 2.9173563887324283 6.91175731572944 1.1701013353917267 -0.14589981999032936 0.2641242855525774
Ni 0.4147694904776429 8.118779824731282 1.1284289998739132 0.29047140808753846 0.908639427162661 1.0895831261310007
Ni 3.855322055976146 4.80974132825237 1.708430513478778 0.8318590876778125 1.2673898221322561 -0.7753986906972388
Ni 2.2965266131308852 0.22355050400025156 6.115696646531701 0.28790981800794935 0.6587050599572204 -1.4391472266156378
P 6.9032054810602 0.8449853535815055 5.316249766655398 0.6742082977991422 1.4951355690557993 -1.197536291674228
P 8.29461854681696 3.139076061904844 1.3943356006238612 1.99206887498744 -0.30428440271123075 0.668449540938494
P 0.6051226427169956 6.367159516212098 7.216740310261668 0.4511247322379585 0.9368667974394704 0.6696150220015048
P 0.8176073627969475 1.7235426722527751 6.86203565985191 1.5715176446609644 -0.18408995790680552 -1.3696796187421187
P 4.309806986502956 8.379356449074216 6.184406974601043 -0.6216852881997615 0.2726683184678465 -0.4402739055663836
P 4.342806013560338 7.730155222830684 11.939674181248785 -0.6395266872565567 0.27127992276075213 -1.4293004157285447
P 6.350907908562803 8.29848404219569 8.804467287402368 -1.5015239890806464 0.8216536078997204 0.4923937661900746
P 1.2896155663173616 0.11000593855717711 3.9501478911849732 -0.00268860257575666 0.925582996995535 -0.44214643999874814
