# total energy = -340851.35121150024 ev
CRYSTAL
PRIMVEC
9.54314459166431 0.00000000000000 0.00000000000000
0.00000000000000 9.54314459166431 0.00000000000000
0.00000000000000 0.00000000000000 13.96735674573341
PRIMCOORD
 96 1
Ni 3.4200054074148833 0.7586294276098476 11.353826659369753 -2.059566503618782 -0.5493100197611442 1.394565840460837
Ni 4.769072062601532 8.110928657797524 9.812961881338403 1.5263330777045263 -1.5823350469914426 0.3869597675242755
Ni 3.7635299883702387 7.617490816230795 1.7905029467885543 1.3750015451756643 0.024424708701267613 0.5777528484828696
Ni 7.833967511355146 8.151973723294343 4.1469783153162805 -0.44810882822977016 -0.6417936289138624 -0.7393343408745138
Ni 6.374248092988862 5.866858173822422 8.47231896000761 -0.4204661268118372 -0.853438356510485 -0.5941158632219253
Ni 1.5146211300154822 6.491857808678885 8.31886042112791 1.5894042951333984 -3.445138882331757 1.4596240064127508
Ni 1.2393777496250507 7.850868420677366 13.613535494618896 -2.3529859385910505 -0.8024744638681083 0.4597875501192791
Ni 2.8319377426752963 4.407348704640264 12.600749219220749 0.24219791779313127 0.6993089495215117 -0.6994570450636018
Ni 8.624311671856317 4.811481797795176 7.954674931825516 -0.2964451091724701 -1.0222281937251103 0.5859832068124619
Ni 4.62443616102753 3.1726184665002055 8.8936726578333 1.0381075839595284 0.6113653943309922 0.28138538662587026
Ni 5.599888699915539 4.287171883017051 12.849535185153291 -0.565975139121651 0.26982005038577406 0.34058066603910375
Ni 5.415066615870692 3.7769858224438297 4.584044800944925 -2.038394240416541 0.16778119344445297 1.5351650741738592
Ni 1.282331444068478 6.192909256771575 11.393703643951248 -1.0275884295957594 1.7579920436395464 1.646708785281822
Ni 2.200983185505414 2.458762611034376 6.526638753972935 -1.0796609819212826 0.7091971551695012 -0.0019992898182159117
Ni 0.38907114782275054 9.791934516233615 9.946755816181195 0.05109938977897651 -0.017290668759647642 -0.15105925270408177
Ni 6.909045923828601 6.03048493341518 13.865716911447455 0.754432887078849 -0.933364954933799 -0.3221648825360774
Ni 4.542069278836634 0.28378831218439826 3.008275016737995 -0.27050319249572763 -0.747302703791971 0.438015191439194
Ni 8.792967668723389 7.293720544872839 9.323574150396375 -0.1919012264211082 0.08423808131447427 0.28799980661859437
Ni 8.80398045774532 3.8976970601720926 2.139296297951023 -0.4289607945464097 -2.2890420887492384 -1.0196910291255534
Ni 4.165019630434099 4.7411869936915805 6.629745752612153 -0.9987180264183124 -0.24481787191448162 0.10559109306895362
Ni 1.621513894170299 6.235252189952088 1.3437081794190453 2.237342860602734 0.13744371880317618 0.32120740371881457
Ni 0.07233035687515417 8.433362888892855 2.4037816912838945 0.3401242952279755 -0.3790194296312763 -0.2630760467937211
Ni 1.960600912824789 7.379217578536173 3.6223916493408965 1.3540694230086874 0.48178847987040246 -0.18284837219022057
Ni 0.5294784819655415 4.580948050479052 4.02801824464653 -0.06650698258329836 -1.4811055733252942 0.6647952320153583
P 0.9735820825203322 4.7091411136780215 10.045644744848408 0.7942394775528256 -1.1515230581689073 -1.398777050328707
P 7.149695404561752 8.854578211119914 9.740220214925253 -0.7888018514770222 -0.4103359803563707 -0.8219744815742489
P 5.964446371862522 2.3279547261785534 6.819603754132627 -0.7642308470058774 -0.7440482014104153 -0.0003003048492381925
P 0.021337517308611244 2.2328382026243117 3.3366622615177977 0.5982630526210794 -0.16749245855944056 -0.08821454946371904
P 4.529071515710229 6.489529281364023 11.612027891895917 0.22889940091201225 -0.2563778088379391 0.7865400520260389
P -0.188537230289421 0.9439382120360802 7.719618688220403 0.3024481208334404 -0.2635938669704041 -0.35613506883393503
P 5.134698566758615 3.591762926320195 1.6955391135500415 0.5908968420639953 0.6738393444954976 1.260947666051338
P 1.623746990037831 8.614739897689075 11.530472177007331 -0.22587964024908191 0.6104408256341938 -0.5037960944897453
Ni 0.3942349434378002 6.450574164563741 5.053739298415844 -1.860485728730099 3.3764906850357397 1.0886822115832864
Ni 3.192334603518672 5.903379788715778 10.110899814218484 0.608117833927972 -0.07667286737270668 -1.3278868510760484
Ni 2.029721910126221 1.0187784159760247 4.006591976091902 -0.4196793692444836 0.3822487352018514 -1.1619167426984054
Ni 1.7205717364992872 3.93726293823529 2.2242035652698546 1.3883008333877316 -2.3447429818559686 0.11136064856287918
Ni 0.759517894384494 8.373002498456358 7.85786736302458 -1.827276588967982 4.146192325348201 -1.621085685397079
Ni 7.961817021343725 8.209576144902993 0.6297530752479927 1.3213721898859823 1.1180100140131262 -0.7775861852668607
Ni 6.740313581803665 2.43572545964881 11.675914474311275 1.2296581119094372 0.701932503187288 -0.5560658504277392
Ni 5.769269975782322 9.274886934597337 5.41837045257727 0.28267530908188737 1.145224112534073 -1.0690058162002816
Ni 5.502682227664761 0.45383856249696797 12.132060569204691 0.44683356106177247 -0.21743125237141267 -0.35024158616763557
Ni 2.261104997323586 7.53685124323658 6.138723280977357 1.3085375000151596 -4.5847942425288 -0.2627716281794249
Ni 6.152474952537671 9.733816764809383 7.800042586143651 0.5014839014168009 0.10816553866434919 0.13069920099049104
Ni 3.690429499715128 3.079315140445242 0.32418062658147684 -0.3020992221344539 -0.584146410714039 -0.7721701564576121
Ni 5.598161390718858 6.151577896932765 4.3968684230944355 -0.2474406542493093 0.8371905271930549 -1.8899423434283193
Ni 6.397953264505741 2.0118953157648964 3.385045050999853 -1.5382408848857057 -1.198464459915452 -0.25353288318997624
Ni 3.3212815751515516 5.306990501768977 3.1008511551643005 1.1545615878849147 1.177864010056281 0.5810577444863864
Ni 4.794294594130966 0.9026049435683235 9.686068594452074 2.1362352572264305 0.18435246753957282 -0.23025540071927442
Ni 6.069802689715318 7.689312523491678 12.449063796632446 -0.36999125799073695 0.6420165435579459 0.5107887237574945
Ni 3.4217899754799626 7.677049582509717 13.192713349954836 1.5529938748251642 0.10082529624919409 -0.5176849366566956
Ni 2.495856814611715 1.3801200481479716 9.220662786224183 -2.733517433991479 -0.4319229624985271 0.7715818880543098
Ni 2.621540030745894 1.358514368472362 1.4798411390359063 1.3398339961355956 0.03585557624602857 0.26176606973304595
Ni 1.2134299390959062 4.907533549533256 6.505813703536488 2.5333657946361208 0.5489716625851191 0.33323245320414874
Ni 1.8762395133846874 0.49425378044140583 13.315710170846664 0.6032311952596321 -0.2727516222102722 -0.7977755157305422
Ni 1.1677564484035619 2.654120326864503 13.382613341312135 0.8417637483860342 -0.9818847569110574 -1.2599109972567075
Ni 0.38528729093609887 1.3718461416644232 1.332620953868196 0.015589369797824765 0.017722099870111415 -0.7582558603693651
P 8.710925253453416 6.1592219558639325 12.515813322467716 -0.4577345242449923 2.160148316398603 1.050869768721203
P 4.065217422815933 0.679859356668836 13.674070524604009 -1.224735734907155 0.5307106594924021 0.3614227995954356
P 2.1303925439150935 8.870200339047907 1.8017190047932998 -1.8336053593994872 -0.2588463249830897 -0.12621931084226648
P 9.087564546632432 6.724882316770334 7.239518345732574 0.27353555156414827 0.4788833904084655 -1.351391361955892
P 0.8608250559270605 4.2841085335577445 0.4190929268384311 -1.0482726974179881 2.821849482869669 -0.18243005370587936
P 6.011016918159773 7.784142752703929 0.9922895091405167 -2.499265253407986 -1.1471681236343212 0.4069909751435377
P 3.8123622599692206 1.4327600344954377 7.8267481223646 2.3124003038592043 1.4029437801118871 -3.6666520180820275
P 7.156929108269399 3.9665222199868 9.853188145017127 -1.385118579005008 0.9862021533394886 -1.2718401445941256
Ni 6.916050592062654 2.4822482902223957 1.1657237585754234 0.4612515362593153 1.2235705109544606 -0.14056041005528697
Ni 8.340193166864156 3.4367154538424423 13.526603171987713 0.355855075699671 0.4319725847895399 -0.04610322211596576
Ni 4.272284577233504 5.576135812674995 0.9602808473914165 0.8532031005712275 -1.1882337833263794 -1.5182454156003853
Ni 8.040004006141547 2.1010378307162525 9.262788135704783 -2.45061381094887 -1.7238015138007665 0.3322991427566019
Ni 3.8513364630589693 2.4634960108219657 3.3187698194578146 0.04114125012500011 1.8012320852751043 -1.7915688511537273
Ni 8.605282641258627 4.510109287125673 11.291127244159187 1.1655275999781152 -1.605993309840331 -0.39469261739215894
Ni 1.7410226956621986 -0.04487472947818895 5.9676232847441515 -1.2618084713897366 3.5109588661503595 0.31272867682384203
Ni 8.107693531733023 9.386942540052729 6.042572280534053 0.08579128473420708 -0.5100567306874764 1.294332926380003
Ni 6.412697423118293 5.966689010874787 2.257195170926458 0.6643010659877592 -0.4377513962548461 -0.2663842852313477
Ni 4.153004811215197 1.785112024328858 5.458135782365389 1.0591962863090274 -1.0780625270859112 1.1019951266421086
Ni 7.484659784691567 3.890749650806437 3.9712269903401904 2.012957545510991 1.2516644409771993 1.1433819171190116
Ni 9.029475424642397 5.842255946700637 1.2680167269689133 -1.8305580879327312 2.42885636466712 -0.7425207090222954
Ni 8.143222659574144 0.8216666701439644 2.5040114317861004 -1.3445257451843102 -1.2264699439894426 0.8346248233484078
Ni 5.930873588691676 0.4748716534885951 0.8921971899224667 -0.13127718498114813 -1.2535472598222088 -0.2300060037126297
Ni 5.478337665450768 7.232692134305028 6.342464649455461 -0.3685370420427137 0.8807067053081348 1.5832801845135311
Ni 0.46917248745402174 2.8076122667507697 9.00608231395829 1.686612049234663 0.47425180517372517 -0.38739042730379086
Ni 2.431726882005665 4.079102698402511 8.479316948040351 0.26006219966806177 0.14799784016993867 0.1889192609746488
Ni 9.256573639854626 1.3013413883767002 12.05940192815072 -0.16773388514628532 0.2822729314371461 0.10652106108239075
Ni 3.7507898901516263 8.988239496250918 7.21312009877203 1.2259156141478693 -0.5207535482796902 0.021638147095065962
Ni 7.186484227507633 6.46126248666475 10.727809725284747 -0.8987303955790652 -0.3764683810746484 0.6500381283108417
Ni 2.525230614100022 8.460436790500498 9.26486949557106 0.03438850478219884 0.06711761958410377 1.8086358339383433
Ni 1.9111674231076254 2.513511632367845 11.026991129923545 -0.9691945630378986 1.4828554661368654 1.0637008590476003
Ni 9.238451208006577 1.7257918366682616 5.418776036228426 0.7242237104853204 -0.7059673353782938 -0.017357260331524946
Ni 8.29997835495911 8.640639992494554 11.517817967091313 0.1666427089646356 -0.41309785937222404 0.8663296106508565
P 7.3967483354107735 0.6232284271940112 13.025999383040938 1.2554994984525731 0.22296349504355148 0.6256087916238838
P 8.270595012326071 5.982196621065982 3.6435802935916723 -0.32982342752259974 0.4166732354283082 -1.0589340337865762
P 2.7246918821653576 3.9221084243992173 4.543469258168972 0.1555514841474805 -0.7326368742496802 1.8814253070962434
P 4.616133625109782 2.9260713223220347 11.435633358964818 -1.0995124694295708 -0.6463108000579255 -0.8338097836462801
P 3.78147110046836 8.623576849711872 4.791585295341254 -0.7209748645307197 0.10605003498324317 0.011676922117296018
P 3.987221300912771 6.623028333034564 7.751003228303962 -1.368260884017721 0.5668418579973206 1.8150242539631904
P 6.204675954227418 5.237239656915165 6.1232471631637795 1.5011470653572017 -1.2585660531930392 0.9555054955865803
P 9.276347035741491 3.686163714019458 6.079711336891637 -1.8689086626864715 -0.6688496045903901 0.03540923273722934
