# total energy = -340887.29237221455 ev
CRYSTAL
PRIMVEC
9.10698417649003 0.00000000000000 0.00000000000000

0.00000000000000 9.10698417649003 0.00000000000000

0.00000000000000 0.00000000000000 13.32899189036492

PRIMCOORD
 96 1
Ni 6.931088876032357 2.237749938167535 11.413469078913652 0.9753875792224879 -1.2383006180757834 0.3371405300093032
Ni 4.8506256615972765 0.5433181225474164 6.025757204041735 0.23923112185532347 -0.2512787970484769 -1.4043589152918587
Ni 3.0683342161231337 2.1844649737440163 4.4619067917514865 0.25092655591538077 -0.8464673245092906 0.10383245850663408
Ni 3.7866931280573635 4.6997138267891865 5.131528767160524 0.8921540279131279 0.690897585529365 -0.3004107786884374
Ni 4.276858337451837 2.574334966389863 2.1613760367583814 -0.7224316515819043 0.7524184277519816 0.3594739033991809
Ni 5.042609995046637 4.8378485627960135 2.4986659455560605 0.7086099152074635 0.08827599882927377 -0.011682064323618591
Ni 5.438608988044052 3.3617248183907953 13.349385329782413 0.3083788844955786 -0.14487600671150533 0.2532829719626993
Ni 5.919029724368424 8.029482237700556 12.160372922054357 0.1596246257755896 0.45088202009953315 0.7171102393689908
Ni 2.011860302624728 6.715362634831823 0.4076149513160274 0.29803790758088666 0.0685839197169851 -1.2159279068075382
Ni 0.9415710941288039 0.07059643064684279 0.0626833720948695 0.2254422956013472 -1.5028524780840828 1.0102602227299569
Ni 8.32672509427537 0.1216674872167714 6.5410030478614996 0.17206516553178752 -0.9537738576074543 1.0279450416042297
Ni 0.05394157798272868 2.4706155235904337 1.1398784066927168 -0.36553090822653816 -0.10175937802768925 1.2285664215071552
Ni 7.154647123625682 0.9852937251657745 4.62833237410623 -0.49320417790651183 0.7459063376650767 -0.5023495918512058
Ni 0.8973147938190222 7.905945997330527 2.324509444332898 0.41278161368338584 -0.8597321599389968 0.5150300155323517
Ni 7.838199142032876 3.8945198207209195 3.6626068258430045 -0.5972029867876812 0.06161674437053259 -0.3435029818922213
Ni 7.948557576297822 3.993703985399871 12.757351216773413 -0.37628043343355844 0.3797012861896493 0.023118074074702122
Ni 8.619815166065168 7.834501706456743 8.661805648711546 -1.6792149854396434 -1.1963304442915847 1.0982603421900248
Ni 6.805740345810973 1.0949873495857518 0.09264899283305905 0.2029230314529086 -1.0237073493737983 0.3629703465882136
Ni 2.1675350901577364 6.30757920430851 9.196270871939856 -0.7068327687023827 0.9649645841169511 0.15434126588946323
Ni 0.671946988469595 4.877181627459349 1.1305774437520675 -0.4447607376931438 0.42998306516333695 1.8217173497126498
Ni 6.222046408911877 2.6644212538753274 6.510492829469485 1.445070534078608 -2.161185242303549 1.2411964515663398
Ni 3.345805810048237 4.592542836986423 0.27566658966108976 0.27602900740996333 0.03685727803766556 0.6521063236937802
Ni 6.368869207824196 6.18810467888172 4.7276731789130375 -1.443807351095468 -0.7284477758689971 -0.03872081360896557
Ni 5.225059316061981 2.7472492749711916 9.970738824091098 0.5360277008299414 -0.5058151818023031 -1.7231358551923097
P 0.410210441806662 5.680809232249057 12.319814358243248 0.15101117307496573 0.24578075004838315 -0.6078640660459532
P 4.151737481834895 6.481395104323427 12.44867818435721 0.9493741858778617 0.1126127758024254 1.6951956771386159
P 2.806107713711442 8.477809961782835 1.2576053018558124 -0.024068868023745645 1.8859463348950487 0.021537102740827423
P 6.619493412393543 8.199045176104503 5.636511039812059 -0.6199670199570743 0.0932827080152458 0.4426912567586247
P 4.93486526524068 1.6097049883232106 12.026922818708522 -0.016026971555875624 -1.6064440242245042 0.3765776529590031
P 4.160653219344829 6.29860882489351 8.227399771341664 0.6617736715802152 0.03203337428646096 0.0991993306099969
P 4.931932816335472 1.2090705403793636 3.788379741527067 0.7207254675240748 -0.1785587436759312 -0.52598754298512
P 0.48920260116689435 6.029670475142879 3.3002581393820614 -0.5028710115723146 -1.3263904690361803 0.06802779010319897
Ni 0.8516332504854358 0.2963403544428075 4.8654281536796535 1.37214607800474 -0.46299371576140264 -0.7441749567962667
Ni 2.094597253878816 6.6320064086536545 4.806248238397933 -1.0357408834995645 0.5414789537524998 0.34646617828560333
Ni 6.438510315830802 5.772042999740909 9.265369203689472 -0.014660430225652171 1.1757037691801688 -0.11163164283607871
Ni 9.06240549011552 2.6264542368386405 10.32966237380282 -0.6159519852604102 0.011626528495334815 -0.22722484142306673
Ni 2.379381756098584 5.6860184271986824 6.959200314791973 0.16769737548139507 -1.2892701671451152 -0.4028103614032869
Ni 0.6299410239501144 0.567241259283725 9.22718088693727 0.6877114744918994 0.4402029431191322 0.1368420806634353
Ni 1.8407491769105766 1.1724058220800835 11.374014891360753 0.03672538044549159 1.1960424807375207 -0.6880601160805698
Ni 4.466092361679542 7.0077241478874095 1.43081376602608 -0.1596989306569508 0.2707345917802434 -0.0007443343651922664
Ni 5.771806218152288 8.179228378533905 7.982239757278917 2.5666096442909154 -0.9072127220184633 -0.647817209400123
Ni 5.452469817962459 3.315434017815723 4.416761649785965 0.5699207540329605 -0.5745119729480687 -0.9959929141776652
Ni 1.398705271910886 7.813856173325976 7.3579896877414255 -0.21835710661979169 1.3295297859961104 -1.2479268283116378
Ni 5.40289139609925 4.674788011094917 7.4386038009837 -0.2096636926108518 0.6560141433886185 -0.731754728755043
Ni 1.0987029991302393 7.4947383407564105 11.151554035360837 -0.34881822345754765 0.7312857595384245 -0.0451529423875545
Ni 5.004961722456169 0.24173487731352702 9.987040325769119 -0.0424918506156236 2.070523773961234 0.5566610608095769
Ni 8.494921985052667 7.410298383461099 4.601660749545101 0.30519405900969376 0.7613175300138243 -0.4578836482283469
Ni 7.414269028562561 6.595542044006283 6.849435655895411 -0.8942605327331695 -0.588920949284547 0.11481723965291192
Ni 2.6883088733733427 5.484435332426063 2.6972947346614453 -0.8828767163762601 -0.4369286432432346 -0.7872517333810829
Ni 2.5631151618829793 5.596259991143614 11.399433394899036 -0.9297834082301276 -1.4082780478406067 0.0004699976578830616
Ni 1.1195488859129148 3.590592437759699 3.781848212474846 0.9132977518702786 0.6318563151954925 -1.3009218924514305
Ni 1.9272108846933298 1.104258259478615 2.3787989091112136 -0.5404327718761724 0.6548383779129625 0.5697739440424509
Ni 1.220426949648912 3.7216055121395906 7.970284108450478 0.0630097680633173 -0.12355076287116785 -0.28434858301925225
Ni 3.828594362258801 2.811244052787645 6.822177541553241 -0.6058529491531953 0.9924599613237423 0.03608466153769914
Ni 4.3560799928133465 7.032440502945592 5.977839896092532 0.18924450552455152 1.0469676054533197 1.2381185839719646
Ni 8.37106700023642 6.991777818592317 0.30070715335599796 0.5260723893894425 1.1155031884308726 0.6004094095401209
P 0.14647946560882022 6.016574631895396 7.609068330821237 2.3830732448947347 -0.5261271538867778 1.3481479153179297
P 8.540575296735303 1.891384008938395 7.68682922592065 1.072761940808604 1.1881615353275472 0.6318074642354279
P 1.8840984215962628 3.3304058998038046 10.011512613651341 1.0066419092510792 1.2459283098243703 1.3852790158422723
P 4.186544375361931 6.467971409645549 3.9377570495012204 1.4069667852283512 -0.7388856833728694 -1.7622906710149002
P 7.229679566265466 3.939408145732631 10.266642953991795 -0.8457466442931822 1.6093280306405189 -0.5447581387244037
P 6.846821951436421 8.048697974315429 10.008126636934085 -0.22397085326214328 -0.5757520160027568 0.710808208410363
P 2.8075375102273354 8.869656169995235 5.946249589377048 -1.3080315069130184 -0.27058726756910173 -0.7123482992039731
P 7.079942532416294 3.8313993133855218 1.4906348129939093 -0.04669946093906796 1.684344336246409 -0.44054772805306064
Ni 3.094343762934545 1.5805717459388595 0.26400691781842506 -0.009696144241841367 0.8558747338661196 -0.3150601531704961
Ni 1.689882877023375 1.4469085391632677 7.035535056169163 -0.3135665993441051 -0.5956616104424902 -0.7931192479054534
Ni 7.126406365690742 0.9536105272116774 8.996683117400563 -0.044106503400911136 0.43872738701487024 0.21736954589554175
Ni 2.889145195443393 1.7180963140057817 9.087626372097144 1.245805668203577 -0.4018500543725467 -0.1364831546621198
Ni 6.539570519250352 1.9633747188628383 2.296718571416335 0.841593798467073 0.129379453737803 1.0933333372020526
Ni 4.276412095227132 7.286780357059427 10.473655632731138 -0.2787518056577651 -1.925873767217606 -1.758994773872448
Ni 7.427765579113861 6.2585927364168485 11.465185820661778 0.47671337934034036 0.13545137096349574 -0.5056593729507292
Ni 7.962919290346001 4.2762117415752225 7.932349876556832 -0.8423497027964911 -1.2808433765340006 -0.7163862167187727
Ni 3.480115612700443 8.772229653262572 12.22136603788585 0.44208113397845156 -0.5916092947499876 0.6564499453744566
Ni 8.997099306577482 5.249019791433419 9.94441417562714 1.239999088824129 -0.08242056848976127 0.063133181015059
Ni 8.965261289892364 2.5201210895802224 5.593911299924194 -0.21914463551809357 0.6928894191484131 0.7655693633116428
Ni 3.573653447189242 3.190996186012106 11.586772255719369 -1.3638570985230705 0.22847876843482587 -0.042733277202468334
Ni 1.2185691248766686 3.6275485795526645 12.566386865551952 1.081259179646338 -0.845686480479208 -1.3722288675265335
Ni 3.6147077318621563 8.477809961782835 8.016441947056556 -2.097586691616297 0.7097975077576615 0.35226093059050945
Ni 6.019388690006295 8.248505207173404 3.456847268126508 -0.8812116699690115 0.30754199041658004 -0.2714871536755518
Ni 3.145971256237729 8.273075850484744 3.5442187636286104 0.7162535477956503 1.7162771803992636 -0.22908914832531516
Ni 3.722079075316829 4.358684590288159 9.226634467886608 -1.0223580344347554 0.18846700392857865 -0.2124163156553245
Ni 5.126412463449512 5.007129184690453 11.132800933542189 0.715447249844271 -0.49714747882497606 0.9148604683717083
Ni 8.245818646840991 0.25120158736621 2.1554309974872017 -0.5049690317519238 -0.5115780524280094 -0.5108347465040816
Ni 4.8782107166714255 0.3760601618388353 1.5743006766341194 -0.5835486292290402 -1.0291845704382856 -0.09822205429839213
Ni 6.213194420291187 5.8423124896557725 0.1495312160067558 -0.7339013427844006 -0.6533944463775844 0.4564746836959622
Ni 8.251701758619763 9.020030692736842 11.522740139267787 -0.09319940427282014 -0.23430951618399 -0.2669566127950499
Ni 0.13510848516458746 5.18543482790496 5.512778088583793 -0.1941977357647688 -0.712955850880985 0.3882995693816216
Ni 7.1176363399276505 6.204579213259116 2.603498261822 1.2879887293295302 -0.21633904774849838 -1.7844088430701786
P 9.000851384058679 1.7494880884661936 3.516881418524095 -0.3492781938131017 0.02497261078493764 -0.49268815750204176
P 2.3139753957345928 3.338165050323175 1.8253920694917796 -0.7346577613344509 -0.014168578190898177 -0.5046597280416212
P 4.944737236089269 1.4790288723578928 7.948744269473465 1.0237559432235468 -0.9043019761295716 2.9165889779360996
P 9.17036878754174 1.6776157693360598 12.450624346875976 -2.2758641566063833 1.4057748218027788 -0.44332940456325587
P 6.55225654820984 7.982226096802651 1.2091260929828473 0.3671010809271355 0.18459543678831433 -0.2676250996169842
P 2.1386659503145378 3.675597028074026 5.789874474760777 -2.7538636017479994 -0.3304183807941212 0.8261586948589256
P 6.961205672707895 4.448133388881186 5.762963336515776 0.9152877857171139 0.332717204130627 -0.10548593494965702
P 2.716294635751308 8.785052286984726 10.05707121269853 -0.9945883205206549 -0.387854511424403 -0.3003151336508376
