# total energy = -340862.79239594465 ev
CRYSTAL
PRIMVEC
9.31898880158108 0.00000000000000 0.00000000000000
0.00000000000000 9.31898880158108 0.00000000000000
0.00000000000000 0.00000000000000 13.63928208894167
PRIMCOORD
 96 1
Ni 4.804852075895067 8.178922498989943 2.180170946666197 1.2078124767892553 -1.404335261142775 -0.8242735620210707
Ni 4.7460865314387375 3.7243618995568077 0.4639318874788538 1.1340022756763244 1.4720115814438262 0.45457052469471393
Ni 8.87992480641754 6.249053072814686 4.622652794911326 0.15966833452933146 -0.4601346490460527 -0.8922476160681987
Ni 5.214971461556116 6.219772809465212 4.292623596170832 1.7068186060895252 -0.7655390242943396 -0.22924212896341162
Ni 4.570386313363947 0.19815991339578565 8.134727193791061 -0.491068876731064 -0.7626259644126027 -1.7538260851873153
Ni 0.7819917767839352 3.855908747883091 5.6678174797540875 1.0220451311800267 2.0442378436815116 0.054645198148705894
Ni 9.467347276256532 4.761257845484869 13.222029438332072 0.15272018534627246 -0.2938896897404681 -0.40298853885236396
Ni 3.5526968037068185 6.3525124883798885 10.870426370540182 -0.783641133211689 0.8500493854335941 -0.7301665583323167
Ni 8.404181100416897 8.186051525553388 5.885022610911592 0.057260267174049764 0.4658658951028751 1.1347067579425167
Ni 5.578309522578604 7.107294681163889 11.850435480188633 0.10735872649233767 -0.24044596809903107 1.0183985355663752
Ni 9.359060624403925 1.2212069098128173 8.917772016328813 -1.033850094234755 -0.4070755644375441 -0.5216382648774888
Ni 8.16042430588087 1.6576151633633858 2.199647633617311 -0.946721321636047 -0.8041500517983182 2.411906367076343
Ni 0.56258736422908 2.942852846401613 10.183879678805678 1.6580280669493832 1.4194937140507682 0.15115669751389452
Ni 6.476697335418429 4.719136015332219 7.528992910622431 -0.1032472754271254 -0.16797094085775585 0.7831086577469867
Ni 9.020287418311169 1.4374447299150466 13.100762366740609 -1.0853215226411697 2.3946218689642826 1.232833167203309
Ni 6.025770097049757 8.974540501448478 5.8482237872596485 -0.15505448990640394 0.06305810480274947 1.101301957229826
Ni 2.346735759851907 2.8207647718817332 8.615334480136099 -1.3641833715142377 0.35450164699557013 -2.9364692617997945
Ni 7.966114066829344 6.2635627386438175 12.037307302242846 0.7161219073137924 -1.6360446206997568 0.7165857343240885
Ni 7.468004787296322 4.0716526615698125 5.221035327680083 0.049271078320986116 0.9549527084069037 0.766585720391299
Ni 6.782583829429616 2.2893214687964925 0.5075466196647895 -1.072415870323095 -1.65238320995878 -0.6117921974557657
Ni 4.8565911026666395 6.68446419454527 8.38042513372992 -0.7306568677051739 -1.0296301426161363 2.4054482701558255
Ni 3.0492757004598556 2.8716371326789263 13.035989801993042 -0.7600463766108846 -0.29982945226367075 -1.0165373139879204
Ni 8.264452179773352 8.611416777172344 13.191464086403382 -0.3278472776328354 -2.0656826438188487 0.11739991277842361
Ni 3.0230054705482807 1.501820305732414 5.20097247632264 0.3438459670539369 0.2711433971828879 -0.0843920903938353
P 2.2822949511117363 8.05416919362412 1.944225328686352 0.8076904608514088 0.3439128157361303 -0.23977928104930962
P 0.05943278406671162 8.662792363374015 7.829029875256003 -1.1778812364474616 -0.6258574172995801 -1.7682492025911805
P 1.4812346590936525 2.1493036594948207 6.499404915846076 0.24948828080695742 -1.161794101077612 1.9551709735198264
P 7.021699767457676 2.3345558412657312 6.492585279716494 -0.6652356619868866 -1.0604273305026513 1.1227557562282278
P 4.723348198347484 4.904052713500144 12.081089776230273 0.15313027630049758 -0.16895927291295418 0.6040305512324758
P 4.366673214439851 4.570060148749934 6.753149802762106 -0.54755369919167 0.5066621031836306 -0.1499667909708514
P 3.888105854780746 8.914945566973659 6.092135277012609 -0.7120297395222899 1.0845897866814675 -0.8004075540367506
P 5.93739812462994 1.2568986375749074 2.1459907589153366 -1.642615589049055 -0.29764272902499705 1.920937763368569
Ni 8.689351481943717 3.2781500696078796 7.512407905949273 0.3468078778957382 -0.733094273502073 0.9422877113447256
Ni 7.811987308224329 3.3009536356219353 10.505247809195758 -2.1335188867365322 0.4432910951261527 0.3450204469780122
Ni 6.961405908809968 3.916789702836024 12.79692045890984 0.2723165915553827 1.2222898444698238 -2.329190635943666
Ni 2.0193503582827197 0.40583544643070185 -0.10043167604825605 -0.4202995193269858 1.595062264750124 1.8044107401134022
Ni 9.009999254486274 3.384899088280136 3.834097654194534 -0.46219127446476527 -1.6771611882344082 -1.997474619384044
Ni 9.034564109416005 5.634540302034597 6.901026315463718 0.6878315450095316 0.26036199029666773 0.5930637678083269
Ni 4.716731716177488 0.36496702029476297 3.9817430559696447 0.47412504978787373 0.28695542451448003 0.15383295879447698
Ni 1.5576317306846745 8.443442000955198 5.31765646913776 -0.34026904833595595 0.7319030814074491 0.9527968384061655
Ni 6.861944339513678 7.360417059616601 8.107925781508092 2.062852373458905 -0.15971512860686687 -1.180609176901586
Ni 2.6704587987551665 5.098055425915599 8.42364846837904 1.962626144246291 -1.6807422207174472 -0.35704883889745603
Ni 2.6255412719109694 5.481354761315737 13.066364114647808 0.6910022294280294 -0.05897185054851779 -0.04603663054408846
Ni 2.165155259735895 0.274400425972081 8.072750325735042 0.025255689242995216 0.5516258123785145 -3.560052024132585
Ni 7.505345976106425 7.923088294746428 10.71815688643725 0.9752551674096818 1.8528130426761895 -1.3320350689164673
Ni 1.2140778832493713 4.918739440119741 3.186354300639814 0.22839443625113567 1.6152469672281151 0.7040868305261293
Ni 3.29326546972018 7.3882342416975 4.037732473611267 -0.9789878949792364 1.0822269428762459 0.02445299083604176
Ni 3.983653448708869 6.834006010576147 6.421878382791669 -1.5831259183238542 -0.7166155591207595 -1.7439515063860804
Ni 0.9841877443034183 8.459629084799257 9.6344889348596 0.5679512890114154 -1.7960819085327326 1.1245514146760696
Ni 7.571781048486566 7.420114502970113 1.9299989601219638 -1.4990811839671085 1.2192921952940807 -2.6260481500632062
Ni 6.680093588717483 5.47197985841008 0.7430486537695754 0.10440581451160084 0.9147077448439279 0.853244238221808
Ni -0.19059382624956087 9.117167627662262 1.6700616050341552 2.3585819446215894 -0.957492958330254 -0.07125529590156116
Ni 1.5389564767851371 0.6819151542155057 3.384737869770923 -0.08822329121446743 -0.08244576530074188 -0.6541539502514282
Ni 3.0899344493439282 5.895667692014107 2.159903077551374 0.9998361991831555 0.8062077056582954 -0.7767462058640687
Ni 2.680085314363062 1.1579496126720688 10.031051055364438 0.08205161518611676 -0.7232939995821994 3.5204225826664213
Ni 3.1693042784169623 4.86420471665662 4.840786097370424 0.11491057069766661 -0.37508204225008307 -0.09318423476416855
P 7.067633064099801 5.89291859026742 9.770840653899755 -0.7206071967786557 -0.3138651044211304 0.705009856561031
P 8.787452478850119 -0.018191598371899736 3.8594257343210576 -0.6414688985845921 -0.5069336116774624 -0.011103566112329264
P 6.079335645659809 8.012848796523047 0.26796566408703576 -0.31524552970842484 -0.8484725278647774 -0.3546831668787569
P 3.611928297611738 8.450524432573784 9.997553017606315 0.16933568241576644 -1.1485426353843444 -0.3318602554469704
P 0.7662380259270649 1.9085289414297761 1.311572213973708 1.0435629506471449 0.1330093371809064 -0.2626173619897477
P 8.690460441631364 5.892965185212278 2.4951565015094728 0.8890175391666754 -2.784798600763959 -0.44213744113768366
P 1.6356503063567942 6.314556246297645 5.56069476962406 -0.08851202609947982 -0.9549691634671358 -0.35646879802426995
P 5.160464695059911 5.070378028669278 2.3406914636047813 -0.22874693449454797 0.07589356600452092 0.2401837155765799
Ni 4.278441026854612 2.93492238678659 2.768269975104545 -0.5345999672444793 0.23609026223349663 0.7323211427814743
Ni 6.893107038635462 1.6534402563040083 4.419277975286907 1.4087488168294382 -2.3438978602468534 -1.8716638568341055
Ni 0.39403760639237134 0.2759408548491237 11.343177749181969 -1.9285921945900335 1.9240318289128608 0.31088005365087745
Ni 8.521479214605261 3.6826687428968627 1.4374708230841675 2.0461823690023917 2.6311829001866105 -1.4155915507828847
Ni 1.2272083387106727 5.363898224314853 11.176123689075238 -1.521912322929011 1.120464903311522 -1.0482035347429495
Ni 9.01651322777758 6.565283644584598 9.103920684838814 -0.3345411447132432 1.0923244363215638 0.7043390557462514
Ni 5.4288795344153895 3.034719439685865 5.031626876827739 -3.198743124407194 2.0197768824256697 0.364384710437237
Ni 0.5265899736287141 6.960380820023066 0.8677963677420147 0.9893923781420122 -0.7354090376781787 -0.4575717734148829
Ni 2.542136320613135 7.160655212016559 8.427276350785771 -0.5644779857508343 2.943724657810627 0.10665681532930663
Ni 3.0688642152786323 4.007193214851699 10.716152371909411 -0.16802801934793643 -1.6848670415190985 0.31513574360343793
Ni 3.5667964340211897 7.618105742665509 13.456529681122387 0.9003920995522041 0.29972995057132895 1.350305842201197
Ni 6.402760476915969 0.3690888091170012 12.374812193936538 -1.052307015388362 -0.15043216064304415 1.153449842877975
Ni 6.751122922660734 3.5967849405325225 2.751342963536122 -1.9243627298897181 0.17959849779435522 0.9067969746372835
Ni 7.176851614849592 0.30824419822105814 7.974424741194418 0.9008147889119195 0.6625660855745233 -0.8185274035659129
Ni 6.336772716006475 2.3262619410808067 8.834026921933507 1.9075749689084178 0.39032431312113425 0.2407784117377853
Ni 5.4330264845078515 2.340762287920967 11.386264094693203 -0.5531535618769506 0.5861205037212744 -0.4866514643896587
Ni 2.2287387214906578 8.46786707105035 11.785198829790268 3.550076143866796 -0.9024674940239941 -2.344356545050827
Ni 9.000773455404167 1.4002712829064363 5.427765915233255 0.8702433438829658 0.36724969068985786 1.3569529152040696
Ni 2.016153945065384 4.095453359403854 1.1340827500163275 -0.6442953122897936 -1.578512330811243 0.49230994822701674
Ni 5.707936659176691 9.26742700584397 9.957003300893213 -0.3188838977919605 -0.6502708131469382 1.3931172809397685
Ni 5.245006563012309 4.434030866728203 9.927774291983082 1.3519449204665166 0.5616474582805747 -0.21033012255025713
Ni 3.5928430081974407 0.8039948416453114 1.8949735400713594 -0.5418070265158798 0.31995450514831997 -1.5161311974708598
Ni 6.9595514300045735 8.052612922465824 3.879761632055374 -0.7462691203211341 0.1759866120733808 1.5222262546250043
Ni 4.643736075561183 2.4342037903414573 7.194557693896059 -0.328018513103377 0.17234592999699996 -2.19758589241977
P 4.579155481986435 1.4238390060161819 13.25590955463804 0.64900685883285 -0.5244124851885161 0.7732525908885135
P 7.374572603864803 1.0592987954163284 10.606055972398474 1.8605384363449056 1.2840055763120661 -0.8520571598922423
P 1.3752218405501706 2.3412561943364736 11.970407212313011 -0.34596095651441067 -0.7554602999020988 0.14332588861556605
P 0.5789552364591936 7.471909443675517 12.245552225503943 -2.029064735485499 -2.3774229885874925 0.08824694536355125
P 1.8818579949924128 2.875765444793444 3.1239413038999126 1.4129916512661924 -0.12839677810955952 0.39169573954736414
P 4.314691893955011 2.348851170348511 9.19625881896504 -0.4900561191958335 0.33095548424451393 2.873077170696394
P 0.6767421834372456 4.76805138844533 8.87610402093909 -0.2885083708238967 -1.5798151087830663 0.23888736536265953
P 7.0955154791035016 6.077415933931612 5.97490612334264 -0.8160581160898139 1.919992111625848 -0.6657455117437696
