# total energy = -340874.7275774845 ev
CRYSTAL
PRIMVEC
9.20885814756034 0.00000000000000 0.00000000000000

0.00000000000000 9.20885814756034 0.00000000000000

0.00000000000000 0.00000000000000 13.47809474460180

PRIMCOORD
 96 1
Ni 9.14864147499251 7.8100786826544 6.526255185221325 -1.2902728973780164 -1.709935297341636 -0.9124857974919447
Ni 5.403196250678819 4.896589334590757 13.237268613370075 1.5209489305744774 -1.3736357751763892 -0.30297853941561365
Ni 9.060908682932979 5.8653151728087005 12.316943612958962 0.5980388524254152 1.445680656858781 0.08949675861025232
Ni 3.58697919242953 8.917103153301236 4.717953140593864 -0.4712520991154529 2.050525476462436 0.37759503847992393
Ni 8.347811539454252 8.556686861118395 10.974269065435108 -0.3140157710663818 -1.9209547326494334 -0.11047387508255167
Ni 3.7739650581552326 0.9404730612641665 2.303649289795907 1.1141132500618813 -1.5995370126920259 -0.8150607851735511
Ni 4.398159884583188 1.9142637714914257 13.143582294485048 0.036540003907562874 -0.7381282363815547 0.06659851385584015
Ni 1.9758434062664947 6.25160835653004 2.6070544617560802 0.10538977569142495 0.8827754149117054 -0.8827736151394925
Ni 1.4357622906259604 -0.12425328190415018 1.441806064261803 0.29469598769184735 0.3185576248007933 -0.5900905441126161
Ni 8.257610773397456 4.116939772909633 13.442714556241 -0.8539983427790131 -1.3998661696278278 -0.06263618677398246
Ni 0.9433922693131715 5.541218617361747 10.019359277172754 -0.2428880018816204 2.057547416306224 0.4493671261169035
Ni 1.5104185040432605 3.244603053458049 10.587879188702681 -0.23467384150194423 -0.48093693050338454 0.05167531688710455
Ni 4.248377805980452 5.371665120206286 7.836043058345788 -0.2598734806960234 -0.3612065698195715 1.0165401422013975
Ni 1.101904345488327 2.980907398936723 5.077683372840897 1.1243202725018702 0.20852289413818925 -2.6243771901186865
Ni 4.3770715993080405 3.206045564179865 1.6879293755682656 0.19634486401475865 -0.4059774462773589 -0.986912806253268
Ni 8.136937895560981 7.344092040081042 8.799012439303691 -0.25231983671848157 -0.3671846417798773 0.23500628514069852
Ni 4.498269382061844 6.990766568711242 4.240586191058485 -0.01005609868442139 -2.34418633802155 -0.146570877915425
Ni 8.188875855801955 4.76499475093056 4.317963622073517 1.1690608099423543 -1.4092450397395664 -0.14853237251717002
Ni 5.698496706538269 3.2395934345979263 3.6460263911999413 0.8747268335756162 0.7769390386011652 0.17671346293707632
Ni 8.91174359782956 0.411947220891429 8.649742373216805 0.05881115660093742 -0.36580781603700874 0.4516019289846932
Ni 2.052958384822862 6.645158120511999 7.605311432632723 0.2712781229885392 0.6094483798139375 0.5362238760011475
Ni 1.1095200712186968 0.28780628705730366 5.207639700627536 0.9227043898961593 0.9213447905444714 -0.3908004814266044
Ni 7.764743473741934 3.5275268038983727 6.334866564390797 0.22583567438502397 0.9774943411528456 -0.24561080012942219
Ni 6.526198090300492 5.193326372329213 9.010093282506435 0.20817065300509308 -0.21480512760247522 1.0104556265702145
P 4.97189016808197 5.563209370740371 2.4351011361540236 -0.011085825500516391 -0.21544584651026766 -0.28474119047198054
P 8.00249777471737 5.964789259071644 7.081660761790406 1.18136533834132 -1.818004933858069 -1.0317489887313522
P 7.898980999705174 2.983762144978337 2.8200350924052273 0.5626604729261212 -0.9279769511490084 0.34604503158778466
P 7.530534583173019 8.179252598984256 4.505606079388792 0.7242833600786622 0.9224004855024953 -0.2218777181785405
P 5.602485150958059 3.3527058398532237 8.093892008796724 1.597085722938056 0.15964648015246055 0.16312646828126098
P 1.6314873627822815 8.391682539913118 3.4114813773067723 0.6069397544594709 0.2107463841520693 0.13976362518560445
P 8.760239462743657 6.165174013476535 1.0724599422836305 -0.2062217568088384 -0.14444354715977706 -0.7527120477330005
P 4.981734437496438 8.361348561006421 0.1695719148718592 1.0691649674859651 0.7089719265325726 0.5401183259595472
Ni 0.9981849755957589 0.6608644997753939 10.801763208341127 2.1103398775169078 1.1058273559040053 -0.5410436659872939
Ni 2.940112157116242 -0.5351470094176418 13.103552308780884 -0.1278643026448572 1.714321085114157 0.6922206752161627
Ni 2.022707285639955 2.1047029590416617 2.9008907091619283 -1.6476801480561558 1.1061166050096498 -0.22647305085870673
Ni 1.540245995749025 6.6353046422393325 0.3252495044934381 0.4481612787342604 0.6082571877193137 0.16863814212810957
Ni 3.2838972513921325 8.839076497783191 9.478281763075115 -0.37867027382197366 -0.8998511394470695 0.7324188447016031
Ni 5.543226148449075 7.560619922908349 10.372404799253312 0.9007962769691584 -1.0013138121699465 -1.1182830651688547
Ni 0.34546294823970347 4.446064364933107 2.1593796337109445 0.05400653612344247 -0.6732060817868728 -0.03406146046008328
Ni 3.7520111402094027 7.541290529549165 2.1315872996671046 0.9971113440528246 1.0113292874244195 -1.7791900178734001
Ni 3.5909113748803976 2.2082565694866525 4.734747335290932 -1.3756564051508438 0.9038880285206045 -0.723027119074058
Ni 6.992239986023044 0.14705441480426548 12.680299372678844 -1.4088256928139606 1.220128832262763 0.6641467997980819
Ni 8.857135068710948 0.44758826477806724 3.325436568955073 -0.30691901212060047 0.4869849364696775 0.5510694256544123
Ni 6.665141342803295 6.5020985083943525 1.2487902381875553 -0.41349432347969434 2.3113376669226446 1.5405664476950887
Ni 4.0600198203831335 6.6560614086193235 12.670015840728297 -0.6919396536406341 -0.160045258252776 -1.467878276001743
Ni 7.442829417688085 1.9439162948914142 7.9770371235694535 -1.618327920146284 1.3151724888331737 -1.3010126523930239
Ni 5.728710970288382 4.675806959275626 5.811161561285107 0.5260986146416875 0.2086877018508277 0.06263875787714374
Ni 6.6604264074055335 6.350612791024847 4.15252003833216 -0.29516675668067877 -0.19656006534935827 -0.9537093229181058
Ni 6.02750158340516 8.656004396791959 2.840144476053846 0.5418980435677894 -0.7019312176357072 -0.3718349960676951
Ni 8.183893863516428 9.042702770274042 1.2201377967879516 -0.19210897155654014 -1.4898977176956276 -0.4583382192672622
Ni 5.978943274123129 3.2586005179201547 10.861915470095388 -0.17543073956991076 -0.07887218901687063 0.30170224380635136
Ni 3.7047973242243906 3.884167464219724 11.927682414240165 -1.3793793625283859 0.2567999839770223 0.36517198222522274
Ni 3.4043122811990423 4.926987775504845 5.580443748859341 -1.1468184536043862 -0.3935461624925416 -0.1767792831780052
Ni 9.336308796224923 1.9675922693204109 1.1809826526126688 -0.7212962524258802 0.7532416949842253 -0.09630863932576317
Ni 6.775730520912134 4.338725913768428 1.6514300660975036 -0.7800441598890502 -1.0416688189482253 1.262183338230652
Ni 4.8052558789755135 0.16110805330138425 11.476557027027956 -0.421195548778694 0.5842597963634518 0.1271089125360714
P 5.300729285501283 1.115165101294533 3.843009393386212 0.0011600817463721957 0.3442658282001748 0.5408382348447073
P 5.0217192997954285 5.365624109227903 10.822586278500149 0.04569724492679872 0.2156019124721577 0.4572313593563287
P 1.2975281202044617 5.0336355623046165 4.117248269659291 -0.7322992884046032 -1.1527224777936471 2.083206768745541
P 7.7447878780252335 6.416778437182896 10.765169968516737 -0.8015298405666518 -0.49602802050855227 -0.6677211474129016
P 2.2984112912524557 2.07507806221627 0.6215813524711483 1.2988310713606728 -0.8621448831455475 1.473074989711334
P 3.3372625846539132 1.7724565640888104 10.983731167234327 -0.12508673989972005 0.18572775062054467 -0.4483253151159505
P 1.0892421654650402 8.051617824349522 9.320911585316605 0.8738644855753208 -0.7703413307789894 0.7041498225535808
P 8.742521619569253 1.724146893978146 5.725427091454707 -2.415673290317943 -1.6860872870794448 -0.6423348461293131
Ni 1.0214557602640106 4.769111110545403 6.479634419704312 -0.34180991046051457 1.4093147166352373 -0.4577291249283536
Ni 6.9107692175386655 0.9417530925537934 9.972348056068116 1.0421442159227472 -0.5763084027268591 2.267811975725868
Ni 8.911808059836952 4.443550346644847 8.40254070461527 -1.1449243219054668 -0.8463405691234392 0.3640047013899989
Ni 4.438006614009197 8.836000739144808 7.346114305341488 -1.8822547449760747 0.01822192232466539 -1.7409404874738985
Ni 2.4742544385576664 1.6689397890766147 8.867791559418546 -0.3226711327485346 0.973354350842543 -0.29723700894614613
Ni 7.189116165454208 9.257573058625574 6.396609195955984 0.01525101262179954 0.22773649095216264 0.2988565468274401
Ni 6.11930469078854 6.8156232946291375 7.279249706846155 -0.6329490340390389 1.8375833702106288 -0.4458195179749612
Ni 6.5103864807732315 7.046406489948115 12.590252394553966 0.37348975806229867 -0.2958149317876389 -1.3960642793832343
Ni 1.4710045909525926 9.107579176284267 7.389972413398875 2.903711864863115 0.2457900060197638 0.9131332012679565
Ni 5.576654303710553 2.149273832723632 5.809247960551406 1.9984655225424035 -0.6167346290627056 0.8769372109633736
Ni 3.2480471664243824 5.009830663860837 0.756431267504605 -0.2753129551795452 0.09391982737861244 0.5799840518062334
Ni 4.9306529010679485 1.4948094893963721 9.212088666210288 -1.487529217463451 0.5370162899954558 -0.8857188138107456
Ni 8.250639667740998 4.171621972893835 10.967328349010707 -0.17724670973272702 -0.2724122365929824 -1.2232344677712805
Ni 8.59486678721043 1.9637982197425243 11.967887368250105 -0.19912962584874738 0.32987484958582547 0.29050226132547385
Ni 3.79874609556808 3.0345305802280684 7.102794170470727 -1.449107166041827 1.7237948289325475 0.5490292552959318
Ni 0.7728230350983873 2.414111385661603 7.238262920775139 0.5922356154800767 -0.4492694241967747 2.148569867532384
Ni 3.248857545945873 6.5651239339066265 10.05236750850037 0.6817732546305936 -1.3116215382571217 -0.23920669637529127
Ni -0.1805313770141965 7.0354387398334 3.0627621768079893 -1.3672393847317421 0.2785394325366429 0.5375922171035838
Ni 2.124280991572213 6.951730218806724 5.0063165635721925 -0.939731520581775 -0.043906214464646966 0.8430644694753286
Ni 3.303659461086659 4.453541957790495 3.2774952531723587 -0.20305107239034065 -0.8393667089087674 0.7102934735574735
Ni 1.6530360909673663 7.546300148409286 11.569164988617906 -1.2040874625291842 1.3121756109883789 -1.028591674049293
Ni 3.850674846950855 3.772537685134426 9.605622775133309 -0.34695571632751215 -0.2125476990268662 -0.8419727790730467
Ni 6.496840250362864 1.6340566342197338 1.4798681169688936 -0.040948674498219796 0.27734772622138687 0.35325749017582386
Ni 1.3355146602743226 3.615848962882624 13.055556660734798 -0.00047899651894756215 0.9145655628391088 -0.17798487345033218
P 4.079910954092442 6.867994071205452 6.352252888670045 -0.599817798702709 0.6072151196080445 -0.4594867310494086
P 6.067173344525393 8.811763024365687 8.495688305295667 2.3288993299554925 -0.08609313224534205 1.1108646612175965
P 0.15745950368303785 -0.043616835972579225 12.782477179708941 0.5897012790939974 0.31277289979821615 0.8579694116116192
P 6.638196223713741 2.4522636851790414 12.92382210242998 -0.12763058936749633 0.7112846338261491 -0.12276117709033697
P 1.9497547109894242 4.422544941093489 8.515217530877765 1.344455296957691 -0.3977488877199795 -0.8510901679932827
P 3.0072815688179553 1.2374587381739883 6.5986055005456565 -0.7818801846565244 -1.9743292916158317 -0.5481275694172689
P 8.784698190119547 2.3861625010283842 9.645733798789621 0.3201211126331713 0.24710178285265186 1.1333271039861708
P 2.0881638497166994 5.496417522224808 11.871546135546378 0.3761292525676748 -1.316170591080385 1.020777577321513
