# total energy = -340865.28225593606 ev
CRYSTAL
PRIMVEC
9.34741683098079 0.00000000000000 0.00000000000000
0.00000000000000 9.34741683098079 0.00000000000000
0.00000000000000 0.00000000000000 13.68088938351455
PRIMCOORD
 96 1
Ni 6.869612976031604 6.138738448570949 0.5190601910088836 -0.15675604597854292 0.1989581332678896 -0.23293937530934072
Ni 7.641466579184641 2.0103396054026774 3.065572303540437 0.6284197787101178 2.073902717735796 1.2903865401377452
Ni 8.583209484506721 6.420806100964513 2.5430862842374706 0.11405105091084873 -0.997051951569799 0.23745526090182334
Ni 5.5102555258398525 7.905979782638812 10.164340009116179 1.3016178900771904 -0.7332755362749436 -1.683420538880559
Ni 2.974217193945461 2.8268271242562477 3.3456891500268373 -1.0213637888422862 1.980301964259499 0.5615762387230071
Ni 7.27345877580664 0.6569495461602914 7.649532465228199 1.3965180790912013 -0.2597413259935333 -0.9732286238979561
Ni 1.6687943392703735 4.670876182996627 2.7874679559127435 0.22881455450768978 0.1875835728823608 -1.3930481182647299
Ni 6.210451831032621 0.5115364551455625 2.1391161638176563 1.0485670887299556 -0.2251949554772315 0.8050699925094263
Ni 0.08494184685945073 8.43467902995563 7.56152373088365 0.548679585265997 0.37721142988826 -0.24744811044847706
Ni 1.2295498716926323 1.8990586072006173 13.006490353897638 -0.12484659886445594 -0.9666918512207028 -0.6124169755239582
Ni 3.973287807119135 2.3931350223174834 13.614031323804552 -0.2903827050284741 -0.6535394565958809 -0.5342965770714475
Ni 6.503540087952033 5.060878458341823 10.095251381320205 0.17559863260634276 2.22065897218915 -1.519274628195848
Ni 6.429573978017309 4.639263219038679 2.36673885173178 0.5036762810824292 0.5882532337935611 0.010124747138827724
Ni 2.2418657746145065 4.1214350175773 0.2974142414610256 0.0503483705455649 0.2089954628992336 -0.5650094327742722
Ni 4.359382862199865 8.279175402396666 12.0591838660363 0.08897713866135644 0.02531662438791769 1.304610139936295
Ni 5.215409954543121 0.6463607922952521 8.467170651102238 -0.9140387438013613 0.6719953493082234 1.393404473162884
Ni 4.0282880081624715 1.3895963438653054 2.014237478250242 0.9181339969166575 -1.6939093542270247 0.002548991674098836
Ni 3.8583706637427273 1.247487564724951 4.608749511308247 1.501331413453866 -1.4185539758453183 1.3536534185171911
Ni 1.6805346948975712 5.39098248618775 9.289405896608008 0.20417361603055803 -1.6196978039106171 -0.12439074227395996
Ni 6.4613084583949645 0.5767150584520006 11.239261171471746 0.8575626630915038 -0.8451516910216605 0.6864763165332177
Ni 8.380118157506624 1.0555196638366091 5.435020971431711 -0.21988177079443422 -1.0790470024863674 0.4357824454539334
Ni 6.996167653449302 5.858577669225117 4.476523756056934 0.11919531411594957 0.0626169035002728 0.4567906722744843
Ni 5.20669816199173 8.145413866548578 1.1630607605367254 0.7279782924317463 -2.065618366239817 -0.1007982996660006
Ni 9.103430624694663 4.421683395842598 10.628382238989614 -1.300240807224006 0.7202469852257596 -1.6564982605684182
P 6.916163112196767 7.7218076274456 12.214968850843972 -1.1151321782446988 -0.28615401165910714 0.2893092694586372
P 3.435858072417123 6.7841682381428985 13.497264326623508 0.06746986071719993 -1.1391768778987283 -1.726401927538091
P 2.128603124029512 2.1456434650393694 1.2573425463632906 -0.11567547388814917 -0.2151828226568681 1.4993184967888953
P 9.005871634502736 3.813848917045003 8.17504330864021 0.583344226527718 0.2594646752933789 0.537998194292751
P 4.1819875842596135 8.519263805489476 3.706098438206313 -0.8241025836608453 -0.047020077503280314 -0.1730074748403988
P -0.035795933020981885 7.153606196306697 5.733140942868735 1.750748474703256 1.0660284787395125 -0.19671561709061605
P 0.8059352199144431 7.038062775997948 10.267028861703176 -0.0116201007374316 -0.35641789018167647 0.6780816647116192
P 7.038595578761284 7.335404107607149 8.377642961511336 -1.1897982996000218 0.21920454222175154 0.9763450580397507
Ni 2.216263199723667 0.06749489321441543 3.0366102670155097 -0.4143232471388929 1.463331537171325 -0.02864131788577648
Ni 1.5564103458740384 8.583574033765846 11.647006713577728 0.8527958378304797 0.5906551583668344 -1.4212415499798103
Ni 0.4675596628531448 1.5920053094316566 7.465908068665364 -0.031393169599300774 -0.3753962310563922 -0.07727142018865402
Ni 3.394757480305031 0.02223470058154057 9.702691652710994 -1.5510814882937998 -0.5540627039547813 0.31154236982522476
Ni 7.203119463629361 5.010664134751611 7.56696860122827 -3.5918115759323688 0.718822336964091 0.8015547802673163
Ni 4.850440061657826 5.757990115957384 11.593308607708648 -0.5852306449171534 -0.17493991597642128 0.4012862114492766
Ni 3.7989491345053907 6.017661357457024 1.7526453425775201 1.2096960669652133 -0.8179872147917266 0.2993268015956393
Ni 8.371182026949617 8.901984443069079 9.782547570034811 -0.4258890975996214 1.7995667817575394 -1.9045354107511459
Ni 1.666653780800128 3.67868526866182 7.061665003672052 -0.6600024386124053 -1.411369285171421 1.3861609042265934
Ni 8.016905578998648 6.892645011274768 10.569362648679006 -1.0027528586093182 -1.482636408147524 0.9735723803906202
Ni 0.24222241837122596 3.214034521948153 1.6667014526263213 -0.7788056594962588 -0.23531198930657538 0.17525976120968526
Ni 8.948104598056812 5.166653827989409 6.17995868761937 0.5871353181390341 -1.1256706158821774 -0.8073914415537513
Ni 7.646570268812388 2.9498110884179023 6.585104713085285 -0.08678887276078602 0.06501342875690738 -0.20481202094550532
Ni 8.551643257633277 9.21615112509942 3.4388698101425077 0.19511973335840588 -2.1947540793979297 -0.7538469326683921
Ni 4.637244176988142 1.8756246330307251 10.921892064411244 -0.9684913663232868 -0.39954686016066676 -0.26676892226427606
Ni 8.733600075021037 1.9225860555395156 11.139254092793543 0.3023375633975051 -0.04584791157205007 -1.2136923326088003
Ni 1.734272994659322 5.979411727499626 12.257803388791134 1.6755956435195014 -0.2124163156553245 -0.5768339362130259
Ni 9.292659732431119 0.8991700950481373 1.4659619357184235 0.7444186973759567 -0.8177586437206884 -0.5300360020228807
Ni 1.5952956001806804 6.356851074530368 4.35003077159078 -0.5078378686592866 1.2357835080808846 0.7118209659455934
Ni 6.74974170169786 3.410629394202309 11.382541181949751 -0.2918978561214199 -1.7860558917552982 0.11802057708155803
Ni 0.8305609897391663 8.109473048565636 0.06632646610183605 0.09144616902713928 2.020742845883365 1.479801252691574
Ni 8.891758368979783 6.210807032874846 8.548585717565079 1.5014242302779883 0.03319602713599444 -0.3733722586478279
Ni 0.5510835065687691 1.9628453801305508 3.9090953562957136 -0.05608398747776148 -0.5505436350579292 -1.0219926806755366
Ni 3.5211999887199212 4.21800318157776 5.632175753958216 0.36847610689779126 0.5678967816243962 -0.42255617657164646
P 5.801315393291826 2.680082026333178 2.1833743133587826 -1.241724556155668 -0.48566621765825385 -0.8191277561540731
P 3.9621269913397765 3.587594690965132 11.91333238116893 -0.31306883377208017 2.716106951824516 -0.45926227374342843
P 5.364716244696965 5.352704813979649 6.071770749669731 0.7548154672292484 0.11702093217245006 0.16522860222592833
P 0.7599973395562724 7.870702631255815 2.4268118959270915 1.0819582625958912 1.8907175310314472 -0.06689830448444609
P 8.752126655318097 4.999138769713129 0.8756361035174085 -0.028730020944840846 0.7363037815783061 -1.4228214928724205
P 3.0859375207418505 0.5502945845823556 12.559110829391274 0.455348540511319 1.0125924704075595 -0.13019655032245964
P 3.6138983221235192 5.262651799558931 3.678271178093122 -0.5645744021193825 -0.6263739519246826 1.06452772582427
P 6.714558024483869 7.422092051943638 2.73590386532208 -0.29741467217459105 0.13997882652020407 -0.894433310865608
Ni 3.1843190836210344 0.8539267277656836 7.185941715591064 -1.5824301778084102 -0.09049331819556673 -0.5174368252016315
Ni 6.6840947928047 3.054698453459928 0.011928238706900374 -0.27469383353830756 0.32815529579155744 1.2540005453095435
Ni 8.882401604662247 3.672244898417283 12.769564181942311 0.3402214829274721 0.49729171771232417 1.0600982292980066
Ni 9.009694728015095 6.462701223513159 12.719711603386154 -2.271447258485611 -0.8641595995827311 0.4396717532060105
Ni 1.450616281392651 6.250197047694122 1.1599994815017673 -0.8242324243704903 -0.8204541882749806 -0.6594177697535288
Ni 7.57417452491697 8.453411253424504 0.5023694433911097 0.2835926786898342 0.5975899378134547 0.5315146434509362
Ni 4.734962073267382 2.4456114207976487 6.767046574606006 0.6404319726796455 0.7021872995105713 0.06436345387773432
Ni 3.0489965291505405 8.222810478485837 1.3312282685126702 -1.1592085997386228 0.7090056079839854 -0.551374872709973
Ni 1.2166317415359549 3.995899208601771 4.862037401806444 -0.2944877283357831 0.015469813500824972 0.03434222492529569
Ni 3.6541202570469515 7.07812580483407 5.558901352874138 0.407723225323872 -0.6050978161547256 -0.41431321983656383
Ni 5.877711831620716 3.4997757091836657 4.620269267896589 -0.18647131365478853 0.7308802965698896 -0.5295330942445332
Ni 4.925490471953025 4.650190349395522 13.793620440491383 -0.4047497445178449 0.30529767446709355 -0.21780354810916683
Ni 5.2109325418477175 3.4176399568777858 8.98916499627623 0.5761114562247046 -0.676031724161126 0.10315111616889333
Ni 5.147304675005095 8.71051195527647 6.484331146221228 -0.25861389725730943 0.6757902975742813 0.2309560263307248
Ni 1.8302709662288439 3.5805093489544504 10.980062909267277 1.2180310691934702 -0.38133136559390457 1.1908167135622072
Ni 1.1934875372899825 8.934130209790363 4.956955746723942 -0.9238948106598346 -0.36709696716207746 1.8256614219620622
Ni 1.8900570447253056 5.926860549684255 6.992890449083939 0.13448849282959421 2.115776989372079 -0.6171956278595242
Ni 6.312151726911531 8.821232108464491 4.348580052487801 -0.6491415846385015 0.8461791038449104 0.5265722118439963
Ni 8.713792898608592 9.127799340554619 12.090513603262158 -0.7095720220104167 -0.15670668079784625 1.0272829825401986
Ni 2.3611668565173116 2.2086263601158485 9.04788359976264 -0.1492319696873559 -0.6188681304659407 0.5186043631471714
Ni 4.497593768492655 6.139392767753995 8.425129708849942 -0.020075687703952523 0.012171088144895169 -0.5539480327537879
Ni 7.390357571565982 7.821404354521865 6.282756904984104 -0.22226518342494625 -0.059903618334167796 0.025974055466258493
Ni 3.058801969479307 7.037025212721978 10.307592912085171 0.6363534317348977 0.09377276027778689 -0.22226981141063656
Ni 5.613469703256665 0.7998799632462118 13.604016501337211 0.46279548370766743 -0.37251993794986166 -1.1819739184595968
P 8.48001400192371 4.008499526583828 3.9480993227969936 -0.0851719059826533 0.2566891694307708 0.2998415364485288
P 0.9132136541996514 0.5524033618351388 9.784325448729312 0.894785294888388 1.0917793624513714 -0.153591017987
P 3.1781123987990125 8.149171528142633 7.653622894863918 0.6397524301141176 -1.7926546280187385 0.35789113229309333
P 3.234430585625339 4.088214297912443 8.494983890090078 1.0310216236470244 0.9898040117581339 -0.24997473352507274
P 6.217013717696867 1.5955853701045999 5.480263403972475 0.5395295433356128 -1.8490296643743576 0.47863887849782727
P 1.9194453234609021 1.842151533109551 5.527954859741205 0.12418865356548288 0.1410193519695765 0.7728535556778819
P 8.03620799489846 1.421218655240154 13.474034126142051 0.36105281785052656 -0.25445282390108437 -0.7476950541343832
P 6.873669754966479 1.765082080763815 9.472524597916518 -0.2284245181581227 0.7292358189879312 0.601885479865015
