# total energy = -381157.35781944846 ev
CRYSTAL
PRIMVEC
9.29748835194368 0.00000000000000 0.00000000000000
0.00000000000000 9.29748835194368 0.00000000000000
0.00000000000000 0.00000000000000 13.60781400760193
PRIMCOORD
 96 1
Ni 5.7546619132428525 1.2594191974835531 8.527309657575403 2.5897655135820883 0.9183206590061668 -0.27333089175250996
Ni 0.6824458832731181 2.910718237831568 2.9647068940641086 0.3024802596229565 -1.0887513742583248 -0.591472254951491
Ni 5.89544448413786 6.604266412541875 10.330590093718904 -0.05015759469099749 0.8901691362726153 -1.0418603661337413
Ni 8.635637485357003 5.634928856316032 7.235615158506528 2.247452695343226 0.38328643243774635 -0.6012478462810161
Ni 7.6390396928437365 0.31918278026849933 13.168376972244262 0.965700433841711 -0.7054754833435398 -0.3636997685550704
Ni 2.6032038056328903 3.674850925333087 10.165336533087027 0.3393524500589575 -1.180547470425715 2.6959811276089183
Ni 1.4680641369535619 0.23873347175969445 2.582953875675862 0.05087364692141561 0.5581217045155034 -0.2552244119597863
Ni 3.197517865648125 5.718401708085639 4.829849099703517 0.405661971919469 0.8702189184029336 1.0706394951489624
Ni 0.5013531212294909 1.4632294429325998 13.159028347555651 -0.4538704133038957 -0.9105703256367865 0.2427100815428594
Ni 3.243391673916251 8.512278407914462 1.24045418043748 -0.1256032745248224 -1.5176175522083992 -1.4334743446005764
Ni 8.635479428052472 3.1598909296811395 7.614470149728748 -0.3130757757506157 -0.12004300682822552 0.3605064584287533
Ni 9.008420286838666 3.4486151376175793 11.752919884731867 2.354229324079849 0.7631988061969373 -2.729949771244879
Ni 3.043951248063074 3.8224020678574417 3.29973166499091 -1.0995034705685065 -0.0005941819405731703 -2.112987342442084
Ni 8.074887358833445 7.39798370845628 0.7209179609449219 0.5291492285425532 1.1248051825580887 -1.6387381083715198
Ni 4.13358900801435 5.131172334308814 10.88721771384074 0.12583775913313167 1.2508653421146716 0.45939082890149274
Ni 0.9327612364595667 4.538773556924959 9.321175713305838 -3.808414933085847 1.9984472677099578 -1.275059937083004
Ni 2.3387553401747803 2.6380786850033284 12.801946214907064 1.320953871401641 0.9262067466224629 -0.8130188150428579
Ni 5.366138463727558 4.017853871143325 2.6040591745750605 0.061882082216777295 -0.644576076755006 0.9913816406578991
Ni 6.24373770090565 0.7978063313575183 1.7405214590071652 0.41240803239405105 1.5805589289276263 0.4424958529183669
Ni 3.530981588255466 2.3995330225113713 6.768240638755897 -0.3122933890586364 0.6014712751457318 -1.6341281204033342
Ni 5.429844854942232 0.24591950062277407 10.556248507398447 0.9273339182483705 0.05166528958477553 1.0043006627124123
Ni 2.323935143502832 2.206321913954433 1.3819145382442728 -2.0121113954606122 0.5265439297092223 -0.09135515197522977
Ni 7.660470403840501 7.641029355383132 7.82850763252983 0.590288519056035 1.1601874187121244 -0.23662582302199248
Ni 1.330191679959633 0.5106496799824903 8.738407274512198 0.08794509785241628 -1.4288643566323909 0.03372541727690321
P 4.653662622342315 3.731807339895419 12.39518109295114 -2.7910682358227548 -1.5564129278090422 0.7640267014148714
Ni 2.40641316400274 8.288060175203855 12.074540466485551 -0.07094573508094232 -0.6930603975086386 0.39640188677378185
P 0.6955386065814227 2.329188224506377 9.914449384357715 -1.5605148657925574 -0.5009434555322986 1.3909385281208946
Ni 2.5020006432902564 6.361072005798993 2.5900162479418665 0.3466420417418352 -1.251511974559735 -1.5932522081245786
P 7.643902279330204 8.069271675778328 10.974089727406623 0.5798135876666402 0.8672500655825968 -0.0340887141535929
P 0.3811672766126307 7.443764541839388 3.0405846274765547 0.6452265658548113 1.4800377941824125 0.1755037588996913
P 3.610503007411786 6.808959919398598 6.938788189340726 -1.8441898197835531 -0.8702425725520173 1.0907120975291216
Ni 4.3028125962365165 6.746861993694744 13.329384369877342 0.4306240411814455 0.4074018374287113 -0.3958539846901118
Ni 7.77995242857777 3.9798364406592626 2.3326375927405625 0.31266234236228085 -0.6826790542743146 0.1029099466923647
Ni 7.977012697374475 1.3984538405402132 5.637023580475499 -1.0772891392549964 -1.8237806599995816 1.053901099348359
Ni 4.704082902487846 5.693000969498585 8.475517997875848 -0.9817212347499997 0.28308154338137054 0.7413017490135297
Ni 0.28400015402865 5.196384918660787 3.57543938902476 2.022505337100427 -2.995976158916176 3.633683019355174
Ni 0.009663809548822552 7.19375507602465 12.233017087748427 0.3307461964471852 -0.03232082361989272 1.462603914976681
Ni 5.292790576936466 8.134093765613224 8.673511734518138 -0.48009078045300546 0.35157778848055576 -1.8222009742172876
Ni 7.725506335910938 1.5416816509112075 11.006966576498014 -0.3409532188871741 0.5085714043912015 -0.6829711315934367
Ni 7.78532637693184 6.510110746483643 3.6349600509159017 -1.6821498996982516 -1.172013207702459 -0.3080952918168887
Ni 3.7776718506750426 4.447899904307881 0.6408535684600937 -2.0860190413833557 -0.16218158786948844 1.0889328941415117
Ni 6.079032692095383 6.382084329813174 6.778624073914763 -0.007180062688206988 -0.43849830172319965 -1.2275726901353181
Ni 2.640654089318341 8.869078826661445 6.584684972008129 0.18569535472071244 0.8909895752913817 0.7150883238429555
Ni 8.39399575919393 5.69986251601295 10.768217299007866 0.6544105463469245 -0.23924654847429117 1.4206838777041275
Ni 8.354881225066649 0.38202078605710055 8.828777003252478 -0.9673605951529534 0.3212210305655694 0.04554734961249575
Ni 7.259386047359207 8.15875070512013 5.109053609162913 -0.02050840436599694 0.7805131291056686 1.4786177739064341
Ni 6.427902353150288 6.614354187566382 12.389683487999996 1.3969045158963427 0.3659276294443246 2.1214951228027785
Ni 0.44463565212165734 7.5101021223000854 9.043780495108901 -1.327671649741449 -0.03389948096092226 -0.6372348058985864
Ni 5.880661477419919 8.413074205599726 0.49709115250024305 -1.0531616500791732 -1.475520623038349 -0.6188182510646117
Ni 7.66393836705169 8.57343728727963 2.6859105443499445 -0.24675828347030404 -0.06205254635637056 0.1859871749295184
Ni 8.408109346739739 1.2607487383393177 1.961090427480796 1.7195784768583546 1.3660139969650733 -0.7633960098094078
Ni 1.7427398397637066 5.322635515027404 7.036409959112448 0.5854512455683918 0.6871481457892616 0.6137027842149173
Ni 4.540633054625329 3.6886391007813306 4.94155563480669 0.9273675996997836 -0.005557439483119461 0.8160925688721751
Ni 2.2050481580296797 6.174815418641439 0.07388528162649899 -1.6275548380611904 2.01059932969146 1.7420213792429031
Ni 4.632492241023604 8.16935913950074 5.852544012692626 2.413464198481766 1.426883064536304 -1.5635641941418428
Ni 6.014312874634008 4.00621341553901 7.435418186411278 0.5265886669042286 -0.42409986690968254 0.7662311652653578
P 5.950625078396337 5.4200917895037914 4.7763699458408775 -1.0654360965711522 0.2321402764468131 -0.45671636739312305
Ni 3.8916125722652106 0.8045507295167601 12.449735036484594 1.7202366792676438 -0.6207386080157761 2.0399104199507514
P 7.80201536879266 5.104776764452062 13.069257377074893 1.660019129237483 0.6850789219650588 0.44034409668268676
Ni 9.363128770672734 9.169582952529728 4.439508920934961 0.07806229152106557 0.4098621260437457 -0.843356803904767
P 3.67531579975818 3.822160333156394 8.454126336330793 1.5343937432254735 0.0869685928717599 -1.2977728052994875
P 1.4867892787962869 4.199080517021379 1.3251914906433382 1.3813120607747242 0.43318228882692494 -0.25773098043172393
P 4.646326903914356 6.029783895501086 2.4401398035432 -1.0514240985627763 -0.33092051724152044 -1.3169997718498996
Ni 2.7527353132081385 7.769436969082178 9.23186775775247 2.0335775357541883 1.1911062197781679 -1.0996649358470352
Ni 5.50975676861563 7.574701072410937 3.580555796947328 0.94809120540038 -1.5077159768239712 0.0725534458876944
Ni 1.9216700059818037 3.7374602129045433 5.375617253255193 -0.8231250502389243 -0.24681536196048462 -0.21006401337306405
Ni 3.8899390243348777 9.046660857046774 3.379949466036019 -1.012525621725366 1.7174429185725906 0.39610003926264686
Ni 6.147415720026488 2.0774215333647894 13.406513545242138 -4.640388177744021 -2.614147027750246 -0.9967981836877803
Ni 0.9709274267596596 8.488625597165756 0.5451982175065135 -0.49212097214466216 -0.1404177138298356 -0.4613502666207086
Ni 1.8852982309625679 2.6083267217974093 8.20092597246222 -2.210296140897587 1.6705760788177229 -1.6033167914494324
Ni 6.681035775101648 5.978452461482374 1.5947545045263158 -1.1845463071724631 0.824168146791458 0.6476850546976328
Ni 7.9643960054774645 2.9235766644296266 13.493427397506279 2.5553872932125343 0.6545067056051567 3.2207548527915955
Ni 5.97968902745312 4.241384089704796 0.3872180821296345 1.2292369652116184 0.31116570321209636 -0.17790002704600977
Ni 6.5078793492432006 4.002773344793326 11.655092640464254 1.6192987686999856 0.1532809429457489 -2.6691292975233964
Ni 1.653149240559883 6.472214183350104 10.583954093385108 -0.11589761720128426 -1.4054120391467215 1.5445529431466625
Ni 3.5983325949628644 1.1817107885850935 8.562948790500693 -0.20959298727391645 -2.278642233572153 1.8029269564790238
Ni 5.723292187037611 2.0422584318507937 6.303302990741601 0.7277944585557143 -1.719463548547045 -0.9612449691735186
Ni 4.423596269364046 2.4068780384278323 10.627580698682337 2.0062760197257576 0.2707667305697595 0.165793730700779
Ni 2.249806267677584 7.865349860467259 4.18802301394613 -0.879723258348943 0.656162753151341 2.178038566415462
Ni 9.513283209977605 5.8775096288177915 1.6381905113092572 -0.580903221186393 0.43128404336294757 -4.509863811768498
Ni 0.8667611548314864 1.6696429851621644 6.010803072724559 1.9616678940980796 0.46761295970096883 0.5371103923711589
Ni 7.358804091909486 5.622302866930521 8.906369193544664 -1.9264288683901274 -1.8298649185204485 -0.27459278918406904
Ni 0.45080267624493425 8.829796937741131 6.6411439709356115 -2.032273986451416 -1.2757986150212415 1.680269394846087
Ni 4.102851511027236 1.1934721115399336 1.604456433777996 1.4633299945094282 0.5591630012958241 -0.2720350557592218
Ni 0.3766421889587805 9.231829638049613 11.169416014597733 -0.5244109425266195 0.32454341007058296 -0.7066147391543056
Ni 5.8445035446362255 0.6929176445727514 3.982666596159225 0.7955785080792235 0.7806434840359459 1.4652374959447863
Ni 1.875145373518548 4.76879342246072 12.176598997770355 -0.6890124526915101 -0.7902573529766261 -1.3817943997277815
Ni 6.841417451758555 2.9406840432730297 4.45453180285625 -0.7081748845525739 0.7766353913178173 -1.791006293782038
P 4.413750229040587 7.90480840166911 11.337390950114099 -1.1235481702225358 -0.8417280100520923 0.6183773068724512
Ni 0.2874179108019299 6.831664386320115 5.256167769727679 0.32315501436348865 0.1325138856017266 1.2212333781808515
P 6.624228120355347 -0.04029066642276556 6.863781630600904 -0.7961541780770353 0.545464420762809 0.8114702396088154
Ni 7.890815681473826 4.860373684203939 5.327050892316931 0.5528679123157317 -0.060175641048631844 0.6104246276842779
P 7.213214719459021 3.3845182518858277 9.485422355932963 -0.23667853063679883 -0.3128389771494612 -0.6183762784311867
P 3.7563155195862943 1.5391992214812136 4.870644619751933 0.7088166319016308 -0.7485823418353431 -1.1933127405111836
P 8.999569077784905 3.091321951979998 4.784806486907455 0.6498021010406356 0.572757195040491 0.4628217089599126
Ni 2.4364440518637145 1.2702972590307173 10.874453191876551 -1.6950707215249776 -0.49775323072977506 -1.1842568009565024
