# total energy = -381162.73385446134 ev
CRYSTAL
PRIMVEC
9.31997904944141 0.00000000000000 0.00000000000000

0.00000000000000 9.31997904944141 0.00000000000000

0.00000000000000 0.00000000000000 13.64073141678506

PRIMCOORD
 96 1
Ni 8.95293032696812 5.4391863807013925 10.195737418963965 -1.8109531692176102 -0.7874512509863988 -1.3138519702495373
Ni 7.683921977834199 3.891641137309126 11.998537316918842 -1.673441059070344 1.267075633325947 1.5298066380754234
Ni 6.7256603705982165 6.608974232737196 0.7280972683072118 1.027875621818875 2.694298854810489 0.23194924348192958
Ni 7.532649397672678 8.487397372802143 5.591445014647713 0.22131516080685112 -0.11720887981354007 0.4143348171031187
Ni 8.355799268441311 2.301895028722395 2.521380535641489 3.1690705370434262 0.629162056192781 0.8553566565791204
Ni 3.221460082891368 6.822653392700424 11.241122190475094 -0.7841419841075077 1.3440539477542142 0.3352970490426613
Ni 6.910689914923685 6.187319739996913 3.2124197032008577 1.0732810465368678 0.031755438034725955 -0.5231318187038797
Ni 5.397479474397233 5.699306996332472 11.566971958443622 0.8711524859607964 -0.3261644906137738 1.3392346719887
Ni 4.127231568048016 6.930755829844992 6.135573352246756 -3.1850537998455595 0.3005210790140566 -0.32383250004648745
Ni 8.165140456762165 -0.18707248373594207 8.042602304047874 0.20920140826245265 0.19778545311602713 0.06207234385071245
Ni 1.1563391222487855 7.040573143137038 9.44557882821819 1.0951469933720235 1.062742608899389 1.138306559478633
Ni 6.185959023053805 6.600623531497301 6.1619544849807335 3.192104536044754 -0.2491003013399194 0.24490708919417822
Ni 5.2801782179180945 5.265816130182964 1.323509722694917 -1.5492444350850607 -1.9479528585048322 1.7609009897562253
Ni 3.9342614015613986 -0.19679881388544385 12.821333028483103 -1.0680192839172962 0.4173376084851845 -0.20772816615103581
Ni 1.9227210005484496 7.617964486009722 7.336462906411633 1.777461465218068 0.17080532498275744 -0.2941239172384612
Ni 5.32343224074661 1.344043500565157 11.96668628847315 -1.3870561623473532 0.8998195148781858 -0.6537821687343063
Ni 4.083409026496696 0.8051035953101422 2.9232226168909596 -0.4060188410382556 -0.06874769898835902 -1.3717442145806311
Ni 0.6126888995756429 4.485976202117221 1.814858086865785 0.38210038254944517 0.18695828059353609 -0.0026842317003824743
Ni 9.183609128741134 6.5776963830038415 0.5707312858347057 -0.061138262072217286 -0.5745806214024749 0.18948361811855108
Ni 5.058129716756845 7.486580741167324 2.4231395683428274 0.12074183266746302 1.2573064697543248 -1.2500071078794344
Ni 3.8880622653491717 7.2681483918822805 8.518869078099994 -0.21859827609632032 -1.0118375945194058 -0.14155722675091748
Ni 7.427249754456201 1.3586292677977847 11.213104469417763 0.7620482375322618 -0.11818667034577712 -0.6057233655538665
Ni 7.937667727786608 1.3138374484239774 4.865307737937321 -1.8754369507232926 1.430817880814336 -2.200758119500165
Ni 7.5293967249799065 4.083054867292326 1.3407665959268236 -0.07828854859925871 1.0163701922824366 -0.290816450131783
P 7.673138762059024 6.2180197510283985 12.607282001355284 0.7291504583629765 -0.5729312587245101 -2.647149707928512
Ni 4.283984295898217 3.1568726279890615 10.572889943679279 -0.3673491923821996 -1.1279833231757541 2.330782148800502
P 1.0433250561383425 9.07736136742998 8.638129394178046 -0.1963402360290683 0.49861789272291546 0.1721045034101552
Ni 0.6797107330090435 6.711242362988711 11.712655347161432 0.11935652228416217 -0.746962803954049 1.8599409119702226
P 0.9121649907934419 3.492466434067309 9.015459930493453 0.8050522518976135 0.04469271492168432 -1.1718674261532143
P 3.8026166973052544 8.828834805752503 10.555129791578004 -1.7859463627606273 -0.3035737497974514 1.856748887395486
P 3.740480396896354 0.36509433580440515 5.833922909913703 -0.4393485655386369 -1.2642062821979518 0.8438224306872758
Ni 5.593944633032244 9.02907455590778 7.140418078832336 0.12879195666544915 -1.1293197825989905 -0.5089537274312848
Ni 8.235040299730029 7.811969170172264 10.491604814288811 -0.7048548190404054 0.1627901679877648 -1.3584207579988474
Ni 4.242566308944992 3.694616779930373 6.080915403037511 1.0021131681427902 -0.09758467782470936 -0.7457387017389607
Ni 6.476369570637625 1.4691921794148213 2.8380501242335705 -2.585754335540166 -0.891957852741922 -0.43545617246276624
Ni 0.1185492016755916 0.9961752820617523 6.310229759875793 0.15161178277344212 -1.7116437953923103 2.6594550076584262
Ni 1.4600306399964997 7.336156279100481 2.2271767565792793 -0.009091420778306923 -0.3643132337693532 -0.20412862172523555
Ni 5.682391234334248 3.531656946024625 13.452680526141634 -0.896606664367843 -0.4869461128119421 -0.933208888971909
Ni 2.9547782020003726 1.6065407108571435 0.9011338635752066 1.0177081943675699 -1.1840991923327155 -1.883019905276873
Ni 2.1549189589086324 4.181762765542012 3.9210149153200353 1.3795742521480112 0.8474875382436889 1.145116640421931
Ni 1.985910458591399 2.4869618529641127 2.5817534960117863 -1.5513537681185798 0.5225312090054034 -0.32088447316175706
Ni 8.623152187824799 8.425838911095111 12.641424812652414 0.9017218741072213 1.3375508565283738 0.8094256983749608
Ni 0.9637790348409129 4.2579163144607355 12.985280780169461 -1.0634848863820523 -0.4560674209552145 0.4941117773224459
Ni 2.028651882571482 4.710289458190628 10.808424454543797 -0.1259179775517638 0.1816129571212227 -0.3035554949650063
Ni 3.0684912665404935 2.0265082873871343 4.603678217696041 -0.603932592202031 0.5875027287807818 1.063667948927136
Ni 0.9216378175124469 5.502925717509021 7.84438871734076 0.47655602782686957 -2.6252035426747238 0.1566827695384463
Ni 3.3546705436299926 5.925959567150537 2.7705007799852384 0.19553548073958582 -1.4842181508123469 -0.09283765005802722
Ni 5.83453057254857 6.842094869024553 9.426782294445177 2.320182776018101 -0.5868764080506924 0.21004575854061888
Ni 2.1972316638518463 1.8197072719719425 7.062133982699953 0.7547856424325774 -0.2987238779043178 0.2020748245200004
Ni 6.2264450121007915 3.891659777267251 10.05928919749907 1.7670549251727632 1.0431304910954164 -0.8822478245430095
Ni 5.277000105057822 4.974221945258221 7.695173056558306 -0.13087994954272944 0.1754669921244849 0.6921702815942015
Ni 0.03243352713708903 1.2675917123164382 9.813388073923466 0.4702843358855449 -0.5695173479469546 -0.5095679639765159
Ni 3.198915053539466 7.8186888750762416 3.983543586847462 -0.09066172545263096 1.2323865665841938 0.13351661583462812
Ni 3.1876471988530466 4.292176557494051 0.967625390199958 -0.1203440830084121 -2.331775623062023 0.416828787169566
Ni 8.604092830642227 6.9022087339769165 7.825197016455502 -1.6263942420941861 1.6744918689323613 0.7790427152077294
Ni 1.014395841128709 0.36727241491128376 2.748607217169797 -0.07776507199562091 0.10618244679604939 -0.5351568681892138
P 0.23050638216036048 1.2966234470957578 12.077408571732153 -0.02212280004096835 -0.6832207857103975 0.006349596367111645
Ni 9.304349457494292 4.203953635689544 4.311084931015811 -0.7491017046739228 -0.21030415440832814 -0.4027599677813257
P 7.347368213912526 5.322509562819433 8.323015310091476 -1.198948341530406 -1.1189849763318858 0.715103236241291
Ni 3.2672957399201628 0.06871806962275427 8.526357681276618 0.04900908290885108 0.2851610516182186 -1.580180205431969
P 3.6586882606448907 4.460830898606914 12.33886008037334 0.483417016612761 0.8836747867975233 0.525961574843191
P 6.6626666321155765 1.2330145899950014 8.462259525275087 0.5208435368903352 2.5665103997088896 -1.4739915879883325
P 5.204984626842797 5.877495676026151 4.365143605571345 -1.5416738218266546 -0.525367650012934 0.0506234785838225
Ni 7.94843230360366 8.55123922937946 3.1370816524500933 -0.17625632079499967 0.0008268667766695436 -0.05545946651988513
Ni 6.752781509669748 2.9099025028150036 6.5391890255117975 0.19523671855224442 0.062505317623073 0.38357311044022974
Ni 4.584917099843467 1.8191014733328874 7.302661206348186 0.7715906298050583 0.5458043206007309 1.3929514447858655
Ni 6.995688123972607 3.9633583761941553 4.217223421878563 -0.5984787681763112 -0.7237058903086375 0.12482371604632052
Ni 4.1967492918743226 6.978455482686263 -0.24512290532389402 1.3669982152552136 -0.48363118950609607 1.4446817832806216
Ni 2.2057967246101753 5.946258481548405 -0.14880092171417703 -0.16686536649840294 1.9650530085202285 0.050178163516287774
Ni 1.550061637739109 8.808312211857139 11.208438887899133 0.1409545601699121 1.422980129937472 -0.08655438815247675
Ni 1.6084513065649317 9.225241475212794 4.932010828086788 1.5137665538934253 0.14164567269966574 0.5332645362625074
Ni 5.234174801266177 8.847782323186326 4.437016488106716 1.790400027656607 -2.4016520363381866 0.8633641002646293
Ni 2.360480417108528 4.693662615543339 6.3838622544581405 -0.08091313070629935 0.9214455777883936 -0.7819712017084339
Ni 9.118453155116022 2.4314986575638775 0.2396632615891507 0.6566049828950821 0.6697361209604014 -0.15355605098400651
Ni 1.4730786106838345 6.35344836678387 4.403159800166801 -0.3909886861780105 -0.7371568736072207 0.7367179862975892
Ni 3.1628653745261732 3.3773833326050173 8.731568708263769 -0.5824883062853259 2.1989277511596454 -3.5311301988919115
Ni 1.5376101457117668 8.466203740414286 13.758587402912477 -0.07002425170793747 0.26612743202553524 -0.7786279962678139
Ni 2.525509286366124 1.6801871854080852 9.810469056481129 -1.4935301722418923 -0.8226730503031703 2.2716254359346877
Ni 8.04508048648056 3.044231361041114 8.64143053076194 0.1640430665582594 0.3222895810393998 -0.1255009446190032
Ni 2.617870278874329 2.5974408847695876 12.287175204484996 -0.5034613368581459 -0.9987187977492605 0.08020941977105542
Ni 5.534315406991125 9.344304207734723 9.642400942051289 1.21837508279645 -0.7786868745302074 0.8722495756797172
Ni 8.21477866524841 5.178581126159069 6.292182552419396 -0.19432526248156856 -0.5405065625369014 -0.49088709973756106
Ni 0.47150333275333806 3.308061328339021 6.545123056180817 -0.7773732979251063 0.5217385379007788 0.41140298816830434
Ni 5.372734929986609 1.610483062000531 5.0159968874095355 1.1547672761378178 2.2598078744744696 0.07126172365946437
Ni 9.70004780854584 7.604189556955522 5.9236649883053785 -2.5053777940636275 -0.15014959640561884 -1.4298200356774406
Ni 3.9681115655159696 5.309442952173973 9.748307592128759 0.992023388006956 -0.10099601749910349 -1.1318070677972185
Ni 0.1785950307807995 3.3433840489854485 10.99312034361883 0.7217019725047312 -2.428435732189934 -0.18345952341165822
Ni 8.674132473296027 9.659692299205727 1.0589574570196756 0.11995276110726437 -1.3968870323948457 0.36533524727596434
P 4.844161637442682 2.6520373221170206 1.6385250150034254 -0.17252487877702544 0.1614701636247606 0.3943100372417596
Ni 6.94612447531886 1.3657124518851949 -0.04223628111490232 -0.3636095228341093 0.7592441924245634 0.42814704039586265
P 3.081259637855957 8.598612682953545 1.5795826714192038 1.2435011884401166 0.7457423012833866 0.12599973863229266
Ni 4.564730025194348 3.7742000811440515 3.7107151797648252 0.33827387228279804 0.0551146815859567 -0.9637379107987014
P 0.8521182296903278 2.0437595686316037 4.59366669618723 -0.6510274888073047 0.7961819459911771 -1.0645724630192763
P 6.359142873990985 8.841938696314212 0.8646163216129819 0.39515181641676456 -0.2629289796928956 0.5999738646645991
P 9.027853638650607 6.526939777030109 3.136904572847908 -0.201322262624692 -0.6109905274900768 -0.2279370369987429
Ni 6.353681366260429 8.344205214487706 12.299820552076836 -1.0437611827008797 -0.46311147228618954 -0.20140710902901443
