# total energy = -340861.436706977 ev
CRYSTAL
PRIMVEC
9.30137373144791 0.00000000000000 0.00000000000000
0.00000000000000 9.30137373144791 0.00000000000000
0.00000000000000 0.00000000000000 13.61350065323863
PRIMCOORD
 96 1
Ni 0.740918596349427 1.272269801667698 4.337397060651526 -1.3037971571166964 0.26409188965274516 -1.7077966537320783
Ni 3.917143323330588 2.7626010088484905 2.26199177381521 -0.36005548693426376 1.2794099865215836 0.15483286081390107
Ni -0.024239379916700332 8.054812916210311 10.187813239263894 0.43935319352432717 1.9765784926613248 -1.084208749192965
Ni 4.510570966724863 8.923486810753857 7.923805857763363 0.14302558376632787 -0.9258244235823797 -1.729002855496048
Ni 6.204016271849242 7.249118623131072 5.6119205851718 0.7847909305454162 0.5143584433866238 0.8001594425816865
Ni 8.420552232290348 5.9756024373847705 11.495716603656412 1.7458086141994769 0.5162530893061754 -1.0447662269266265
Ni 9.202807063592886 -0.013145631479766915 1.9561235401019494 -0.8597972088489773 -0.8987165116219942 0.5382375639970666
Ni 3.6939940663921544 4.030992137674568 6.431765988230039 0.4702519399857127 -1.6132985852524926 0.45445122550803024
Ni 9.058831099766868 3.8062244417086952 3.5661243613012696 -0.2519696524679144 -1.172453380563671 1.3579219639855582
Ni 4.464026892625412 4.974802529135651 2.383234250129944 0.16927500438116008 1.3878269790751065 -0.5237954204298075
Ni 6.827087393292067 5.388974098180483 6.990682744707608 0.449616008902916 -0.32700884089194004 0.027499233861533284
Ni 2.764777530299184 8.468054347883053 11.078421633316097 0.9469588915681497 -0.3605249703715146 1.6887134118483822
Ni 5.183013779878298 7.9073861427338334 3.5940591769972885 -0.7504690173350946 -0.15201775996260916 -1.311529749874264
Ni 0.3372278152133202 3.1786421540112264 8.086787318513323 -0.12428866947845692 0.23347750720099789 0.5366298531903145
Ni 6.268102736786335 0.9536884503526932 7.248576353043142 2.503172815992508 -0.009410237570306373 0.45239794252342735
Ni 6.126154472431476 0.3041725932839381 4.676986494652585 -0.3607759100400561 0.6824090884423796 -0.3216378063880138
Ni 6.334021572346448 6.659737077305394 1.5342281103192708 0.7323769357200741 0.5338733734911 -0.054018106087668265
Ni 1.5089525573700608 0.9405363079113217 12.62098098407719 1.1575666932598256 -1.1564981427859953 -2.8370930392923013
Ni 9.49540037673166 1.3490526417338384 6.520185776958414 -1.601062962418249 -0.5533569361370082 0.4916116366084114
Ni 2.2215494008766785 8.266419168361091 8.85133512466336 -1.4121403590094908 0.7417797170912128 -0.7457896095815543
Ni 9.314395644122685 6.006780642097272 2.807199235565526 0.3096217557637442 -0.5681518350579957 1.487887629244134
Ni 7.303485152529811 4.667168894690161 13.158387383687776 -0.7776142102913188 0.029746635134813286 0.59395748326719
Ni 6.373738438134748 0.9000585897526507 11.735694836068095 -2.8197468347043695 2.591020211924796 -0.6434411918196145
Ni 4.2453143909518545 3.929244410541496 10.968941674208832 -0.6065173222100716 0.8658547278969669 -0.517559981043057
P 9.027848223902506 1.2910027683416179 8.908497647002605 -0.7293191227303568 -0.2614557375814787 -0.6552109307610329
P 4.371766566687673 6.515230935177284 11.043271742024764 -0.6363426331016202 0.38817307110608634 -0.2789258693417842
P 1.4780440924954654 7.784096434063127 2.3562788690867373 0.3164331222586228 -0.7813191699467318 3.117572369164134
P 3.489633584369966 7.701016563987928 5.358423736194143 0.8998632236319277 -0.9463886208869765 0.15620197324728582
P 1.1518356147293116 2.5687789832520966 2.2809423926341994 -0.13111494837167095 -2.1927553038003462 1.0391493949604813
P 2.65495621077636 3.807256894191717 8.364298454163634 0.13180400401889558 0.4098135321939974 0.9677511457231526
P 5.990893895781952 3.3097636193549422 11.909348693025432 0.1684694777607292 -0.3666740206920459 -0.6027848517508329
P 1.4162829709886007 3.36941332902716 5.676149361126824 -0.3517253698020136 -0.2808529111611679 0.42543632633291895
Ni 7.804168798552857 7.361581532790636 3.567513056397802 -2.169178544921671 4.250449015876447 -0.4610864714363608
Ni 8.095608741350238 8.823776084465665 7.889554479173471 2.1004061633429636 -0.16457091403727142 0.12668802294856893
Ni 1.7135734778564349 1.8845978364628695 9.819118876752723 0.22551917158586965 -0.39737993441633496 0.5360341285878446
Ni 5.532252458977434 8.705583528594017 0.20217000851091332 1.3745683142929874 0.027430071186494695 -0.0522512439952326
Ni 6.987647706462474 3.3880532819638707 8.51774972739915 -0.14337936756132083 0.8650003503164716 -1.155004074738972
Ni 1.1216712597523895 5.234934047988436 12.881842660767067 -0.8725503947495876 -1.8533064373728403 -0.44919331954320063
Ni 1.8564704823308273 4.3928248767918205 10.294474882133725 -1.0811751045729638 -0.16443541690067165 1.0535784259016179
Ni 2.6717265875951663 6.032954707747923 8.8026117387011 -0.2527651517860163 -0.19607052730744942 -0.17117042163166005
Ni 2.7726092869721937 6.703425629672524 13.062085610868298 1.2116516480296875 -0.029875190292877583 -0.5554428721317595
Ni 2.4793462749255144 6.197430899254835 3.451580734340337 0.7741041402555314 2.465317435707632 -0.12799671445766342
Ni 1.782719890097705 8.475132693284667 0.5697835513957134 2.046033245019037 2.0087422218780633 -1.9994525690460208
Ni 5.061975003648051 6.3245992807671625 13.122216201561889 0.7683543822559478 -0.6712065348583408 0.13574756204767588
Ni 2.506366765584768 8.995451539232564 3.8490265731602227 1.048160083099524 -0.04624797522394616 0.45921702232778977
Ni 6.874180248441052 1.5006650333847271 9.606543421460225 -0.15685940432562662 -1.2978106005159584 -0.1673021969255054
Ni 0.7429221122489117 7.389448448458492 4.50944457036726 -0.09931940112762896 0.7680545916273418 1.7106698615148153
Ni 4.689706123215934 4.77315804823997 8.515938749935687 1.3573974589406557 -2.6980747769131534 2.72374081422069
Ni 3.023430130730344 0.8025653109595249 1.6972495669762317 -0.40900800557356654 -0.6426004410858739 0.5338458626872741
Ni 7.290891092511694 2.1747541896867633 13.162471616888629 0.5816262153953468 2.961365510820842 2.469797582966172
Ni 4.530010837801572 5.892866718137246 4.615112826523697 0.023540249213785266 -0.09366811637912255 1.0006903196533348
Ni 2.2759996426389058 5.751225399115176 6.07782918526447 -1.7321203180791072 1.0593839768398015 -0.5864650315448868
Ni 1.5584451669390411 4.560872795807563 2.2024332176054573 3.361718926043204 -0.2075304483179329 -1.4105606732271965
Ni 6.503064738350328 5.214154779095916 3.477650624605313 0.9175652688973811 0.4712148181196143 0.7119970865121416
Ni 7.115011416822942 8.296918372791966 11.909022214807827 1.5720655467446345 -1.8493567086964733 -1.3663963200051565
Ni 2.282947768808428 9.121708386120241 6.448714951424288 -0.34353306379920834 -0.44189087234451635 -0.7711370872074074
P 3.213671127444186 4.820092780035699 0.6677037632426293 -0.7248338332654936 0.41423325852824794 -1.4710846987541826
P 1.1717963627343917 7.286249707024958 7.308067939362105 -0.09496986590968161 0.5379629701794412 -1.2851260630697545
P 6.911171811729124 8.854489220492122 2.0689250197649547 -0.2365335204185023 0.28620620505328126 0.7199464232662053
P 7.481745979891116 6.851205855350396 -0.38272455463179594 -0.03852900931313365 -2.0266985492461678 2.3269296078236312
P 8.158420918087566 5.776562341130945 4.7350884557376425 0.765129961781379 -0.8786122846729514 2.177903840609811
P 8.29510460491639 0.39829784465272133 13.14075849007453 0.7485147218222012 -2.201202406126435 0.3305615912402049
P 1.3778403934000654 6.65939292647772 10.623567715890735 1.737522205820969 -2.3059738315075706 0.33373973185787037
P 3.5380937414559246 0.421970770909818 9.506525749839243 -0.023756736099965536 2.333795995926161 0.30674829087069105
Ni 5.33762121386732 8.7601918937095 10.300219410543761 -0.5188684154418355 -1.1972395863694156 -0.1520776666662671
Ni 7.65888134103219 1.7710466660779587 2.0211420026858784 -1.0355601349473262 0.5405793247563658 0.8098496732862569
Ni 3.9793974176446616 7.627740341814572 1.550672939057846 -1.069274753590952 -0.4778140686036868 0.15524629420223587
Ni 8.673186843924077 4.069118468556592 5.8488368053545585 -0.12519138379838438 -0.4594797890708731 1.60638720284464
Ni 5.005357541808852 3.584144842748167 0.26653737493437824 1.2795971628317253 0.43581407002281713 0.04542753620517983
Ni 6.108723698078483 6.749634854318021 8.789243804389402 -0.5471608346286254 -0.12023069735899938 -0.07039269079094973
Ni 5.091916125655671 3.4573950230532797 4.438069548982459 1.8491553913189447 -0.6241759158320993 -0.5377441693004159
Ni 3.0295318318912634 4.211606212587264 4.184341095799151 -1.991078228939397 1.1267746475796336 -0.44397783678053215
Ni 0.7957604259453046 7.861902425238568 12.296911822266848 -1.841741101132744 -0.17074233295530594 0.5993678556494839
Ni 4.481913434290728 2.2903051554216707 8.663319016543559 -0.05405333020097787 -0.2804209658300719 0.04789810923285945
Ni 0.2536372997208435 1.7815944238774744 0.514026466625698 -0.15580576625013168 2.2864115931049267 0.8282695705543414
Ni 0.18591864834573343 6.927802667942118 0.8972458543394466 -2.1515508045375786 -0.9870452180660744 -2.768391620160845
Ni 6.240859013157779 5.432151074992963 10.984216390133314 -0.12803630944634725 -0.777010515269049 -0.7252989458273702
Ni 8.33177992149795 3.433127739015417 10.894789262630963 -0.6124354874667194 1.2619730219920589 -0.24919003284024827
Ni 2.8492526064325197 2.5301596795628645 13.635418566475913 -0.23879634831075 1.1550956060115138 -0.38804503016865427
Ni 7.396303560890805 2.226786074281553 4.575156915430769 0.47291226042669526 0.590420416648209 0.5764693537847556
Ni 2.819385895414667 2.1418459294621717 4.533159352806101 0.16614957137830094 -2.6440962658141687 0.8767484919913352
Ni 0.3153361020237783 5.4586134832289614 7.911227610080571 -0.6629026429783358 0.22397548124783362 -0.15272712732480792
Ni 3.945233471967746 1.5768339827852869 11.260924817231512 0.12140517728307479 -0.4182691191605184 1.0062395316063382
Ni 8.808735763158948 4.289477313378752 1.4042051372119946 -1.958941239195536 -1.0649948952686754 -2.5031972414725403
Ni 4.34873636535469 6.1693221478702345 7.052828012949147 0.7986926282281729 3.8864096045937715 -2.2878048739080277
Ni 8.742128625943486 1.1026127449982377 11.106315522967744 1.124110213373593 -0.14619395419198047 0.15853473514552052
Ni 2.2622429109056745 1.9155528082060693 7.4671549149351195 1.3964895398461112 -0.11428784951200317 -0.9076999460675271
Ni 4.725190863961219 1.8219623858262388 6.128280766464076 -1.9618008201315182 0.5196320330807374 -0.7402805068378671
P 1.0524690392687936 2.8834351548568766 11.695099920600539 0.34676622602452534 0.23336360733095296 1.1212285209504238
P 6.61030957735246 3.8035270433296304 1.969233826361577 0.11086956785907358 -1.1674312447587314 -1.5016998525368783
P 3.661792710570352 0.24629572544292652 13.283768041170946 -1.0215990447815437 0.6602130119613147 -0.6242391649698669
P 7.937011018034943 5.2174102598982355 9.311621044341736 -0.5461467915418142 -0.149428144858562 -0.21182958991391906
P 4.386053476722996 1.1538354100793078 3.4743421259727842 0.9569460846878488 -1.7709588882128595 0.7191776634209808
P 6.403335409314694 3.42430073535427 6.232083167052098 -0.1085046671713228 -1.063052169720008 0.1319130187929341
P 7.347527157098336 8.175926103430324 9.647792223500359 -2.650689345650654 0.043323602488299584 1.470881581604441
P 7.7635403981399085 9.07708969638102 5.888192777842487 0.23002554409665543 0.5382807585301762 -1.7500604474972958
