# total energy = -340866.79822893447 ev
CRYSTAL
PRIMVEC
9.26771272515689 0.00000000000000 0.00000000000000

0.00000000000000 9.26771272515689 0.00000000000000

0.00000000000000 0.00000000000000 13.56423436802484

PRIMCOORD
 96 1
Ni 4.040083290608506 6.258569835358211 8.146109137808919 1.70873227817247 0.6684788515145326 2.9973033623680316
Ni 6.031983526120997 0.7890762335567664 7.114631243192235 -0.46549385647543695 0.6451175510807728 -0.6106074331190451
Ni 2.6239397102296342 3.010764773064597 12.434102817941108 1.0835903988826758 -0.36318091993712287 -0.22539987239918602
Ni 0.693428804030706 9.133303120550755 6.775931559170598 -1.0676032794258001 -1.261359556777776 0.15085305023054665
Ni 8.130860970007047 8.808868300007292 1.8892668041089298 -0.6587307709888333 -0.1724955682009868 0.833983333109667
Ni 2.574616942927886 4.807366497613213 10.249434157047865 0.5599477019806486 -2.8138209561382377 -1.6584247881671697
Ni 2.9102471604838454 1.155971080104167 6.873662370524812 0.8820524207027518 0.6531262803178622 0.8114198459868541
Ni 0.7042711011870973 4.237698729762054 11.42435400265845 -0.005330411073977916 0.6266269484757531 1.3239222100013457
Ni 6.523617152543986 7.006325971580357 1.5305877849221081 -0.38606193830035446 -0.5133731966552191 0.6791910957257141
Ni 6.35599203187756 4.553876018237523 2.247525995907783 -0.8117646309207827 -0.6172863878011176 -1.0408216404565818
Ni 3.533315489250576 6.334435332000846 11.27754879870442 2.1456485801205307 1.9167967446170024 3.750968003822289
Ni 6.5073059780886915 0.3504205603475531 -0.057188275120048614 -0.09950966276156412 0.10276030848837787 0.24172740591461597
Ni 0.4634208552429849 4.420726789033424 6.791367861541473 0.11558239995371063 -0.39295815119955546 0.5896997364321005
Ni 4.754605408877991 1.687344658836419 4.6857509369373025 -1.0417276972106186 -0.9040803470370689 0.17220374799218086
Ni 5.924728286364678 3.723081175697514 4.350647125466037 -0.5310065934662661 -2.7822184987416088 0.9020566317388206
Ni 1.703581691589644 8.197375344476166 11.731625019172819 -0.628596156386982 -0.05218208132019401 -0.7292738713147181
Ni 5.5418420014521566 7.687410182216487 4.2252318025590645 -0.4146428352618407 1.7285878794458165 -0.028408375939363975
Ni 2.025291804582051 2.6151817216726716 1.4374018599047556 -0.9595051036642765 0.6695448308852018 -1.1804585102563347
Ni 4.033558820826388 7.479702203868726 2.468907557659715 -0.12225029889218947 1.7042724426289038 -1.052203399930962
Ni 7.035574873046782 1.619792300538327 9.381811277547373 0.1936251510907504 -1.3033053050819425 -0.1227174683365951
Ni 3.7796234912382816 1.0631549368258861 0.5659273189817519 -1.297503867908817 -0.812579156402278 0.5348928158945497
Ni 8.649704601089551 6.606211008649432 7.083202575684966 0.3937971021610831 -0.02161629271819503 1.4037148539499569
Ni 8.220470484670821 3.128307173983063 5.3446612180269915 -0.45886503830500974 -0.0029667959378077936 0.12444113589592116
Ni 9.08905905984077 0.3937563852071877 10.554751539712703 -0.6546008079808597 -0.9556376502890703 -0.2594901292146757
P 1.1801690781171068 7.3584897886978196 1.7903293365535342 -1.1874418835527032 0.6694196181612471 1.0168005949516359
P 5.197954251828205 7.4900727744457 10.41217797340429 0.6785778876217475 0.30482073483067507 -0.16405695051533037
P 7.270724548873026 5.61660464027651 8.703639909031299 0.10252222433564279 0.2562700796154812 0.15808582053356
P 4.081333880097436 4.64722042114305 1.8231824515118147 -0.2915080768821689 -2.4913580827457675 -2.962815098783175
P 1.8362860705813266 0.8339310365375504 8.814718080300578 0.4526475966403882 -0.5444843162377268 0.21488123225604927
P 7.926934218464831 9.28856511239709 7.9696926648196005 -0.1147925570625636 -0.8851989367515336 0.7281834664640169
P 7.744332473980362 7.326367896276199 3.514859766062921 -0.26818431455456393 0.751207438163016 0.14430136515495792
P 6.895428520709872 2.305834737500357 2.3127150874524087 0.2212156591145093 0.7558269392128983 0.6644023674523138
Ni 2.5326342041310195 -0.10632012753896797 4.937598250840877 0.27779175573734094 0.3634141189938515 -1.2472017772201553
Ni 0.5851105576209644 2.089517053999773 7.566700077077102 -0.9228404012533913 0.1314805592412058 -0.015301406243760746
Ni 8.474832129045828 1.9847362935500237 0.8077895991591133 -0.04054372575031727 -0.9455869509212876 0.05625650849988376
Ni 3.8805581508931746 8.919515522633294 9.240078292786174 0.2423799518969503 -0.3543368392829317 0.2759274488350925
Ni 4.347159685154942 1.9749310534513296 8.787114197848819 0.39685003005479397 0.9541538666546922 0.8127035977952842
Ni 9.02049652085198 -0.17750450246719027 13.287293088362492 0.6146510070607996 1.0425332238310496 -0.7040559772881939
Ni 6.02163149096954 3.869575911274127 9.460334754209203 -2.0903634343949804 -0.037478456561432234 -3.0265159793762453
Ni 6.572837975005389 5.714629238125174 4.383553993158318 0.8741210816708171 1.7263741596239497 -0.3540007960997516
Ni 8.440485985562123 5.39099144087896 2.44904962953167 -0.2802648998681818 2.2974483105350627 -0.3417741721265727
Ni 7.662090790959747 3.5575690935400686 10.767370479051293 2.693352431736819 0.020091371433236367 -0.5686542286157109
Ni 2.211174319383097 7.130105543185421 3.9042881294118006 -0.5982106021165892 -0.628995962928562 -0.3077533350964377
Ni 2.453895716533189 3.406903887222044 7.870470678482513 1.4066646806068999 0.3578150276395192 0.18732029191864513
Ni 2.984833712765783 3.2515770213863995 3.3512206886540072 1.0468516487007453 0.19921447225306982 1.0782291345707624
Ni 0.318110533356932 8.032345183382171 8.89702556408178 0.9249296796822521 0.49934731468977234 -0.13784198268285938
Ni 5.549858572988424 9.989111519826468 2.1707253870477943 -0.5124005483293046 -1.1697357245221918 0.8283503031936057
Ni 6.417946691669402 7.261883150901235 12.50545123138516 -0.43894258834946986 0.5670732572818363 0.025164672191085695
Ni 6.803140637058836 5.117705127050708 6.572197576053764 0.8091241079741419 0.21795704296789564 0.1856801852120609
Ni 9.5339741462472 8.665302161662426 4.224892604272096 -0.3991539955976222 -0.7481678800057436 -0.7214512899465059
Ni 2.6331332812862547 8.014449230045141 7.313387537786379 0.23188702278542642 0.11611950340410324 -0.19621528041542982
Ni 4.092659025088555 5.537143271083502 3.508389049014804 0.7199657065399149 0.5673877031984615 4.079203518032478
Ni 1.8592514627973602 5.920011020570504 8.113365381861191 -1.8922442520886187 -0.2436945569433158 -0.26497120693390497
Ni 6.960923446775535 3.221512561197209 12.86429243554526 -0.8913857822885358 1.0767278674348877 1.284870752525839
Ni 8.823057168240847 4.201285886333161 0.39768311510304466 1.446401851295522 0.9290426734093613 0.002277226069950917
Ni 4.891192959515564 1.6424055196695309 12.15622620598348 -1.3712618756275738 2.9722559324811004 1.1985806737783422
P 4.858274043796698 7.9255162584127525 0.5307563490625231 0.4714094506289236 1.0358010473135388 0.28915037528326976
P 3.2101410776422963 3.2529671783002025 5.7483053259764265 2.4097582103850885 -0.6108637721042254 0.9068121441459351
P 0.8105624988165133 4.079962258609149 9.153592924093354 -0.9923638020655103 -0.6321892730548789 -0.822734242558409
P 8.791315252042335 7.487264657479818 11.936635166336526 0.31897002974786354 0.03937567358414509 -2.021278663782177
P 1.1757205759929354 6.635608193519996 5.874697465808166 1.3533302308498176 1.365227753618352 1.2313301002952213
P 6.263574400247903 5.202013510016512 13.553654567217452 0.513815169288644 0.8465570560096195 0.15770529726568971
P 3.365736707147943 0.36387727927317104 2.8196515611825466 -0.05055662990162906 0.5176394281307408 0.5286167530778508
P 4.442394701463241 9.058040025237434 5.896088273626497 1.1773564742922433 -1.516049436390331 0.7613710089595791
Ni 1.6784661900135938 5.249695892159972 2.310124761736355 1.5047810625653635 0.3381581726405402 -0.6789090457089211
Ni 8.621651234568995 6.812677113487529 0.4116597527144251 0.9599691877848887 -0.0471342344836414 1.1416050277242469
Ni 7.518478314051085 7.975571175022437 5.687266316205141 -0.39128282037966156 0.4111487060656532 -0.11375743092982989
Ni 1.578569514187674 2.1534179334709407 5.062388929907915 -1.066571495727176 0.31524835792190226 -0.9244257434626402
Ni 7.860753481655026 3.337850159457045 8.063380899868474 0.6748557015751538 0.9238516161267252 -0.48858287708441667
Ni 8.015477946161356 5.50516966206602 12.089815629897256 -0.3148133272670126 -0.5586156134327863 -0.3415761971831537
Ni 5.233319843715367 2.967178719960478 0.7090282181461329 -0.9935889327218631 -0.3729863360633189 1.4547988171099655
Ni 4.737293321444757 4.348475700366675 7.237983573239125 -2.7898083952737243 -0.2240428441506593 -0.3625430292428079
Ni 7.409554885998202 7.46312226574343 10.062111439684118 -0.07571847387923733 -0.09564863714426107 0.352517783796322
Ni 5.68813284734808 5.24128080897508 11.2252177318412 0.030386325601341215 0.6848596068654011 0.7674593812455042
Ni 0.9889390930542964 0.4465202542562377 1.9145370764880498 2.343648977460841 -1.3130888668312677 -0.6812600624396009
Ni 8.995603444382139 1.7354070172029854 3.2085386901063186 -0.21163907116966774 2.00143771779685 0.9071798118979989
Ni 2.49959480814629 1.2179072044704924 10.875192902828445 0.5130512945394261 -0.8998717082723598 -0.5636418630027842
Ni 6.011464810073257 7.792719202293482 7.829913313907933 0.18445068368033396 -0.6779672506209421 0.1967243588413644
Ni 0.4841786782798988 2.1355219801339103 11.799432239571773 -0.5895377569329395 -1.1133676301451083 2.07115497978733
Ni 0.1863857516038429 5.9816876489795865 10.053511929015329 -0.5561350131027777 1.0598475467397812 -0.4617490447210241
Ni 9.006539345437393 5.478664003576167 4.836368877920258 -0.9575055567357446 0.11786862488472605 -1.3233843352200048
Ni 4.1090721443841955 4.836671005356191 -0.4294695163227997 -0.39159469519312556 0.044454887879265374 0.4928491085599383
Ni 2.1908594930160485 4.8855025838817285 5.019282017553419 -0.388866240518369 0.8195301337988143 -0.32907189406855586
Ni 4.190489000969287 6.664847827273664 6.011221069227704 0.4131335977061659 0.2550601184677801 -1.7591747510937383
Ni 5.930316717158167 0.24274549320326466 11.078493156988172 2.126906009405705 -2.2269728302223197 -2.2636408750673147
Ni 7.1659345207105165 0.5874997739701547 4.179723625828792 -0.5203894800720521 0.28217522951701723 -0.010619941607691388
Ni 4.113956229008025 8.65606225204201 12.321615027561233 -0.17161496536824636 -0.13926894493737305 -1.6046751052495396
Ni 2.6497039516987924 7.618551076419421 0.3110930212560519 0.0873624858760689 -0.19642405399212623 0.02417531169462288
P 1.8076024995931808 4.531003303149077 13.653894148415443 -0.6360608401951432 0.2070085143761919 -0.19866631305908367
P 4.543894691596414 3.342706440942598 10.944506126550687 -1.6476094427192205 0.4098430998803523 -0.5181891299866238
P 9.026529801857887 1.1197806617814823 5.450652341763027 -1.9244902566065178 0.5512920831881796 -0.8497974173237882
P 2.5264897105720086 7.183394891547889 9.809559779610884 -2.353981726845417 1.180908967530192 -2.3876683204645843
P 7.586558931976422 1.6197274265490165 11.835811719234735 0.576740090947639 -2.889285662135456 -1.6904059690594566
P 0.3509200900652465 3.873523956909329 3.085347618261431 0.27939432433777045 -2.7872033535507095 1.817251600631812
P 1.6141853343193198 1.0778349938356513 13.440325268519087 0.2391264779566591 0.02480086109376374 -1.2509712715649166
P 6.118849797808198 2.9791896756957406 6.7194365089649 1.5255041540453276 -1.604309494380005 -0.9911600115653962
