# total energy = -340897.0270072371 ev
CRYSTAL
PRIMVEC
8.99035736883386 0.00000000000000 0.00000000000000

0.00000000000000 8.99035736883386 0.00000000000000

0.00000000000000 0.00000000000000 13.15829676854178

PRIMCOORD
 96 1
Ni 6.409036868332322 1.9676205919466607 11.524483600818852 0.543904789585173 0.37580940733441087 -0.13639907958874575
Ni 4.530780427203995 0.319973106894375 5.973458555950743 0.11316710564399865 -0.32344297791755267 0.5519855097107783
Ni 2.672149935898246 1.4501086589933636 4.847490034425628 -0.4836787549145799 0.26173753048795567 -0.16510287528134146
Ni 3.3089818899441927 4.254165116099517 4.6742746198394425 1.0638389272873614 -0.2576471624686659 -0.43145605016443755
Ni 5.00578595119662 4.397974870273569 2.5886187288476115 0.05079265717183511 -0.03318677116461381 0.41560494206479387
Ni 7.319697122742938 6.115240984570517 2.5497489193845264 0.029737636273748782 -1.0281887821839197 -0.017310466253989545
Ni 5.237206736530095 4.463361738372336 11.650553582116169 -1.153114571025743 0.24844878379884955 -1.048056467642124
Ni 5.649729277807687 7.867965067763591 12.357692826770226 -0.7498966897713923 -0.010546150946962481 -0.2966870499799471
Ni 1.8860510808425615 6.512614773923673 0.32717168592458024 -0.14229693313041944 0.07410279265268528 -0.5125237041707302
Ni 2.71909758132816 1.561157551438843 0.3401501656148566 -0.3371785823360902 -0.11058931761449341 0.6365542348917941
Ni 0.4870382181028115 -0.1224540596213484 4.746631711894896 -0.02413725936783585 0.3814627489654463 -1.022917249372335
Ni 8.632397161906582 2.317920870868751 1.5038485193069042 -0.3314591633538098 1.2415497211407005 -0.8920290722994896
Ni 6.835350617593347 0.6575034824138128 4.77838295650708 -0.7184189308780853 -0.9510942538927619 0.408183195679426
Ni 0.8965912443889251 7.381532799737757 2.5014050714775413 -0.37676045839377054 -0.43424055488811025 -0.14213778184473586
Ni 7.568747998595 3.816487555305859 3.864986037357117 -0.012257734321430503 -0.15524783686413263 -0.46561752653749483
Ni 7.4408421863523 4.047503774564201 12.506553363633385 1.7889113589262222 -0.9232139825427261 0.2244449646850844
Ni 7.768342919351322 8.76174143130531 6.993660918935898 -0.0837220609100042 0.7860212034080915 0.2137257784953674
Ni 6.984554586102509 0.5653091671409906 0.3733785259191386 -0.47594024861974166 0.5693813365897227 0.4198513760459737
Ni 1.7171042878668938 6.676967494357271 9.135015669080637 0.8868891799697629 -0.35627545106654124 -0.21915440571010644
Ni 0.15174823960388967 4.846890377598708 1.2332873147578658 -0.5230598278153638 -0.4012247620837219 0.7634335479155627
Ni 6.353692229254086 1.9257524983489764 7.034135507163679 0.870973537180771 0.21270530765065304 -0.2676451542216423
Ni 3.3923854339222292 4.451242736832787 0.38250104139553337 -0.2722520568660344 -0.4428491224927277 0.3752761605387601
Ni 5.822110387243375 5.634643458383827 4.90518924806114 -0.03533878451061011 -0.6629787476319098 -0.3088226569012165
Ni 5.375397517438405 2.7466979780094762 9.220926623688777 -0.7131548542656686 0.4621182551349848 0.22804913709657498
P 0.1293721395061279 5.559457100909609 12.350942866565557 0.8917961303530769 0.19522617702928316 -0.9739333632744647
P 4.042810808092654 6.161766083210845 12.501105207154925 -0.09787058449624435 1.1293074413038164 -0.976095661033106
P 2.4985551282371583 8.45281477633352 1.321645444602702 -0.8625107511253984 0.4637298225964787 -0.4890665015890545
P 6.168850484704291 7.730916062222878 5.887166410196254 0.16584438143305633 -0.5883468219486319 -1.1258565066407384
P 4.801147440036969 1.185333648354454 12.781758986724954 0.15983108535944085 -0.5034394824812749 -0.9236081326573513
P 3.8800763519595893 6.1434527255431455 8.292963527762572 0.17495637103665354 -0.25252269675790706 -0.4400836439324486
P 4.614741373329993 0.8765022911692503 3.9083168620753383 0.8901233706363444 0.5758340341936019 -2.005086627403347
P 0.16000228657233156 5.590401910478693 3.655335402044426 0.09822745361503084 -0.4830190098433939 -0.640157121751704
Ni 1.2444452471100422 0.9547130048140205 2.4548907612658817 1.1472192885872308 0.19239436400744286 1.060151451133445
Ni 1.8613006274016284 6.392548553181333 4.79275134542437 0.6393927327818537 0.2958578692104324 0.07852483297978088
Ni 5.832970738771397 5.635785233751426 9.4440250353389 0.2979708017883772 -0.38538753794114916 -1.177529766645314
Ni 8.485872319850523 2.2912554713388533 10.169928953593361 0.6436846752889882 0.8637880751759253 0.26476834689447953
Ni 2.5096312483385854 5.102495223867929 6.913921844562847 -1.0823814661762392 0.13117022708963863 0.19690947826897703
Ni 0.641942073092741 9.034320072015682 9.00957770989625 -0.38989442467256724 -0.04914072339070892 0.6812814025958397
Ni 1.4647000087698383 1.1872755655150942 11.264804324655177 0.0773917478166022 0.1614431670415671 0.06888576722812007
Ni 3.9987400769747996 6.802275093361893 1.5312834934152773 0.6390523187232994 0.10674680393995163 0.03424040924010877
Ni 5.578193005366893 7.702713311607474 7.976466992007175 -0.34223362826149445 0.19650787195518415 0.8366099720992365
Ni 5.286680672340284 2.651184422849116 5.019047627139489 -0.4858760196762148 0.8986694604341426 -0.8020507460671285
Ni 0.5491175337784332 7.365682799949757 6.687072655878379 0.6963982036326201 -0.545096753010745 0.44889147203206564
Ni 5.088407334096065 4.51858051244942 7.207930799790889 0.45155153536273207 0.3033374654169292 -0.21309380133832334
Ni 8.188192601767438 7.112846983705892 8.977590018889044 -0.3451600578796701 0.1466760360347216 0.4939706237588912
Ni 4.7216007593085365 0.4990421430698779 10.610955422453403 -0.41457907190344084 -0.3103118398522333 -0.8100563899804243
Ni 7.941029700932666 7.110482519755668 4.739960866833808 -0.20964080979271638 -0.014935024043277505 -0.09958576741513817
Ni 7.22188203613293 6.0449004296406725 6.9674495324458725 0.21594001253786682 -0.8145655907046874 0.15122123220324277
Ni 2.1241786726660243 5.295715981351595 2.636685673752061 1.0508790246925839 -0.6887008349883623 -0.8255128337448104
Ni 2.5003531996821953 5.316546639042348 11.16207780589305 -0.7274201059354312 -0.38404182254653213 0.5507925178439417
Ni 1.0662473765496598 3.2594360312762003 3.6526382948768705 -0.1473362953265398 -0.15434897919894708 0.12236779830666021
Ni 3.4382901979140215 2.4283763997373677 2.630251275085996 0.6622932915291111 0.20924048903050418 0.36871367682989403
Ni 1.0621837350838765 3.307309683500308 8.114813306095483 0.21972930437696997 0.25464797063102595 -0.6150482424992182
Ni 3.6591023617217786 2.6604984329344075 6.996055950100687 -0.022105830760103865 -0.6375855043697859 -0.18956486497844774
Ni 4.004224194882162 6.913836436169208 6.071304209775317 0.7687313059793922 -0.8800356473830392 -0.3316869630938997
Ni 0.7432301346988374 7.402705091003067 11.322463980718897 0.9119834039342293 -0.3961632884004145 -0.10370570312078269
P 0.3370592808008382 5.577060220356519 7.824817646332763 -0.33311649645157465 -1.0828077550803805 0.7245103884878039
P 8.551052409733112 1.6847659729279052 8.042127166965589 -1.0004959442543413 -0.6398143937003046 -0.6948532277430033
P 1.788146090660302 3.3247060247310403 10.311499209782621 0.192976461763158 -0.6673136275618379 -0.040998039678916486
P 4.000888772351619 6.063375613738427 3.6261895629561005 -0.5780711510542366 0.15194654040504155 0.9703153069059031
P 6.848737259501646 3.898695381772946 10.362881798431717 0.6625146635112977 0.28992890532050714 -0.4738221738354743
P 6.3863631874104065 7.874950575327559 10.107979998097505 -0.8719448999551048 -1.1740880879536166 0.7321771610044423
P 2.3717641202903805 8.306478731779192 5.775097112205717 -0.1536540100144515 0.3964710494488204 -0.4129271381223147
P 6.977407252108487 3.9570877519505196 1.652945502565087 -0.24042128550868272 -0.2046616114105701 0.053981082202145744
Ni 5.272475907924493 3.11836833605583 0.4701893896270932 0.5762932332182075 -1.2801543208867758 0.676917469200189
Ni 1.2400219913552515 0.7870482367786643 6.8421428324769735 0.5565003668619964 1.6082929045077852 0.4587987038434486
Ni 6.824885841783232 0.7217198060018609 9.216820727544036 0.04411601648260789 0.3483469402480839 -0.7636621189866009
Ni 2.95930194567064 1.7953024150115489 9.166858615336519 -0.3511612697684275 -2.0031930099250594 0.09786724206213468
Ni 6.401457997191491 1.7763327612664095 2.642225531874219 -0.4223304337140855 0.8609534339406077 -0.3161109630325137
Ni 4.070177455486116 7.005870723083421 10.301472264369371 0.09031539785680574 0.8497161704638915 0.3833303983018043
Ni 8.157247792198353 7.184482150076162 0.281946592939012 -0.40386579925099475 -0.523158301066441 0.34639161629392606
Ni 7.57440293328964 3.731726467386819 8.239514955023127 0.1306863454746846 0.6462943449976933 -0.45577894318051826
Ni 3.1127134013611886 8.479021667644933 12.242768191324968 0.03732496170270346 -0.9102455953075161 0.34425065869152327
Ni 0.16760003746333502 4.824684195252503 10.059649635726359 -0.5865388222056157 0.2983878347211377 0.3484852655981611
Ni 8.527686471304857 2.21411820634677 5.769307322152698 0.5344958375664473 0.9507582107095821 0.1078084124352466
Ni 3.6073448751763912 2.6268565161977664 11.527075520806871 0.17704307836235314 0.7435064699743325 -0.5754475973884606
Ni 1.0917889814264092 3.4118495573147536 12.411957723945719 -0.22602130803326878 0.5619984138620902 0.33534769977493856
Ni 3.070827327049054 8.348679468594208 7.879016913900511 0.4337093649749885 0.27099967251617196 0.8054834258977612
Ni 5.588244224744649 7.605464617502653 3.463671774432162 -0.5070585672911009 1.2240561923416273 0.42764438972783125
Ni 2.8399279824346397 8.394791010802178 3.517344207066514 1.5337892768722552 -0.5933877268066491 0.30162716759404185
Ni 3.3451770681327853 4.124038685622197 9.059987541893582 0.6559264687708187 1.1320924602481213 0.16482673880181933
Ni 7.297014451463797 6.308956211701568 11.26022553572039 0.3565413031334182 -0.9124297474430285 0.3347455474145654
Ni 0.45510177213178854 9.031263350559119 0.4209447079261449 1.15650714164706 0.43643679120848067 -0.8810879999069535
Ni 4.6467020932655245 0.31652260779134916 1.6042726075836604 -0.12583595936091876 -0.4313120683874056 0.36813029352259824
Ni 6.027189425907058 5.601603895581273 0.4205626177440746 -0.41594561323366436 1.0597025365214847 0.5620673194268125
Ni 8.011316313719158 8.87492103841316 11.26467306543969 -0.21392478188005096 0.5585083984309607 0.05876102008929235
Ni 0.14000593403207615 4.7682337422355685 5.698055145000221 -0.14819015868640284 -0.4014890714887021 0.7822709923370399
Ni 7.9853341813383745 8.633386101201351 2.5220505278094554 -1.1633537322552479 0.45431469993016593 0.15106105247629467
P 8.434114833305136 1.5418642448335969 3.6072288995681863 0.10025039758233058 0.3519279727311229 0.13849170045171633
P 1.88062090507855 3.3257578965263868 1.4342676495625886 -1.1168807855046894 -0.23206622867576807 0.7088672826339082
P 4.824953905969258 0.8880647895965601 8.093194194076082 -0.7913449296138501 0.6902185571844693 1.023165103717083
P 8.635840468723826 1.7302391997728883 12.410865395542857 -1.2328578497936575 -0.43911665203348893 0.2778040970325151
P 6.2423196839485 7.637110674935302 1.3137546080661573 0.45052746497359186 0.266226933717877 0.8264417733169831
P 1.8874176151407895 3.2071930654406535 5.877166435854682 -1.211844480766784 -0.6052942484362478 0.3001318139954379
P 6.898876481746501 3.9263317398831634 5.990630138250846 -0.36021515244057967 0.44232770277161887 0.2397018908441549
P 2.4732742437199393 8.644129578085447 10.063294326545448 0.17402126081689384 -0.05242685034114842 0.6364292792781555
