# total energy = -381164.3009965623 ev
CRYSTAL
PRIMVEC
9.32969231053868 0.00000000000000 0.00000000000000

0.00000000000000 9.32969231053868 0.00000000000000

0.00000000000000 0.00000000000000 13.65494775623265

PRIMCOORD
 96 1
Ni 8.189267865278236 1.678094401064677 9.38440329051294 -1.5020027284892778 -1.4358855251452303 0.820647278122393
Ni 0.5000612344368892 2.7720661088117824 8.288607627958323 0.6941099218190756 1.6556274279276908 -1.4552654723337388
Ni 4.059377026155272 0.9418883966613231 3.640599801257906 -0.7323116296997775 -0.506418876824573 -0.7329698321090667
Ni 5.9338427867520975 1.6531281449782065 4.6924134292673685 1.916908587604518 -0.16441099142063942 -0.24440083898172105
Ni 4.14938056594084 2.272647690161275 10.79834611886602 1.9475378824546008 -0.49067652638865167 -0.39371328419802515
Ni 5.5385530617417595 3.5019372522724184 9.421094170674099 -0.438358947931858 -0.09985367636454416 -0.18697704964661346
Ni 3.145776255971594 4.962845750707445 9.764707664056129 0.9934472649376762 0.07420743655134962 -2.7985704577370707
Ni 2.1324783959000153 2.691905394202308 11.366856505406647 -0.6916246935033766 -0.3357055973349896 1.177667577774759
Ni 7.417422437014524 3.4070636132054086 12.903433471700165 -0.5560761348403842 0.11542170600613025 0.08982123182920661
Ni 9.048243288157622 7.314301350122239 4.800969994782964 2.310544738707705 -0.26312309798157263 -0.44893132413106557
Ni 5.724428517650111 1.4514108718670051 6.855124692449972 1.0571849123059534 0.19564835216836626 2.539989213489909
Ni 6.555302907894054 3.6732303994127755 7.336912791920135 0.9204335915841115 -0.9868181896569327 -1.1421110208263878
Ni 4.173441841892636 7.623030191735613 12.652455424247945 0.3625407152499627 -1.150899051431663 0.39272829457693653
Ni 1.1629834402850803 1.1032640810887062 13.02849986037369 0.1804636740081279 -0.1343607090024783 0.41923688239042634
Ni 1.3700466269753355 4.8428938992486446 1.7996267023669181 0.5734120550156706 -0.13286561251419055 0.30833697551404965
Ni 8.078972245153327 2.0216789724011655 5.720740490359012 0.7267536759960258 -1.1204407349418057 -0.2215784417705668
Ni 2.9615241664903893 0.1873999275991323 11.571966987538273 -0.5602806598400352 0.8146182983194938 0.5278798749118264
Ni 3.2795640408295856 8.094599479437647 2.750297138211423 0.18379325260199314 -0.1575443462077932 0.5256031630625077
Ni 9.010486024188285 0.7757601670730848 7.4013641709547215 0.7442695733926021 -1.9731375853005761 -0.44444732021778294
Ni 3.9753165002438005 0.16139807568844736 6.429582507803614 -1.4486140284554923 -0.07524204846345106 -0.9218394707927027
Ni 5.263765640024715 4.808187444599292 5.181957301788607 -2.083470049709257 0.6454559082567981 0.12626661914043413
Ni 3.002873361922092 2.6490821074172186 8.850754231510692 -0.42149791051046126 1.665466011284667 0.10735255584475062
Ni 7.060123218276275 8.102511058346963 7.449033299821766 -0.8689287388366003 0.9254567558303158 1.0731082684044293
Ni 2.422809084672388 4.340098132054303 5.631368570729294 -0.33112414861189426 -0.1448649509679118 0.4363102929329453
P 3.1317443990380918 4.288719517604306 3.519344591811333 -1.122752156683802 -2.1137597018317336 1.8100828507975146
Ni 4.710944063736331 7.2539848906308215 5.895933448801366 0.5032487066267074 -0.6926824453439296 0.634004986107379
P 1.152524855429724 0.4392652287710165 1.444133712021173 -0.6241897997891702 -0.5838461058648009 1.0324876666695895
Ni 6.974150105482245 6.326921374732354 5.667376517427998 1.4334550613268668 -0.2079935039972805 -1.0088057496716174
P 6.401325669309933 2.2987801577615006 1.1239265502048146 1.0466112505551652 -0.990935554259416 0.10201391724065657
P 5.378343588828131 8.781124873355031 4.5207704186728845 -0.20595667607290982 -0.5131112012430842 -0.06718009739092301
P 5.957409589022061 1.111129011537471 9.288982931488283 -0.46501665972870243 0.03318702827492994 0.12053177353918597
Ni 8.685355583845459 0.1348000564519308 3.480072185843326 0.013952091304717907 0.8836418766770588 -0.6720370011794361
Ni 3.365191955015544 1.0891016084656637 1.3157739420328036 0.6194456002359654 -0.8807342161119606 0.3301103626353992
Ni 0.5280932273507192 6.487158836722313 0.008842682181897083 1.9743799423481092 0.03153072361842957 0.1680709567707299
Ni 3.6176720828974798 0.4658054039164508 9.266274460892442 1.0304382403397288 -0.0046886637249209575 -0.2742621453175277
Ni 7.07943568094406 8.493798345442093 10.504532656028967 1.365903182418822 0.09454460544680492 -1.1201987941343288
Ni 0.5607284903516434 9.225647383630056 11.317070469399834 -1.9635872226079796 -2.0976455698786904 0.03656417227727896
Ni 8.155998183213828 3.9592880891987496 9.438504309120647 -1.459492623041209 0.7761471388274891 -0.05323906182979864
Ni 3.1640344634309447 7.492321205273936 10.383741132280264 -0.11579734417799412 -0.8687793577429297 -0.9360620421499878
Ni 9.222857805689154 7.370839284309088 7.480890466500713 0.205940992343626 -0.16336455243399606 -1.4364493680685002
Ni 6.960500765925255 5.76254030991963 13.4133505928821 0.04109908403315503 -0.06200729494073192 0.038428222069211246
Ni 9.11573428088166 5.197590133888193 3.485247366056765 -1.4303152301463042 -0.046797419969512956 0.40536603794560505
Ni 9.04774881447579 2.450984754844713 11.641757749367436 0.5292081068049467 -0.26749371624544255 -0.7192308852564194
Ni 4.749858209527314 8.033601952422199 8.136614814886007 -0.09973103474375083 0.2126348594240338 0.786434122575794
Ni 1.727849649087527 0.5148180084473415 3.582471154566294 -0.1531477598019943 0.12223487227322173 0.5127923844510847
Ni 4.87123750387895 6.587229114294614 3.6919840135231694 0.9462767778994607 2.039577976311997 1.4298804566017311
Ni 2.276566160847492 1.9322258844500904 6.864587799157186 0.14665983808480546 0.03510738522609437 -1.13782062098115
Ni 7.756510096753972 6.407856453786962 9.389633515909829 -0.5255005760463723 -0.28824740385302616 0.13282061820886804
Ni 6.964400577227251 4.60426836415012 2.4000073171554477 -0.036990461181420166 0.9376098462530821 -0.3538925526566615
Ni 6.787630900818301 1.5303773858863943 11.406687759932046 0.6635197077370443 1.9442368431058257 -1.0596464864725685
Ni 5.330463608919399 6.634586631445185 9.954006183999654 0.46506499646813454 -0.5506125406226517 0.39332967560636134
Ni 1.2142407687376469 1.0728866035784121 9.65154876142265 0.8478971149772817 0.8668605434536618 -1.0894201181905754
Ni 7.516783657986463 8.658280817342119 5.289120944272175 -2.465011731541755 2.3134220602554993 0.5096798069640319
Ni 0.928052463262132 4.107471588982534 10.179777269308964 1.122532584473828 0.40794793974016835 -0.36940093270490576
Ni 4.145228852951871 4.299485982299293 7.219193535783267 -0.36632512199305944 0.07660370469766808 1.22532117509698
Ni 5.260733490088952 3.1653126312500204 2.8717445393154626 -1.0600560632061615 -0.7443047975059118 0.4153966827087298
P 6.586473409233701 4.810809088082213 10.768646909972125 1.960900419804436 0.7016931334829721 -0.1847445607716689
Ni 1.8289088740234938 8.33983043655008 8.539094000636341 0.3366967576036653 -0.21635704547062737 -0.6683166149050556
P 8.618517669569123 5.4996202565665575 1.376992582751261 -0.6958616144028595 0.5546098347075029 0.2630184540829083
Ni 1.6750809105131337 2.551642803019948 0.997530680405609 1.1708248438213127 1.9797237231585258 1.2775335954344773
P 8.991658705510222 8.31465892723719 9.372960423139974 -0.23103547341840855 1.2916062714774594 -0.2662001942449996
P 1.2566628787620044 0.347288459104175 5.866329402766994 -0.03228997038195729 -0.9292167370933803 -0.37147478451479893
P 8.30566510404311 5.0065926770114295 7.401255013557034 -0.49957794264333966 0.20225865839603233 0.30474797261121067
Ni 8.83503183436685 5.164059220444704 11.63101087702588 -2.302205365604074 -0.09554913545191931 0.16891222172510265
Ni 2.4176964133960857 8.14280599857023 0.5949581977341737 -0.6506014570134795 -0.12983351055608605 -0.595191098563975
Ni 5.539653965410745 0.2059464225446833 0.5760721019958172 0.41174597333001994 -1.6039053169630506 -0.12764807286899305
Ni 0.9052786848215212 4.18796817250797 13.101785524867275 0.06992834956002152 -1.242438551503557 0.5437842048469086
Ni 0.45086763387906376 7.587717307099107 2.588964370367746 0.7948812249018826 -0.32515996060865937 -1.1059142591908566
Ni 5.270986821717888 9.306675759605765 11.445140085963583 -1.8511652226601216 -0.7781916800613436 -0.16412379919752382
Ni 1.1288647562386593 5.409290177557138 7.90213166308434 1.51108849284063 -0.8007070875550404 1.444306916439706
Ni 6.327611771948497 0.4495372197841719 2.731986684476256 0.729249445834686 -0.48202476425092466 -0.05781485412593914
Ni 1.9361630145205275 5.9939073445565425 4.024208751746471 0.40914350271016636 1.3506058899401192 -0.5505528910293099
Ni 4.824607702712965 1.8385557756652762 12.855928545414258 -0.16453080482795535 0.8111352248668999 1.2118537367381645
Ni 4.884392369754108 5.108435596084639 11.838867087545488 0.7405399311468408 -0.20348995969997213 1.016074772529205
Ni 6.172888157995573 5.902485691570249 7.720411652041801 -1.446470242639612 0.0014200202759781996 0.5073961531361778
Ni 2.2995265331303036 7.316689751302409 6.166834120785368 -1.0693917387847904 0.235777101868452 0.0816546368580142
Ni 7.835672534307673 2.4397704649284435 2.987006354550545 -0.517779810363347 -0.34499345039481877 0.62296184091934
Ni 8.789670871327829 2.1691720749688073 0.8032165179837252 -0.7677946530977358 -0.0020795082368480315 0.3481937024996713
Ni 5.3820008281352685 3.9521602044266784 0.3215739617104793 -1.2095040055590653 0.8865737056118732 0.5485793122427068
Ni 2.715649460622363 5.214327601533606 11.850378061670858 -3.2450852020068437 0.7182253268100405 -1.231363267526002
Ni 4.023401733378953 2.752305820922715 5.164451067513326 -0.5495380766115504 0.07850477837512286 0.14493719896674392
Ni 7.0494127317339474 3.7576641130086488 4.913910582621068 1.7685744471410834 0.8488839043705833 -1.2541722950007175
Ni 0.7719639153535091 2.951616033469526 3.6874507161269 0.44770002282712573 0.15257723201050497 0.06348799325131647
Ni 7.868569028687678 7.796907663590452 0.965884364768349 -0.45115198593146816 0.21322929847492308 0.892551777572179
Ni 7.9093771019769985 0.4965532702035137 13.162837164096963 -0.10633697009604268 -0.2390436884348657 -0.46411651651193614
Ni 7.1434093797426135 7.120710238838883 3.147793335405785 0.5022750298595285 0.22491419101201912 0.4508308551466236
Ni 0.608391088434211 6.559212048888161 10.183996156081125 2.3215554879959113 0.6540976430921961 0.5115196883862481
Ni 0.35854379966572875 5.3613355601115265 5.760271328798468 -1.106876623104126 -0.4179991533285834 -0.16130869834623188
P 6.386183579015336 7.895056024588086 12.851613562813363 0.05124414288695691 0.5370823673467009 -0.36044552328383084
Ni 3.1158279442983616 5.427464417787498 0.2817921545532635 0.05077723055286738 1.0723289670362435 0.563499423887649
P 3.4063452269129355 6.384243003056448 7.851499424003147 -0.2755572099798673 -0.6697435771595691 0.6372096090876058
Ni 4.1958610920330655 5.320340892980005 2.188942625519196 1.4568346165930717 -1.0290485590810536 -1.951078034397375
P 3.284639393337448 3.3780855895116204 13.140933845930219 -0.41345267160848154 -0.10524887923818647 0.13047885744956883
P 1.863344767601656 7.61559442712391 12.125661823008155 -0.4856996419993506 -0.41585073952701285 0.3087650641904037
P 4.619298498139397 7.247146226314162 1.1403533391029643 -0.7373160248929044 0.4932309173793893 0.6297120151589801
Ni 8.402003504771395 7.521317888351944 12.39698513004474 0.23639056708273481 0.40446435206694215 -2.497357494862312
