# total energy = -340865.41708861524 ev
CRYSTAL
PRIMVEC
9.33943898610675 0.00000000000000 0.00000000000000
0.00000000000000 9.33943898610675 0.00000000000000
0.00000000000000 0.00000000000000 13.66921300112690
PRIMCOORD
 96 1
Ni 6.734277224518662 3.4664355279735766 5.6574408388752335 -0.0057464155654739744 1.7154091759720134 0.9347392095735062
Ni 6.978335445121057 5.875441090653859 11.540875555390626 0.6148723790429862 -0.14959680922594235 -0.8223760878880418
Ni 8.465024706883327 7.530034787208333 9.229999478546459 -1.695619394939596 -0.4293695999490541 0.8004026689407441
Ni 4.796212874676117 8.075504723465905 1.1730101929477 -1.378458393376013 1.701227999375625 -1.3178598058573496
Ni 1.705839198484878 2.629612451890797 1.817253102390213 0.3904873210615597 -0.6151675416859018 0.5672882015061198
Ni 5.423981947622359 8.522686403423936 5.223525832052274 -0.01119895403961297 0.6002949954494435 0.14742217017212672
Ni 0.19117458106699767 0.02693774397992835 13.437834232252253 2.218024877000412 0.4506272237762498 0.11867338017420853
Ni 4.104197800676613 7.214613913015592 6.845609875304479 -0.11326300779191462 0.8620875475450509 -0.5998165131511283
Ni 2.1223501606846717 5.638770366320273 5.675210989508181 0.31128937327415424 0.8664977607976044 -1.6646584277817074
Ni 5.716483838447646 7.429392992274481 10.188634989945054 0.8867652527973889 -0.10793311093856896 1.4312673096469286
Ni 3.0092513088197257 7.869205854841754 4.619906680536986 -0.7556659881550019 -0.07104369411138732 0.9772009782821427
Ni 9.510537547980666 7.132342794643998 5.820160017120734 -0.6408726597614899 0.24461835430916584 1.077078823016403
Ni 9.342988011871416 4.879828872267318 4.851299687877522 -1.5229980997940225 -0.4864964268690331 0.7164345534582048
Ni 3.4485411628015963 4.281535068884108 1.5430901340344978 0.5630111713973208 -0.34172249295303087 -0.36457625762275275
Ni 0.5580436230169861 6.737844890226228 3.574293907442078 0.7280765085725074 1.1745755691129964 -1.8089106848662846
Ni 0.5540276642362181 0.0199714564111496 9.966263880702709 -0.11332368582652097 0.29021044111666794 0.16824244935158766
Ni 4.743725227355382 4.911003919732908 6.5801540659518105 -1.1864967460306148 -0.8560608817349966 -1.3477059426845048
Ni 6.61679642102266 5.936399609170308 4.879061170379458 -0.6596543112443672 -0.7470134546863263 0.7538585026326179
Ni 6.167886944844996 5.5315629457518165 8.25181652126845 0.39119386021028113 0.07700273990829964 1.4930509186126286
Ni 5.277343415490176 4.344660337254367 3.6052821661271666 -0.6227710650647726 0.9282811126529883 -0.7565974988303357
Ni 2.704440037359433 6.156147269990518 13.800574308209272 1.4063736317290425 0.427372109903051 -1.752353871517163
Ni 5.305539181906777 0.8567338261402662 0.1454664325345401 -0.5972788343309391 0.39194616499527335 -1.9823843007098247
Ni 8.458515117882872 9.071144960169521 7.484660056649068 1.7272185099021156 0.9401480392939034 0.5119449488491248
Ni 8.785628969734965 2.293458023062464 5.6855861723211 0.21343190140403243 -0.10370621734141493 0.8163900455079359
P 5.145209032163883 5.347585336397516 10.302814301745704 -0.4229544404513296 -1.0949757579014818 -0.11189158136568471
P 5.631112026319738 3.8719352915628455 0.7045784873759909 -0.5466635832772326 0.23717578198819156 0.37386822444763995
P 2.724538510141323 5.229198607316085 7.553894252085607 1.2885039784030519 -0.2781679081298371 2.8589541010314505
P 4.087937837334015 5.920335774047236 4.663812317337611 0.9816911528430126 0.2541399206463558 -1.0680750768558958
P 5.536821049922915 3.1483248953416245 7.668428462569208 -0.24199480064338966 0.26272483410188946 -1.3763691149471522
P 8.840759678299788 1.9362058014765615 7.940801060463823 0.8397683152225602 -0.35584607683860653 0.1069856594236351
P 3.9133276853218315 0.7696594342780929 5.109606156656521 0.060124990316354515 0.09443996154814059 1.136754127389849
P 1.3844877805112363 3.275630788691971 5.2877578239470004 1.2642901001610096 -0.5497108547439888 -0.1152548414109628
Ni 3.953356520983161 1.885978298399886 1.8788607119189016 -0.8694948957527155 2.3922446269813573 -1.667417735694399
Ni 1.5527844717424912 3.4266308388488476 10.228221136196597 -0.929778008913489 0.22857415636210957 1.2700018058338063
Ni 6.1492080667949125 7.889995446111497 12.792811479651151 1.1472128608293275 -0.19874781702929642 0.260374588702158
Ni 3.117495407119961 5.182790934800652 11.198270376027697 -1.2837325251563374 -0.3659507693727762 -0.6742918586518839
Ni 1.2037322776205754 7.239036546066076 8.135081938950549 0.7987432789604503 -0.38989648155509626 1.1664963916492876
Ni 6.563841801750673 1.3550685475823543 6.853593227783085 0.07749639171526652 -0.1486976944504407 0.2593314921496243
Ni 3.4274246911659763 2.616144980816687 6.582683186039792 -0.03260338785731804 0.20316137271595977 -0.03485104624091417
Ni 3.0738428691169153 9.073769342535558 9.76677533101562 -1.7912721458489151 -1.0104669394241244 0.37539957349050185
Ni 7.614024362360533 5.669674570054137 2.8243733775434112 0.4694623542048818 0.08801400341713873 -1.1784502215770545
Ni 7.819987011179784 0.19184608673289819 2.0853883967991655 0.4530294054598391 -0.9123479863624997 -0.562933781192166
Ni 3.7379516993095945 9.31091637825942 2.979027016246885 -0.5304167824010672 -0.7366151421711379 0.6123275011339455
Ni 7.530483080281534 5.59471623243915 0.20410316650936317 -0.4643250329783165 -0.29670119104733417 0.943100437054008
Ni 1.7166542688758764 7.952504311506102 12.366755610767765 0.13548350975301182 -0.18773501085856056 -0.3325084305539306
Ni 5.18819846999615 5.922297056242495 1.3178415436285373 0.5493758400020732 -1.5883136331723808 -0.48274801557019437
Ni 9.367644130897526 7.517996250305053 1.0696599606965862 0.4403019305908418 -0.9559202145264956 1.831085678301427
Ni 0.21728952046881983 -0.04304267263471061 4.713609272275232 -0.3256975782796842 -1.0752826503479287 -0.8103111863037076
Ni 0.7589340225017349 4.390096708111195 7.318770138854567 -0.2036084875557074 -1.3083423532852176 -0.032229292347350946
Ni 4.075385631284359 0.505219755891349 7.731334254122378 0.26881577749097574 -0.763522250974627 -0.9723143396138028
Ni 5.59262419809754 7.302834254046139 3.183162870792836 -1.5765788612339557 -0.8633826122073904 0.9057680191521368
Ni 2.9965870295017685 6.661616388903836 2.5896461904709356 1.0535043781305726 0.7899501061488524 -0.28640752243080997
Ni 1.6239416576742856 1.3528457610943945 12.035592178154412 0.02385546646135892 -0.5377289997917641 -0.7413328593617813
Ni 2.0419002329229605 4.6302323643230725 3.433638219949337 -0.3604894891478888 -0.8305915338192986 0.28121312271406407
Ni 5.242030996536492 0.3443124288167072 9.917096403955375 -1.0334070931600656 -0.23805458504871907 -0.02465456532388657
Ni 0.7597204032676433 5.420274190329417 12.268665350575553 -0.46377327423990455 0.243420991566955 -0.8002476314201186
P 1.9132774786700835 6.860266256966477 10.52566359026613 -0.5923397451581088 0.21596726623137646 -0.8225771481552543
P 8.32225270250751 4.3579596984260265 10.927223978474638 1.5166073657763302 0.1006687160666718 1.3237021235707396
P 7.445634276739028 9.036420925874415 5.703943773668723 0.8561228453211837 0.17096807581286685 -2.55962138589854
P 2.0491009404112677 8.285502009943972 6.543684490502924 0.03485027490996579 0.49955274583235904 -0.4472912174244813
P 7.854010587548011 3.7450309940905764 3.7182445490228537 -1.1285379101276434 -1.256140731580998 -0.06691475954467829
P 1.5080018616174153 8.905192468133551 2.543540181836011 -0.7729373736409398 -0.9907283233446161 1.0257472626219626
P 6.340246292052145 1.4309795079778949 11.363476646885564 0.8268222965848535 -0.2599174465600814 1.7193468204635227
P 5.637957835125094 0.7787205580201886 2.2367209309853346 1.6324332491994142 -1.3982314622378824 1.045427257549393
Ni 3.6047526199344473 3.5121334031231064 8.983775442034156 -0.43916498877292104 1.3107491629544976 -0.9330674782980382
Ni 5.8553612967500195 2.1820385154937143 4.025118902563778 -0.35084888073433124 -2.134202028846486 -0.9143038245372899
Ni 9.011083027799476 1.7846360455391566 3.415307702974887 0.2962432775743092 1.2540689366536337 -1.4875274176912383
Ni 6.043074681714336 3.3416699620380417 12.341549398783078 1.2570763560213898 -0.5844451729013805 -0.39707860112583226
Ni 3.1960120710034885 2.513037573980224 4.132736324505434 -0.23158980325998182 0.2523157229534235 -0.6543059024482603
Ni 0.28311949038073014 5.429043923573931 9.443416867595495 0.3724039811972877 0.5174375965325798 1.1554087663765584
Ni 7.137003174717495 7.1582877562555645 6.6953859325305825 -0.6582661726475889 0.6639411115451792 1.3666228341936657
Ni 1.8574649910564331 1.8255988251029902 8.423365205168224 -0.6945421242604878 -0.15007426308299318 0.9620556380002722
Ni 1.685815441215188 3.382268503479899 13.125191841169462 -0.5921553970614447 1.1281753845819023 0.8079853663840085
Ni 8.734318091731385 2.23573095044868 10.894499518074793 0.03860305708417868 -0.6464781788737253 0.19228277813024305
Ni 3.746301157797982 2.6686046098203473 12.512825371063322 0.4672450348385888 -0.2108569415880046 -0.44479853290961463
Ni 7.066312960736952 2.2930937849404875 1.6217842472595008 -0.30323950638648417 2.8683545684097442 0.18754243523178024
Ni 4.093074528797788 8.456208276443688 11.984072096716671 -0.6859595247977993 0.3789646651339409 0.4177358723648676
Ni 7.568008946284153 0.8436464702344748 13.42830707050281 -1.4142103541646418 0.9033946338239539 -2.505553400409543
Ni 1.4471647558082925 0.9999737364112362 6.338400818900796 0.9497243701284289 0.5972163565241199 -0.3671090513469355
Ni 5.6095285827328665 2.655874954429215 9.687330326893003 0.7709401407052529 0.9974121631226951 1.1339451971861438
Ni 9.221117672033644 4.040829706891704 1.4623049204117877 -0.6647661785496358 0.9948644570001768 0.9300130077424307
Ni 8.525236070277773 7.307074359363507 12.633865434771767 0.4099104627831779 0.9520031388602765 -1.2522269983488885
Ni 4.935221085124841 5.369392926520988 12.462085132784171 -0.07843150193502621 0.733090416847331 2.3727854898154814
Ni 7.939373060236894 3.7764768852878925 8.946116955997383 -0.48396800402022455 -0.7788753363919295 -1.450472936041102
Ni 7.385488289417759 0.9657913895795829 9.369056254078112 1.1157412725836076 -0.5444372650498753 -0.25503440743616723
Ni 8.539852292351963 3.425491427287793 12.986353608510996 -0.28031889303456886 -0.03890696147784267 -0.28295041712014496
Ni 7.68774055458519 7.942604506139558 3.6840304480985155 1.0908658494981665 -0.12306945235937514 1.6645185597697332
Ni 3.732030494967718 6.598491120533578 9.020792308609911 -0.6536865236967065 -0.6444758037317159 1.1035601571363833
P 1.3568990776312624 5.66957183622486 1.5370344417706605 -1.4597412487169055 -0.6464370412231447 0.9914168647712087
P 8.192976187522882 5.370270833789343 7.218232945637795 -0.010727670830149265 0.12337052853956174 0.14396943573683593
P 3.0960520551184647 0.7018382959660436 13.540900545557006 0.1704926788383451 -0.13548119576016665 -0.16647173060441006
P 3.028901488528414 1.796132894978983 10.39516360876922 0.5062774661507022 0.1850831750580103 -0.399681328856002
P 6.945806178996836 7.583839295431599 1.3946967213095096 0.7366562798217184 -1.0720014084934957 -0.4948185735814833
P 5.8144732326983855 8.178939010668243 8.272169960735724 -0.6827968107991015 0.4742849724045058 -1.654640381424073
P 9.218465271350532 1.8739771192527073 0.9388387024972145 -0.26566180524302635 -0.16354478676560222 -0.24295870721855575
P 8.005720435070792 8.845513452763534 11.138030060372275 0.4726073275917667 -0.41261603463979907 0.04921374272048943
