# total energy = -340855.9764681055 ev
CRYSTAL
PRIMVEC
9.39005374854670 0.00000000000000 0.00000000000000

0.00000000000000 9.39005374854670 0.00000000000000

0.00000000000000 0.00000000000000 13.74329282217867

PRIMCOORD
 96 1
Ni 3.9208732905941974 5.847008069481664 1.465048395745204 -1.5362773334014317 -0.06612851619795708 -0.516278286117156
Ni 5.860445236421763 8.112621462195424 9.788605208738893 -0.7872028824210184 0.9904138774279911 0.4041424499511491
Ni 3.0075309308718468 5.120236688049209 10.723932501345141 -1.604274013156379 1.317852092547866 -0.4846861131331717
Ni 4.3962072023166225 1.056953842029748 0.7078851662915575 -0.6975354025608568 -0.31517482437148947 0.25570058026525644
Ni 1.925599545822766 2.278787638148393 0.2910099732988915 0.6838926149664416 -0.6784907272245799 1.7958854762512104
Ni 1.4730552945920408 3.5038516127627717 9.167256899950182 -0.5840445950288522 1.5982465760153766 2.2932011052229346
Ni 1.1402342288863132 2.5878330877169207 7.039300756450375 2.6002255325731474 -0.9877882668796858 -0.922423625430947
Ni 1.2854138501727441 2.4308783390070903 3.014165003857997 1.039150937622378 -0.04554169318554092 0.20020948917648745
Ni 1.742756418878236 7.12638411508244 1.384568122921859 -0.11569244316901364 1.9365531013083226 -1.2670951737099725
Ni 6.653378936694149 1.396770497791642 4.170017709174407 0.2971668178298431 -0.22074823255978757 0.23891359061490466
Ni 8.191103531577221 2.964637165265714 13.195966507006153 0.13350864541482813 -1.118883674867331 0.4828048369500588
Ni 1.9755264617001318 0.011750713283606459 12.917114775324341 0.08490862501893763 0.3201949032939002 0.39839911970946873
Ni 8.650709103240482 5.676578593616667 3.431260863114179 -0.31430347751012966 0.8800490171194779 -1.100528569398911
Ni 7.13689158524734 3.9481326166788304 9.779974810321951 -0.16716567134764115 0.49584675773568154 0.49438225737501307
Ni 3.7606038529047336 0.982058773186816 3.6856214565617713 2.2171013367448786 1.2762004784453507 -2.62886247958355
Ni 8.450813638655683 3.3211962868935747 3.2731023095114624 1.0074852310879812 -1.360043124093619 -1.6488266029557732
Ni 3.431867460587506 7.261056266203973 7.621123511919059 1.313133346915958 -0.6240810421254478 1.5821347580551783
Ni 2.4760726677860565 9.606494505988165 8.396670588637086 -0.5394572953367807 -0.8512158949378695 -1.0234674654488503
Ni 4.217279727792793 9.374362986822401 5.607634940851048 2.1793472579245563 -0.2909797151825247 0.9843962104790015
Ni 2.0483181584993306 1.2138146902019118 10.530041976144126 4.11176216869479 -1.000603416366483 0.8342407005361115
Ni 7.9586339704758595 7.446763359547335 10.531980083241566 -1.2833561156535251 -0.2190538755765002 0.8705264223410234
Ni 8.977830406309842 1.4838914166387738 4.746425220635853 0.19381309873184038 1.8337192592695324 -1.2073023699220562
Ni 8.394323075195418 8.46183756177775 4.2983525130088145 1.1520390785733772 1.9786358894109857 0.95222605350436
Ni 1.4864924615321404 5.812321210867597 12.80095605420917 0.8481411126672876 -1.6498349896156295 0.10927754078160534
P 0.5016082211669345 8.005800210545825 7.343178859431107 0.22452775420687782 -0.3049572604085393 0.09337475350841984
P 2.987689747262881 2.3146200833219925 8.609210699624075 -0.47010795820868073 -1.556706547790061 -1.086009806957446
P 7.662274483546098 2.0718120730235303 6.447198709123323 0.19675084120392566 -0.5991559967489939 -0.12678315376553648
P 2.27921958062166 4.3984420351130895 0.9514509539289898 -1.3010386205349527 -0.8046264772141046 -0.6687979254168481
P 7.292982449010638 6.776191449908381 12.870387989770656 2.029986218858504 2.1782295993803453 -0.6939114326550243
P 1.8680666863944004 5.694588716741133 6.469655022706306 0.5382349928939052 -0.394336776714637 -0.023587300401636795
P 5.611054798432868 6.5340125732122845 2.499533717122073 0.8116916115910021 0.2166712342769365 -0.48996227393044645
P 4.337463025952357 7.2260970960306725 5.137971682598313 1.5735621858948188 -0.132138761650495 -0.26775468321631307
Ni 6.22005612552379 4.014247985249929 2.7882121400707005 0.23417376193707412 1.5956970701206454 0.8337786732980285
Ni 2.4926085524691564 8.061079457070191 5.761916341253508 -3.767443889990125 -0.9211820397143619 -0.1743804439285255
Ni 1.4458053585611745 5.27950138998564 2.6303700312799205 -0.39393954127621833 -1.9069679314520387 0.912594298045351
Ni 1.9676763767511987 9.106352072214206 3.6538192224648256 -2.599642149265852 -2.5005006684769837 -2.8983631989566923
Ni 8.485312696194418 1.0014116739999157 2.6172455531302505 -0.4340266391050912 -0.9236541554039382 -1.5361251240942837
Ni 8.631647294094147 9.302604195937535 0.3168598523131478 0.32003498067726815 0.401690903086863 0.02022609723888775
Ni 2.9699237655363477 5.743294925628832 4.393180787987626 -0.1733969969693336 -0.8266446333564085 0.5538873547191816
Ni 8.868182748476476 3.485137235605805 8.010566601837786 -0.19023849400670462 0.5673280536051196 1.7474667186281903
Ni 6.663172762772782 1.3592008926712091 12.12312375499783 0.27033915611403764 0.8654544071347547 -0.07582851709454037
Ni 9.656261790951497 1.4845956706712737 9.511334762111389 -3.0913890259005474 -0.1599706962610987 -2.0692091689148686
Ni 0.39477288443668634 8.325991653935386 9.604912281928481 2.427160722132252 0.9658971232335493 -0.8341190873565829
Ni 9.542454339299498 0.9173866558796538 11.86086049230021 -1.9484056297715349 -0.12051968935432791 0.29934917019314256
Ni 7.928923840358127 8.88344158584731 8.08112534385127 -0.2989992430528915 -0.45455252697258486 0.7058953444897779
Ni 1.4647826572236073 5.889685863851162 8.857799227021296 -0.34402980092996877 0.977978994098748 -0.298058476406177
Ni 0.18117263637944014 0.5630961712418201 6.501058179518168 0.5501062904101945 -1.6613195932164613 2.5533244971462348
Ni 6.5985879729656505 0.1077874881821881 6.134030086945852 0.5284105506043157 0.5657771641782321 0.38849240211871805
Ni 6.075026745097626 5.9867226794758945 11.08965537644389 -0.6335177620583154 0.2107006185157984 1.1701962090983784
Ni 1.5019766601933735 2.8779951391606824 11.943347419613492 1.1801867446521868 1.2169118679873623 0.18144994918079718
Ni 5.562170178523601 3.736631045638434 12.601087820780299 1.4717153903596458 1.2765398640626402 -2.2045024170339453
Ni 3.818061591902966 8.672278056742513 11.351863237824286 -0.6963568088717232 -0.3017117568880482 -0.19640965581442302
Ni 9.021400255787174 5.418765277399071 6.793433466634733 -0.6859762369683476 -0.03771576938321892 1.3787119041477158
Ni 4.976700326171946 2.536647904634822 8.756896526260828 2.0798504506787987 1.9283132298970338 0.3108427726550388
Ni 4.216951075910959 2.1411576200903624 6.541367802327714 -0.9754433721610878 0.5764431285325105 0.11686255221771487
Ni 2.2066438550590943 1.1429010041560466 5.142025368809382 -2.132695105283656 2.7152086083799625 3.8618913077374333
P 0.829127662516002 7.271807877766805 3.2983352619932487 -0.3280275119644415 0.617193313866679 0.2311419170892858
P 8.059173276155558 5.761201758161865 8.631695183368358 -1.061208945863682 -0.5299593831486744 1.1972521847749058
P 3.1046710370880115 3.1121924701551116 4.683452703060458 0.12638411855490495 0.08481040887817652 -0.23936816165382
P 3.0963702295582785 7.316448193373538 9.811845591811393 0.09842851388224338 0.45409795593366953 -0.270743847751624
P 5.659854907858233 8.259434952837253 7.696202625815817 -0.3489830311701861 -0.3188952106458702 -0.409970626597152
P 0.437517348187929 6.518058871862719 10.857270325826429 1.059825435252594 -1.2825475037093008 0.3765863947097514
P 7.6371466996664985 4.464604353953021 4.77436532561857 -0.6906260770355331 -0.8119278959715241 2.9256958253333742
P 9.189134786221137 3.20509766212251 10.93612893636427 -1.8540227467135748 0.47007581941916465 -1.0787610958148326
Ni 5.835289282380864 2.7976913993481505 0.8723829451921513 1.9851451512844136 0.44965971765665785 -1.469281584107173
Ni 4.92260422642218 5.498355373125337 6.530428389689548 0.5433833698640642 0.6205347195350861 -1.9714709962314303
Ni 6.269673169626856 8.280102461177687 1.3409945174230196 -0.6648078304208486 -0.3522717292237869 0.019352693494998928
Ni 5.270665349391207 0.9876740253392825 10.344370565005077 -0.053429837684366044 -0.3562425409460768 0.5196508021338148
Ni 5.775042697413932 5.844632385878697 13.823278438942078 -0.0018108279564936556 -0.7720223180258382 1.0017177324765847
Ni 5.654173925329401 3.3826823589577066 5.11695768127389 -0.3305093978460308 0.8177103069812561 -0.19330453452653804
Ni 3.2377750492305095 4.209579883704126 12.796641324503389 0.5700400532196441 -1.040006343644138 1.2088347474061827
Ni 0.12300688732720116 6.903821060704911 5.30844341370526 1.7778836403571507 0.5583549035722319 0.6787478375407084
Ni 8.341259881359987 7.768823423636463 2.182214691179735 0.7470587061019649 0.13449337792560062 -0.623325652016662
Ni 3.8238364749694655 7.902462668843661 2.5962315518058277 0.5762001592837689 0.37174089369199204 2.4838365775577413
Ni 0.4670406162357051 3.98850045782173 5.242529931290145 0.9904380457977072 -0.1938030714295114 -1.3617331102015322
Ni 6.841226962296313 3.95816119410163 7.1908205420400595 -1.6377839719883667 0.6907145229842814 -0.6943719172312106
Ni 3.9794953962594963 3.6668441660445685 2.137879552320419 -1.4869990559915938 -1.360101231025064 1.4712258523177373
Ni 6.318107066955322 8.33201067839982 3.871114456679255 -2.619555343250011 0.34429205345242 -0.37306526893037045
Ni 0.3848720117451132 7.673082435431532 12.734755236148796 -1.591841443819981 1.3935332854312645 -0.23815871472675113
Ni 5.693508860557967 8.634304679310114 12.827274496906382 0.7625539735240867 -0.9274334199407125 -0.8403606973909205
Ni 8.10646158692449 4.928613860832846 12.024996754130788 0.6947311003428422 0.5836476167007496 -0.6619582767871954
Ni 6.3236753688389555 6.07214399859126 4.454407694567798 -1.062898160640647 -1.2514515536354445 -1.242790278416021
Ni 3.5388013928823043 4.52024042252052 7.93448369119337 -1.2585513979050196 -0.5501368865378138 1.2652455220957435
Ni 7.375042128877537 1.854479278594034 8.601336200535348 -1.0380556476756702 -1.2765606899982467 0.6318198055306021
Ni 6.877453789728112 7.089284012650342 6.260537586317266 1.061589212021236 0.6439340722956328 1.99805131782312
Ni 5.791587972150798 5.981802291302161 8.6958489697076 0.5337489320980937 0.050734293130073924 -0.7851501136570478
Ni 9.05853791843434 5.930804909295395 0.795553525273286 -0.8304074428329504 -0.5012697285234657 -0.8254249020166946
Ni 3.6596138246442353 8.29707967838782 0.38720731811688314 0.8543197306741739 -2.130995863204362 -2.167145573652042
P 2.3616736427467586 0.18372391398784343 1.4688692086228607 -0.6883287963609241 0.8822694218095645 -0.07303964149549357
P 4.128891151687161 2.230926534099694 12.587137956904538 -0.7512123232590223 -1.533674862781578 -0.431930675808011
P 5.316338570912273 1.8874383673150332 2.676272370112893 0.314478055414781 0.8476405188817854 0.024903962330531302
P 4.837614849780081 4.523479991070021 10.059788083509469 1.3496813212433205 -1.4936407296778276 -1.1705870167788937
P 6.722470952309282 0.8340950009585687 0.44933003582639536 0.5613376403496397 -0.09883706217457172 0.13204028839941778
P 7.791237481977496 0.46720024714973846 10.478587298518924 -0.3910182538643653 -1.0751929188476 -1.1333404737226096
P 7.841990722586329 4.126318276955094 1.2546510950277678 0.20053421950575787 0.08741519349087526 0.1100928375940491
P 3.879660344612298 6.22681696423579 12.882014754344542 -0.6501335162381254 1.9027934883593747 -0.6024241259773044
