# total energy = -381162.46420787886 ev
CRYSTAL
PRIMVEC
9.35508052016902 0.00000000000000 0.00000000000000
0.00000000000000 9.35508052016902 0.00000000000000
0.00000000000000 0.00000000000000 13.69210596730600
PRIMCOORD
 96 1
Ni 5.573672733386985 4.82047649660185 10.983642785083592 0.212525330429363 -2.3627898120553503 0.1515413345468229
Ni 3.2968238996106143 5.263748273325693 2.391600121530418 -0.1477975512336745 -0.31653545216444195 -0.04004261774418265
Ni -0.038182760836130425 9.369487268851664 4.405202604633701 -0.5708013568657008 -2.6807733095202284 0.3180912266873361
Ni 1.5381997470831577 3.361589121531117 0.526602155787382 -0.8331901477844103 -1.3106208649067492 0.4138177682573841
Ni 2.456559929124176 2.33974303960788 9.664518440844569 1.4278294876099733 0.6503803421416089 -0.018579819884716388
Ni 1.7258252404874042 7.32155725356362 12.345377649733347 2.055166317668557 -0.27776398782319905 -1.643835320388769
Ni 8.698466058695113 5.631711652467557 9.872473459563771 0.06035073317391542 0.30605717834093743 -0.38812756258013154
Ni 9.535259294336468 7.801641271838407 10.652950981942519 -0.8983164479700981 0.17761026371973282 0.5475776104510699
Ni 2.109944843557725 3.0447325468601045 7.240755552744356 1.709833995877081 -0.7739586158166025 1.5774221830708575
Ni 0.21537172649597233 8.911855443644797 12.97110717342364 0.5115603118161963 0.2093317631927298 -1.3343472619894117
Ni 1.0932159906378853 2.97073386054042 11.695098523939377 2.3019865647250484 2.726788599908078 1.0789189615489354
Ni 0.23525688548979293 3.3727216672606266 6.245983073628853 0.5350787066531107 3.1969798618591843 -0.19862671807039986
Ni 3.598553309202116 2.6762452832133223 3.082996696896106 0.49776042981862656 0.5909526350025951 -1.1712300496795311
Ni 4.927994436155848 8.295140475471275 6.637056307993918 0.19579181972476603 -0.0678293009391477 -0.3778423786040396
Ni 8.938180640016931 2.1610048726263518 4.544711177277307 -1.0106055218845178 -0.20939732632334263 0.49425113111378755
Ni 4.077299550973272 6.935005329577608 0.3188772720471252 1.1032110013270806 0.529550834856346 -0.906565832463084
Ni 7.208173678570628 7.437550896000759 0.027227026127030256 -0.11728652712901091 0.18282548937208512 -0.5908168807556792
Ni 0.9985987070174951 3.0057125063241497 2.875903281085884 -0.5313979153674139 0.9948896538111577 -1.7183677443797052
Ni 1.236489047652546 1.1723693262827464 6.057278003941257 1.3433826327188025 -1.1064156243073076 0.3887276580579757
Ni 3.9316035281233654 1.3170737106054866 5.084755648156062 -0.9571034362013193 -1.4979200737794718 0.6945747772706361
Ni 3.153915690733307 4.963487611364051 6.68224041103506 -0.5746621253726877 1.1814900368446426 -0.2717177816291192
Ni 7.854572316996027 3.4176541186378 2.9530041120811195 0.6898267210626894 0.7166137593485464 0.45806748210437886
Ni 8.004693292896402 7.5201936766515916 6.286990133251318 0.2247884640674322 -1.2129127741302983 -2.0090440693891978
Ni 4.577786999698531 3.3305021892124933 7.396886232322578 -1.2075162857050752 0.3433988522141892 -0.5266460025047253
P 0.4208027445111233 4.931839374218729 1.7184553081128597 0.8250796028621339 -0.630117992348147 -0.9367464698115223
Ni 5.818064854931288 6.949571189830421 10.766444946884763 -0.23180320482236852 1.590867767052802 0.6213183917786461
P 7.486318930360369 9.061452535040253 7.4298984401967765 -0.3324598367041823 2.3779932592686657 1.8156220354481896
Ni 1.818655703742806 0.9089751653386277 11.688526579926787 1.867685588912648 -2.0010746780304762 0.5291240317315726
P 7.982231744748038 6.254507422930306 11.849682808720047 -1.0137448388444477 0.9167219470604794 0.440008567720139
P 3.8354707214708905 5.846233002151082 11.697877918339577 -0.6031391497664581 1.2763148925360277 0.7433419193720102
P 5.833584933389487 7.238484139212319 4.760293393083291 0.19437899853763943 -0.3997682321428534 0.8020242637045671
Ni 7.748233117578094 0.2956551558585851 0.06829302275629932 -1.3533374299386691 2.016972065987023 1.4287144613180878
Ni 4.265112145986418 3.7973674788185425 0.8184179866313529 -0.14790939422119043 0.2835548834733633 0.36674138359487163
Ni 6.6654480416363455 1.7961099598704369 12.194271583862118 -0.28078246293454867 0.1419799161106329 -0.787927933512501
Ni 6.920832382703484 9.065924263492949 11.29036032356835 0.53854018283915 -1.0462615805252304 -0.1261707169925182
Ni 6.0591639881589625 1.905283748663195 1.1230212769355483 -0.012796380433719898 -0.17948948302031667 1.0553620001646018
Ni 8.183066611740578 1.0867329198895237 2.635456196965224 -0.770876377346853 0.01799669368773675 -1.0665761237128664
Ni 4.306938710655863 8.462521574792614 9.213308878363172 0.6264960793248436 0.7965501279638734 0.08235474824883236
Ni 6.929401636391073 0.2173755847272841 5.41466630207998 0.02025617914587479 -0.18417300453891505 -1.5064630782534765
Ni 0.4124870135035927 6.683035592872883 0.23533453265748613 -3.0496299396858895 -0.6237928214610677 -0.5267424188732734
Ni 8.143747208630383 6.26838100723019 1.7844918854658331 0.21638969848077572 -0.6526567968806115 0.6522037685035929
Ni 0.16254358722324694 4.87320172998968 12.381922335983564 -0.3493291016556952 1.0169895710339907 0.5149012032639713
Ni 5.78427430436407 6.323978250314626 2.2960295552126855 -1.1747254644272995 1.1226379997034408 -0.2951122492936595
Ni 3.9114526848449076 4.521011016478029 9.348080038269446 -1.6521266138632837 -1.977074715571453 1.1627371817171717
Ni 9.042695598748097 1.6022914032116229 11.156204727955354 -3.2159108944357326 -3.0894450148002988 1.608458483551372
Ni 8.589750668844157 1.7646862446557947 7.212781991197818 -0.9967585886990963 -2.6571165893332367 0.6855106101858388
Ni 5.915002198502029 5.592251923150688 13.209582206586502 -0.45356908001339297 0.05742018979068176 -0.8372961995329837
Ni 1.9764852659298342 5.0279347605494245 10.949303091294254 0.6055161346390667 0.2480924289006953 -0.05770789623442965
Ni 7.438402208321251 5.735786922417808 4.255068531620702 -0.4507226117035334 -0.9282721137919239 0.8944397386235112
Ni 6.003435773948298 3.3796912021921264 9.147394852564027 0.4119753157320066 2.106981502567636 0.6311975985655711
Ni 8.476030310955146 3.125008492158361 13.609487572399658 -0.36588777734532474 -1.0644922446006442 0.3067202658462331
Ni 2.6663943835047728 8.231488508123723 5.236819674264857 -0.8181893035002037 1.636785869741155 1.9475605081624199
Ni 3.2308425172322663 1.9254813673438775 13.524993421328766 -0.17269302892377356 -1.0653252820249008 -0.07164276114796694
Ni 4.2389834063036265 6.329207740283363 8.386565805643844 1.5831521435760993 1.4446234192388603 -2.004217337424516
Ni 5.411885972171737 1.360135145893667 9.269212968086201 -2.048783296960349 -2.0341886869756256 0.7909541219333346
Ni 8.462877067849522 5.338738598172544 6.845094586929081 -0.42893816883859026 0.2657553933980972 1.0040144989305613
P 2.1739148836404056 8.8412245862853 7.428898382097209 -0.5617173922865617 -0.8336951124452869 -0.7824699957217234
Ni 3.6345984341565716 0.9813105183551971 7.722634810956532 -0.253982312022569 0.42885203688268725 -0.3798668652332361
P 5.939400248302503 9.028232644380179 1.5784808524630942 0.3491210994099471 -0.3766180192786353 0.055158390339698556
Ni 2.3935347521664374 5.241436406464448 13.58266468574785 1.0743488256797498 0.9168520448804404 -1.205698001549414
P 0.1184418669895863 4.663030492713064 4.364537005447477 0.3122381103406687 -0.6755460427739591 1.2499939952533117
P 0.5361462088573367 1.3825873389615866 0.8628190694392525 -0.5973688229415841 -0.9903246601482945 0.13522485677498647
P 4.457508730417597 1.2397633258082843 11.24510792843996 -0.13603038339541734 -1.1639594841600471 0.30318165656535523
Ni 1.4852967671668726 9.433756671508583 9.386362898466338 -0.10345630611413796 -0.09806238879207628 -0.16092817507836155
Ni 7.4767673932260585 7.86192541022577 3.2167818313234817 -1.506809662959618 2.809744472076019 0.5133384867625418
Ni 6.754171624576408 4.443803537565722 1.3223780412177826 0.0164889987939587 -0.6424348620422871 -0.4280714499629208
Ni 6.0999240736576805 1.7950060603779308 6.964161373292391 0.6061851356816335 -2.1352785497401165 0.6446002451247221
Ni 7.627290637585568 1.1580186328801678 9.471061925798974 0.21001850484710924 -0.6765582860885574 -1.5134778190084128
Ni 3.429142157424219 6.2395767145401395 4.554774437311957 1.1783962284106675 -0.8425412499820071 -0.10565717042019868
Ni 2.205815707957741 9.039683262844816 0.4698009138496794 -0.05601636746461966 1.9625664946529486 -1.2324055927475872
Ni 5.47066394260746 5.539217972108173 6.209945432738753 0.43638125538019684 0.15661643507688514 -0.09222032818900246
Ni 5.92882900739969 2.0025110997277307 3.7065895202127663 1.5446035938789398 -2.2813058964472455 -1.8523769835800357
Ni 7.184065636263949 7.542065854731924 9.018031864662987 0.21172597445651925 1.45734343790869 -0.44411821901313836
Ni 2.165963065262184 3.2602642452316855 4.789429791129139 0.25077486082886485 0.7939905947668132 1.2606288492593385
Ni 0.15803163192463968 7.517331022035433 8.245659583981759 1.2053614441456018 -0.13674129341951288 -0.5667852937277722
Ni 1.383476071603858 4.8727526861283215 8.665679308259637 -0.1784448438058862 0.08253781079391591 -0.8031727754867135
Ni 7.215545481961261 3.474121384203618 5.843599547005824 -0.2309061469293959 0.7403797514198925 -0.7565676740336648
Ni 2.121096099448125 7.092311007259719 1.395951071377221 0.8127375363570132 -1.109252065314838 3.2066752347700773
Ni 0.08935317985400772 8.606514973001538 1.8774065444452395 0.6655166835624151 -0.2503370019604979 0.017670677806885696
Ni 5.070752963746036 9.47351576339969 13.165219479608425 0.08984977107429687 -0.3330239367377684 0.35932015143013596
Ni 2.516881487833319 7.101086072717097 9.767619846920498 -1.2839374420782919 -0.3751452913878507 0.2632845632601014
Ni 5.698254339672603 4.307312913873662 3.468032162341989 -1.6320329284372022 0.03747614256858707 0.7499697091011729
Ni 7.700718663998109 3.7248188299678278 11.098149905238026 0.2973815049438104 -0.17836925337294443 0.2740202045100506
Ni 1.286323561182882 6.298438880699868 5.9739887872316775 -0.4472701343785588 -0.3882951985062474 0.1967341290333773
Ni 3.873751710651693 0.6146409468388719 1.721056955984605 0.5715027538080997 -0.04683521518598386 0.9536401602430673
Ni 3.703564087196864 8.330306222863904 11.54911342910372 0.5798835216726271 0.33833866408246244 0.06976945538465404
Ni 3.7274569626533083 3.2112062033782816 11.678887105036296 0.013018009526222741 0.710464451917699 -0.29449544164526703
Ni 1.8826725192277112 0.9863154863932541 3.7166677483761283 1.0694693861002613 -0.5610370783900854 -0.7170819572342166
P 2.510398417084957 8.260526677824899 3.1491436641983297 -0.656394923766805 0.2853531130243666 -1.2240279102068534
Ni 0.07149807331674482 6.806363618378875 3.9096714775281862 1.7777910806433448 0.4449787672412207 -0.19523080501497345
P 5.136781121526608 2.9442028523984956 5.256864805134287 -0.4414339873127559 2.8395666976437743 1.7543071385887916
Ni 4.608303272110011 8.604990094889008 3.640101092474301 1.063894463115645 0.12397165245867035 -0.14360022532287525
P 5.966137068214215 3.3838635680705815 13.293747994333776 0.12321497679830394 1.2879835871232077 -0.8975222342035767
P 0.4280744485409957 2.1644194769887646 9.344670111447256 -0.7487234953988976 0.4816653240289769 -2.0693613782220166
P 6.703130305668671 5.519862310667539 8.654341886268384 -0.1678344152798916 -1.0649375596681787 -0.8071795826532615
Ni 8.136590572089984 3.57936603920949 8.593521701771524 1.5566836649719256 0.4866766612006393 -0.12910768813365506
