# total energy = -381166.58743064257 ev
CRYSTAL
PRIMVEC
9.23304731689210 0.00000000000000 0.00000000000000

0.00000000000000 9.23304731689210 0.00000000000000

0.00000000000000 0.00000000000000 13.51349803899661

PRIMCOORD
 96 1
Ni 0.04015729313565199 4.762055002467097 8.888449775776461 -1.4307366339544394 -1.5714045161218677 0.22707880276350567
Ni 4.537470357068619 4.765185005541841 7.1744111568950855 0.040200740588601735 3.704026087855111 3.2798282619149837
Ni 7.498767189389083 1.299809949428831 7.108194510726516 -0.8303020276033377 0.6179445902104067 -1.9414189140410565
Ni 7.817547384547273 2.618824637487363 11.963148743095822 0.4554236167236285 -5.226578358360967 -2.321722352591079
Ni 0.5601514440675623 5.62132856043492 3.4644554445901643 -2.2911370236050543 -0.6090025505257706 0.8131959640506705
Ni 5.468133837673386 2.5645804839058775 7.817720965838734 -0.38660238418485676 -1.4286892645071072 1.1176968536480816
Ni 0.3320277715937172 1.0097260656461733 3.458482586215379 -1.8088528350451558 -0.5951628164292008 2.205713406622911
Ni 7.870637407201493 4.492320755193986 10.664433833090781 -0.8326227053167145 1.3491578446396828 -0.3475465558339757
Ni 1.2631178189892018 7.772139257344934 4.200428117422118 0.26119631327250503 1.600710978395469 -1.2730699032361688
Ni 2.847785747362032 6.500000751028224 5.322236915591138 2.0253062968843314 -2.3508460094299126 -0.8325049487919275
Ni 2.281966135484483 4.427283169180712 9.591989522942766 -0.3142443421374201 -2.761800082986256 1.5164065626194336
Ni 3.8598662400998274 6.38472615401293 0.7086345427316266 -1.2958758453870909 0.9214072683512906 1.345110928263819
Ni 5.034199075116337 5.319537172526079 2.2974167170339737 -1.577617072690483 0.0260262488604326 1.3588825281266146
Ni 7.143442592549952 5.981657468974674 2.2317134283018527 1.5371903321340041 0.5508447112381158 0.545284443541519
Ni 7.768187513049976 7.010652904582474 10.060407870997029 -0.964546522742926 0.10171026995730871 -0.019405915330437545
Ni 7.226152231321517 6.908692361944118 12.533566412587597 -0.2883301933748196 1.3497605112206883 0.6556883846180837
Ni 5.9384283409630125 1.44101094359422 10.730730806771886 -0.9271608830056162 -0.41499456217430464 0.46054242600743267
Ni 8.780951251296711 0.24883339783269995 8.56994934195504 1.0006707792693088 0.2866168102281386 0.4255720805798348
Ni 2.9693480496690685 1.6512382002575132 0.2821600824884229 0.2659801078143936 0.856523166083396 0.894123492934673
Ni 8.50172543127777 7.132769189734599 7.85509911170153 -0.40068585886111635 -0.03547016788215182 -1.0950243517512304
Ni 5.5938325452237425 4.799624272411449 4.614738037691941 -0.8244064880545091 -0.2680752997805254 -0.9874869335891833
Ni 7.161862522149111 0.3855803699235852 13.051525599868551 -0.5134744981197737 -0.8794046986672597 -0.20755230269480385
Ni 1.7303284844411737 6.239554949457747 13.306917231282348 -0.17531478281733676 -0.16261713274501027 0.16013704663563388
Ni 3.4828255157332664 3.2248264717285937 2.3815242391846434 1.5764770455487689 0.1191624039954851 -1.0964220034297052
P 2.9177999459336754 3.9799697209148004 0.1993008683486836 0.5841903765780971 0.5922281592809091 0.5575221232582914
Ni 2.3094436846008235 6.693765484145 10.757203800329133 -1.3696351386574284 1.6169269260336991 0.7380786140905418
P 8.546182554596042 4.836778055221983 6.888208846247007 1.0832124467179667 -0.49246858529206805 -0.24064291460118556
Ni 4.62931147973671 8.939648870319449 0.6589496679652111 1.1665095042754106 0.1770021978220887 0.8802202525900196
P 2.037881293938925 1.1058974875533656 4.888143344618498 -0.3311426605546555 -0.773223794533107 -1.0151414620816581
P 4.065126117252169 7.091765226150705 3.2571449076062566 -1.468792046065264 -0.07268611481081674 0.2297815464066494
P 5.730186189494615 1.562425517142567 0.6444491669950455 0.33825664589161747 1.3242019460252936 0.2956663220249166
Ni 1.9943382423150462 4.387913454989826 6.530316538920896 -0.03410079833845095 -0.1824696486945632 0.8448477866279966
Ni 0.8386026114081242 1.6818826846382706 12.54901237761338 -0.4244240830183207 -0.28168312037194715 -0.1826066884930597
Ni 3.5806219539860487 1.3610804520955102 9.608651480313515 -1.1920071343258825 4.697593937531051 -0.5873242942213884
Ni 8.21214013205569 2.2544331880836332 0.82595702966426 -0.0897394707486777 -0.9905383188209973 0.32402661833516455
Ni 2.5379893073416766 4.416378940179906 4.079265606068287 -0.04067330934964608 -0.48343861387931575 1.9343275544119138
Ni 3.8963090782591676 0.8068852469173805 11.807175796366174 1.1940676163993371 -0.9260601937422698 0.5986199217398658
Ni 6.9415620107526435 3.380329456344658 6.073101570603787 -0.14796904381453227 -1.6121948106653523 0.08056885999300317
Ni 2.3758292955371436 8.400697426428643 6.243857549554594 -1.3374688383375288 0.6036471997511281 1.653649221155397
Ni 4.126175026780813 0.17827444946338705 7.497924212159807 0.5190103403363384 0.811973661607795 0.3471351793281699
Ni 8.11655039213584 7.470089344108385 4.259129986297074 1.1250304111950171 0.8969933582833004 -0.12386032369178669
Ni 5.765751888149235 7.055719409030344 8.544503986575426 0.5706602033021463 -0.5889253201599212 0.2056679411878974
Ni 4.333244581227107 3.2837333142562324 5.858641885004025 -2.8812566211833928 -2.8681843613804667 -1.9030133176796646
Ni 6.613253310658947 5.75454296858363 6.483263082668646 0.14407150853233897 2.3402944591663113 -0.11803574659020963
Ni 0.10783830062473525 0.31673045863136734 5.879317448087432 0.08301757864381186 -0.559358662246398 0.26030362625490655
Ni 6.212105099483661 3.7794371640405386 1.0622824181596255 -0.0373046499877293 -2.559695176559269 1.4426035605953544
Ni 0.4150734932913026 8.778901514769888 13.069647302036108 -1.56453864223997 -1.1888295079288493 0.8107238483610941
Ni 5.893592662700596 8.333370044655675 11.084312204258474 1.5079527754251254 0.2598554829738944 -0.8222015099833905
Ni 7.977279104880839 4.9145572466722705 4.767129485328097 0.9430263892829629 0.4140273131650289 -1.5765945449632395
Ni 4.5586602008932156 3.7300311273061504 9.815461586127359 0.9202258464486797 -2.2202985035259375 0.212757243934511
Ni 1.5808546797891447 6.178238281553978 8.558422805558251 1.3561453317011096 3.8459329846359633 -2.6347942716869523
Ni 0.18485945888199398 7.225441286670321 1.7557544504212068 -0.5084477343291437 0.2209698616522904 -0.3190224802523538
Ni 5.339018902578323 1.1858926103840024 5.664168977150279 1.8145763677924942 0.42862372292196504 1.8144917784984878
Ni 0.5717832372049164 2.08444355206853 10.107029220630109 0.9818886135657992 0.5572981801729434 -0.6633746975187478
Ni 5.547953532603078 3.5029166269151064 12.103688651066072 -0.4692654077027273 -1.0526988515101419 -0.6763808799704286
Ni 3.5845090669490793 5.1505631717269695 11.860351686361383 0.311558824885457 -1.0617293371435264 1.3540136300700876
P 3.606779177321597 6.755386842613567 7.679923272951666 -1.1321618800334758 0.06764700972501252 0.5949370735716399
Ni 8.375703567067779 0.41953674841322436 10.925541644161136 -0.1542013978774893 -1.0748774444897102 0.25089750244965825
P 0.5701286751075884 7.86730427708355 9.707638058378492 -0.6543061595585763 -0.9822264565211922 0.9901891630116947
Ni 5.634402555578984 5.482075739274754 13.264619717755174 -0.1402559914409907 0.897808655095744 -0.07369167325719567
P 8.462734272031026 4.316228074835502 1.8635927510459422 0.6877274153314994 0.0444731427117105 -0.5779410532342757
P 6.322006062901605 7.531683003434699 0.9784731234405614 0.45046421583582424 0.356416861740412 -0.5939703387829964
P 5.412633989643035 2.7068340454769326 4.1929548888418875 1.1699426983266754 0.07489777775015488 -1.7503964906804756
Ni 7.884339249569991 2.789165129304355 3.232077183866047 -0.7621258848477325 -0.06238884664986674 0.9727370289735182
Ni 7.232403004423588 0.730015510637779 4.41114380229383 0.7352393448695337 -0.4627353198936934 0.4950121776495282
Ni 1.1813407180068667 3.003131770171989 2.3584702430863262 -1.2832599563952933 0.7744129297452018 0.8399840307777922
Ni 0.029853212217024253 6.7253886715520785 11.82304094174474 1.9294139191603803 -0.24819527302714675 -0.6598893100733086
Ni 4.08614976622324 8.653544429974001 9.660854207110853 0.5352304017396267 -4.554754244523284 0.6287164840149302
Ni 5.251268019916461 1.0726308177058603 2.8454156240897994 0.045191251824657656 0.15110398989908816 -0.8520044522774358
Ni 2.6265342320814975 8.584472002239007 13.249944712188805 -1.0407751034893624 -0.37865998940932855 -0.8977713740999054
Ni 6.49292823670594 0.036308958971777404 8.58707110508721 -1.3943874059014438 -0.2256940066008371 1.2068873938718248
Ni 0.14742960795365614 2.693307631009379 7.444883124656903 -0.6344446447479589 0.39629672865448523 0.8515277697513336
Ni 7.731264556424893 0.019672854133799395 2.118322372959857 -0.5710741509111132 -0.49094932043406414 -0.5332707069100945
Ni 5.97813044486095 7.049080847936712 4.380170621424987 -1.076596741173662 0.45729306583219953 -1.1396910985309856
Ni 3.941329417469946 9.16362413458833 4.755021266943968 -1.5155652976650609 -1.5790437778346804 -2.44689933821176
Ni 4.316892854249607 7.392661008459987 12.343175434997404 0.041759600435289375 0.13087763554988427 -1.834948246580627
Ni 7.518119656777473 2.364278753217069 9.547002422702693 0.46953254532118494 0.21061551500115985 -1.7783238132183632
Ni 6.858963168550095 4.4568750861558035 8.311693619232143 -0.03140011157783624 -0.17972216785641307 1.540747196247327
Ni 4.997174554969655 7.592528785920144 6.355614355503582 -0.7782610998466983 0.2661785969784448 -0.8002921115048088
Ni 2.190743626993406 1.4857081261453644 6.973019003306196 -0.4773857228170166 0.751321595143377 -0.8857427250701455
Ni 0.7672680870556888 3.6832103438488377 0.20664575756980222 0.0571291409128242 2.0716915690170903 -1.1462651522040774
Ni 1.8633766977363582 9.106656232018498 8.539909622180168 0.7151356321411232 -0.7448678690982333 -0.14207890358234238
Ni 1.8362130722322336 0.013845877908220571 10.89189272615052 -0.283838219041737 0.12760564966683186 0.8207503793591605
Ni 0.5259956317536917 6.401087114037848 5.824398358739681 -0.4938130151351044 -0.7759113686675991 1.0696629901683061
Ni 2.691747245995716 2.885650474823764 11.666864867971894 0.26111043842691806 0.29818188935791873 -0.4814850896973708
Ni 2.342285634267095 8.06464219955114 1.995727815951474 1.1367312445717133 -1.0440902839055246 0.19719769893335715
Ni 0.5525424896902853 2.768418471755828 5.16319675050919 0.19990147101776543 0.48289456845038775 -0.8243447815786383
Ni 7.690685313022233 4.321500144911251 12.93694440471436 1.2058296420312717 4.672974339210159 3.266222755316407
P 0.7451835609362751 3.922124678840246 11.266270639641695 -0.6243178407266022 0.18447510916036616 0.4226196828197302
Ni 2.468418295046103 1.014564182493271 2.636186459852406 2.377884244494627 0.3847758724990793 0.6176476277952782
P 3.0649008573992464 2.95215611537652 8.117396139279341 1.3535631727962303 1.693733747881109 0.3020326305625766
Ni 4.10220603568336 5.829210623054008 9.698853737064889 1.2934960323010045 2.4918257664108054 -0.9567815340855264
P 6.995815397381547 8.247133381770386 6.28174997615858 1.8491229954191122 0.8317233334308965 0.05617551875030326
P 5.930838775985312 5.847168900282263 11.028474426692622 -0.15883658265665548 -0.20432633955833845 -0.3948844216879909
P 0.6532547243177115 0.6132054578368517 1.5030385561491852 -0.23285401468438607 -0.7344734132377867 -2.6329340785497624
Ni 2.222837699818809 5.5498924725608845 2.1889431827468715 1.8782857330259974 -0.12923958572582903 -2.3254584225947434
