# total energy = -340888.2859300449 ev
CRYSTAL
PRIMVEC
9.13187837067614 0.00000000000000 0.00000000000000
0.00000000000000 9.13187837067614 0.00000000000000
0.00000000000000 0.00000000000000 13.36542705989502
PRIMCOORD
 96 1
Ni 6.3756765005627525 1.7478962904398507 11.197434242331816 1.283069180540726 -0.3059918723206408 1.1776621784581203
Ni 4.628072430227256 0.40944237284063933 5.840517386077508 0.011752769660553952 -0.9985753301928609 -0.12156484278939063
Ni 2.53714626478828 1.3496185519612052 4.744352288876864 0.18573572104034464 0.6080540705695722 0.5325803657112892
Ni 3.352431224059042 4.37374048877798 5.134542835967499 0.43716749872691807 -0.49238502443932625 -0.7834544711221797
Ni 5.131266318047425 4.7548320323692765 2.9238338233779655 0.43928557351118536 -1.1365993469795392 -1.598063770580609
Ni 7.387114204881465 6.353988289692692 2.728899270890043 1.3757877885223855 0.12327822593607157 1.1164210722594516
Ni 5.35644017220908 4.97735764183522 11.906697181803638 1.0711848261294712 -0.6220578410478319 -0.4770183121752688
Ni 5.576901977188019 7.959637312459735 12.730234619458937 -0.22086187531951637 0.11176148354572366 -0.3351787782972421
Ni 1.8647112771555576 6.635670206533898 0.6619570705159618 0.057572656208146014 0.08912497709313039 -1.5110365565567718
Ni 2.869090039578457 1.9355015974354326 0.09087406013946317 -0.4724461194235541 -1.3531116870811084 0.23650035318772175
Ni 0.32554050175350907 0.17608635575705814 4.693269475072221 0.4628016543552546 -1.044507316838285 0.6745073170967997
Ni 8.63082123277069 2.485605943882757 1.4145562514635552 -0.28470005282140004 -0.7222496174780852 -0.2786908705128426
Ni 6.791551368450495 0.5641939214163415 4.539968068764377 0.4341940179208909 0.6414172194110501 0.7439466428355446
Ni 1.2920603232816321 7.37266757347244 2.8268149223566237 -0.984369213895808 1.9728079698752992 -0.058728367079144014
Ni 7.583504378764204 4.124549794789689 3.4937223840779157 0.4509648096213266 -1.4595273329338863 0.10238544164746238
Ni 7.754818414942022 4.064416376440492 12.580288265224214 -0.2821950270113592 -0.8872956713795623 0.5583932130093351
Ni 8.118623312985099 8.817102417418415 6.954352667713337 0.39176695910493176 0.19619779691393305 -0.48895183038806117
Ni 7.084173275448471 0.7282645517574736 0.37394493566417786 -0.9910509967913577 -0.2285307047186838 0.1140507938005326
Ni 2.1130618383438287 6.453635345277573 9.314927674008896 -0.7657274861560619 1.0785785474903813 -0.10889418930025763
Ni 9.225662650819034 4.734340097551418 1.447769805886921 0.05899113382222743 1.190516408712969 0.06823116436325669
Ni 6.4550873139210845 1.5772123538620464 6.9729707411120225 0.27020365897743787 0.434435958728368 -0.46980071138090707
Ni 3.2734952683702856 4.416696844118089 0.8599078823935183 -0.21001053442730927 1.0792506338567414 -1.4091347394139475
Ni 6.242698089324938 5.753348128948564 4.747693643132592 -0.4971191966902019 0.07332014885038984 0.9620710646192399
Ni 5.589896639953532 2.7167703101836795 8.904755664095196 -0.6494897120065395 0.877269911712444 0.9511870707168845
P 0.32888368238488963 5.834977988724337 12.545230984579936 0.9281461297370209 -2.001844466316965 1.9077724296312046
P 4.07321037520591 6.136695246470348 13.00502836052781 -1.1084869050140393 1.2169946575091555 -0.7265870685111744
P 2.4032272700895745 8.789186265574301 1.2531667405798756 0.21192626339278342 -0.48500390148390665 0.5203426859945168
P 6.5343976766185445 7.851241917500743 5.6960245895403006 -0.5229135320454865 -0.10413379179713678 0.0560104539273487
P 4.8851074076418115 1.2864442181510691 12.790192705745522 0.3026394109086401 -1.2477717907910124 -1.7505787818946108
P 4.25919020787102 6.226753829881096 8.147577759387499 -0.4210963041966683 0.05456112307533185 0.5389952680986976
P 4.642847809253681 1.1354668748606704 3.6141051956302253 -0.15297652433145265 -1.2731213252993945 0.024725270660821932
P 0.2297123976574112 5.671426049068435 3.5639848817943 -0.24327983800340036 -1.1641823988041304 0.6680870153927526
Ni 1.3548876457178471 1.1452197208435015 2.5446435368406246 0.3613711204218938 -0.26274154627243784 -0.16864688387885796
Ni 1.8553967613292583 6.184920695567099 5.0746386277626545 -0.8999406138370822 0.9502373052091054 -0.45974666957901467
Ni 6.233584474820382 5.613858688510601 9.463978190986207 -0.6085178975798681 0.22179544287737932 -0.5636228368393906
Ni 8.505915401915669 2.3362906024358745 10.035711391094894 -0.36339329305824514 0.5226237687192096 0.4466700389007146
Ni 2.3254693266964974 5.181354670309436 7.237953192177194 0.38311442563625636 -0.4524768753904788 0.08157750376317563
Ni 0.5691178301747146 9.17096270003518 9.18538924131203 -0.3928226540629557 -0.7310985832282828 -0.14112425297855696
Ni 1.293110489281656 1.23722339432386 11.20018750362753 -0.7723935853223278 0.3222795537370708 1.9419992120245584
Ni 3.986941521273508 6.5914171244807145 1.6769598601077988 0.9799643999598929 1.7569479186457484 1.209051491402679
Ni 5.819873862080516 7.939163641398399 7.703176730187802 -1.0405082229812208 -0.10932973417577946 0.662047236956576
Ni 5.373261091965985 2.9101378323620013 4.633018255493456 0.12538884452117116 0.1259622005261379 0.6411621659774506
Ni 0.6972472140558967 7.083333142648452 7.103710928988048 0.17841656167111208 0.05581916385214903 0.5107702118147333
Ni 5.06098738295017 4.424723765109577 6.9762719151034025 0.008484126211611194 1.5441942742556631 0.9056260942576339
Ni 7.956724243294452 7.314059178792843 8.979535701987336 0.9240562759383634 -0.6551330263352458 0.2513032225285092
Ni 4.517165768746467 0.5386456656053242 10.363405189742366 -0.10813211432325247 -1.5210656586579998 -0.04827143341187815
Ni 8.423673706296402 7.117468103588361 5.024077244206719 1.1464230179381805 0.053098422486876296 -1.1367762388770357
Ni 7.435732324743443 5.8752587037339525 6.769201096406507 -0.3514080956719109 2.0086712594308116 1.9171140187471047
Ni 2.345422480696952 5.273029596172396 2.829059538033196 0.11693711420939217 -0.7154806741853679 0.7094398673079266
Ni 2.341733201879477 5.502550224386324 11.527613738241952 -0.042984216871009846 -0.7629928608337182 1.0709966213780653
Ni 1.1406537817129627 3.307885921901504 3.804455545231087 -0.9520028817499605 0.31613101763717166 0.6501803103156609
Ni 3.53924205764591 2.927725829892837 2.901032436547881 -0.24075604314028215 -0.4845421313561397 0.09603301706687332
Ni 1.1259514577126275 3.588572464012252 8.660235012649622 0.010448963247465876 -0.6113558812492955 0.20964235245461313
Ni 3.822266360591493 2.552999205449511 6.759377934961066 -0.42897133606937093 -0.7900110412937749 0.46874398798161854
Ni 3.861378195183689 7.03366485678645 6.122408422930891 0.8480570375939137 -0.312546642720023 -0.23547345458510416
Ni 0.8914831778568469 7.6083065601212905 11.590725062092089 -0.8355856445997802 0.7235318266246185 0.004640326985488783
P 9.153155537426077 5.440279946524035 8.571208331482374 0.2613888888992853 1.2246089795213038 -1.9225637290077666
P 8.656874481449545 1.66993744572503 7.962854473171113 -0.6447198014217219 -0.29242596071074795 0.5840055142608007
P 2.2387895382423473 3.2614959803352295 10.712202759051188 -0.7658832950076359 0.5284257201129674 0.03185622527864836
P 4.198572799973985 6.210928284854648 4.113156863471168 -1.7416886784938328 0.1678066473657497 -0.5080450995740863
P 6.636181591716518 3.752416623772509 10.50032035369853 0.6019240464124342 0.4975205458936787 0.3895910344995355
P 6.369539878371308 7.647582768522185 10.509782805952659 0.09709771088596181 1.2629734382321152 -0.45869688815826165
P 2.119910747039637 8.401391923339373 5.787657508763259 -0.0904077004602959 0.3263251845613541 -0.06455782927672753
P 6.751024092727832 3.9397205787854754 1.318165623666575 0.797566999264162 -0.7308137049980122 0.6861271607239151
Ni 4.883463669554818 2.924694046310159 0.7510942474101678 2.017622040866196 0.05120146257447956 0.556171779877984
Ni 1.4799852460163514 1.0166520068057876 7.099313929605338 -0.11080529028004142 0.6904353011809657 -0.5437042435385927
Ni 7.118910940353611 0.3805902034747642 9.113055633606033 -0.7862891123574974 0.6093108257948087 0.9192542265640298
Ni 2.624611394772883 1.5794496640360105 9.310035726824436 0.6650232888657643 0.19450575392349082 -1.223355052509545
Ni 6.4477635475557005 1.9198404262176842 2.505308884418859 0.22048315182385897 0.540555670607282 0.12081485199724354
Ni 4.296156051071863 6.934739219584195 10.678735338412164 -0.4154362776974136 0.7199579932304311 -0.020716663722061098
Ni 8.536434139064191 7.052531317273837 0.725150581270446 0.6309158056590941 0.9421792107913194 -0.011738114372534624
Ni 7.4411931879435675 3.95145504235096 8.010328368686979 1.1679580637964788 -1.5325824010483478 1.2667593876371088
Ni 3.021318450190623 8.726340679381563 12.417390168051803 0.8935781619541643 0.029427047011865447 0.9490530550930172
Ni 8.765918239765075 5.184386453892114 10.651042004397619 0.683971547833493 -1.708576469320896 -1.971631433068695
Ni 8.568742724351884 2.286311832712996 5.842829577653212 0.07755398442607934 -0.5989086566248782 0.13353924154244742
Ni 4.23410493828784 2.8797560733873957 11.365023385366941 -0.16898395550330253 0.09622662113491814 0.07839396382887144
Ni 1.105112511520848 3.3805756728596834 12.865706946649851 -0.8791072220314989 0.5472497947980058 -1.2468824462075234
Ni 3.0833512992181245 8.455607884575391 7.919937384907525 0.23745911755656524 0.07467074934101334 0.9776900021034195
Ni 5.669846234129269 7.80140012595178 3.5425596690181593 -0.5064155343904634 0.858859013305424 -0.4385684928395027
Ni 3.2974207894143093 8.351531868033888 3.785422884559349 -0.0718312230096892 -0.014005056029840396 -0.2071398977477336
Ni 3.715122032954268 4.700451697324558 9.628720927567354 0.5999157577331539 -1.2020650327825169 -0.1869989040234844
Ni 7.4860763695967645 6.453881905990622 11.95236753136294 -1.3394339324836997 1.271378631576675 0.16658151670939697
Ni 0.49712210196437756 0.18147781668239843 13.643561250116282 0.30854086399473957 -0.25158372988340544 -0.107309361311641
Ni 4.854113812823714 0.23438700613925692 1.2988270450730905 -1.485907879809944 -0.36782021848134716 1.4924575080030038
Ni 6.351367440631764 5.960148644048931 0.756364254354636 -1.4873793221491483 -0.6470355940390922 -1.6055122564388542
Ni 8.00145218301721 8.976791572569883 11.55880914756962 -0.14065194132782874 -0.6155832890670817 -0.832269949962986
Ni -0.13143147106038786 4.508901418920192 5.711942366537185 1.4100541659044232 1.3103221027194079 -0.43135886246494104
Ni 8.23725554347476 -0.27421295361146925 2.5272555274437067 0.44768408198752574 0.49617328783716486 0.39463553890197844
P 8.4911034953762 1.7868437512233477 3.69390959294161 -0.43645838847503543 0.27166970200000307 -1.5479079756618244
P 1.746745673778955 3.151246814089238 1.6408734167834977 -0.7786395662320397 -0.16075822515940058 0.07159545284979928
P 4.593371292835161 1.0544671146849107 8.136898940948994 -0.22047723828658802 -1.810932343282004 -0.37177946023941133
P 8.493505179358863 1.7088757746302656 12.494602938312696 1.092256559198106 1.6401385882634723 -0.8102327676572885
P 6.5941201604459945 7.983873317364636 1.5062439619560803 -0.5526966768451901 0.2629328363476375 -0.8494017245472661
P 1.816129684806624 3.1120345288361695 6.280012770275355 -0.9851161193641617 0.48362938973388325 -0.7348212834955087
P 6.810016026294394 3.9284061816199998 5.916072720434013 1.2795979341626735 -0.788381733220468 -0.8608909561337883
P 2.3411852891838123 8.529877450472737 10.380565815370582 1.5060257336057419 0.20979070510701933 -1.7219647177023443
