# total energy = -381169.9388093057 ev
CRYSTAL
PRIMVEC
9.25853784380176 0.00000000000000 0.00000000000000

0.00000000000000 9.25853784380176 0.00000000000000

0.00000000000000 0.00000000000000 13.55080600174951

PRIMCOORD
 96 1
Ni 8.038170005728398 9.236882164140338 4.103061793181938 0.2675754773259714 0.38132056696062716 -0.879309567850292
Ni 2.865878558153357 2.957186258767846 12.636641347436026 2.5921229580706715 3.6048910348241465 -0.16952260161559193
Ni 1.6050138349244365 7.533320451975927 7.462998153329882 0.2180074365898568 -0.6024202693225625 -0.3232362612233853
Ni 2.685587049933325 2.911652769453097 10.078438816836965 -0.7660972107906548 0.3030333039129491 -0.6318786837929956
Ni 4.335319622838696 6.45904304272833 12.391168806657074 0.3727194555551775 -0.06282413441507245 1.9363325006570844
Ni 8.481561385005207 3.578026775134221 6.3846923542488465 1.2989511418783048 -0.16077236622678762 0.9940568734972172
Ni 4.945901679229322 5.0303025105821595 4.988688160353814 0.21187381288829318 0.13158777424303142 -0.7839607213346369
Ni 3.2660881167380165 6.993927293377314 5.39322053027663 -0.9132874674576336 -0.3416654144628503 0.9020422335611175
Ni 9.12545566070337 5.157987006543873 1.8512029865356288 -0.8209038742178895 0.19993900912392018 0.2814419508954185
Ni 8.89316820372538 9.14359313641862 11.953233483755453 -1.8961808681388632 -0.680796492539621 1.5231073716783767
Ni 5.367887318917741 8.939044258941848 10.742835198826013 -0.26090166485022165 0.39728814603347706 0.6008521535044942
Ni 7.592093650465157 0.6309943548640341 8.482547419289881 -0.16564589226900503 -0.9660945839563361 0.5941410600329058
Ni 2.6984471590545507 3.7301260354967067 4.787472356515374 0.44537240313521365 1.569211365125291 0.1887400550843072
Ni 5.994542197075426 1.6903034859141624 4.37630068907576 -0.04342953193854456 -0.7311201804948377 -0.759267332353015
Ni 4.36528950997002 4.487687380799826 8.866414732655048 0.7257799992288467 -0.1620139519433726 -0.3936454070745672
Ni 5.576445143298393 4.6155107548298036 1.462998974025478 0.3339037682395604 3.8597135833598237 1.6777072905458654
Ni 8.32597165586036 7.323790481117429 5.62527837551509 0.14850511882366035 -2.1327575830904753 -0.4449602552984595
Ni 6.163204981712838 4.205607507080332 6.788059074252036 0.7753153869548132 -1.825861196677694 1.366157464521473
Ni 2.861249289211231 0.1810738546712507 6.399720812942564 1.4113877971141822 -0.5694782671789032 0.2666000007865795
Ni 7.361361627851722 3.2492005436371416 0.9983064766383711 0.8942667033807566 0.6118883567139978 -1.0961026724170737
Ni 2.2427697000053395 3.0912221117181566 2.352474115395837 1.2862043837355979 0.22858058412001278 0.31070573285654235
Ni 7.656736761973001 5.095778890499586 4.995355233484263 -0.08420182875990015 0.27466760828606246 -0.09719901235051646
Ni 5.919057337705123 6.302758923242163 6.622725659837801 0.40560746453244984 2.9050182423793642 0.7999591536454222
Ni 0.6852716073566708 6.939644485761946 11.564434147259346 0.14718742845350136 0.027112797056392014 -0.8799199477407814
P 8.416427570989498 3.1510230079125376 12.510551171697978 -0.8408245244012165 -2.1225374480243637 -0.3550950576051949
Ni 4.749805846840872 2.5315990478424526 6.099908987467152 -1.0243359840967325 -0.18189603557928027 0.9666741106088901
P 7.147156095361677 1.4465724761112388 2.484134227525048 0.15778140191926374 -0.3543478950265252 -0.300609782073121
Ni 1.0570565287828897 9.306034183597813 10.351826775190723 1.8159719625884403 -0.5250308354988055 -1.5221118405343268
P 0.6635816306552345 2.6882164746924526 7.99448729813671 -1.3819504656896717 2.1082066332239884 0.6434913283312595
P 4.738140089106715 0.7647135658187032 7.6757862036698485 0.8001648418983253 1.4600459244415178 -1.543310328988813
P 0.7679984950600357 0.13703191580965426 0.8329221402657733 -2.225116236629555 1.7502159992385535 1.7413783463422654
Ni 2.682976142249966 1.2357185343352928 0.5716721250782689 -0.007730021654406042 -1.3973205203878385 0.4472310536105072
Ni 1.52028895474565 4.897636921238718 8.633096800410542 -0.00578009701688682 -0.16242147179443642 -0.5143342750169076
Ni 7.705705168842808 3.1153498614445163 8.655183968387213 0.28671605481016427 0.15358510444972903 -0.4531376489029293
Ni 8.228997730060708 5.872375789692727 7.519206736825174 -0.33006022612375413 -0.8798839522965234 0.8654808894973158
Ni 5.140923521223197 1.7632700229799492 12.471430145721863 0.7413351733546265 -0.366628255055775 -0.5694684969868902
Ni 9.473798890060452 2.1474715695627378 2.058882175671065 -1.6047933759949586 -1.0907388370019988 -0.47673703348942414
Ni 4.205774160762249 7.011361120213359 1.4409655055685362 0.969935297858665 0.017906447966775613 -1.0926198560747957
Ni 0.7980230075648752 3.827414751584423 0.2478140250098784 0.025471404798227102 -1.0313612663746303 1.0652301512079332
Ni 0.9295109108894396 5.2273149382211495 5.798661162765892 0.20500099702785982 0.7291165198012476 0.6013224082726935
Ni 0.12146831362622733 2.21474410582971 10.376570217686384 -0.47215249944253523 0.1450737245446082 -1.5378248803942098
Ni 4.742769358048841 6.534676038704781 10.096367049596028 0.9128467803757891 -0.1665941151148873 -1.513136119398278
Ni 2.095290450047096 5.56232587302491 12.916588054026986 0.2819723694775918 0.5996751024772575 1.2217344861869863
Ni 7.701038865749145 5.11009259006864 12.741185979663628 0.4212919651472422 0.9816456443170578 0.9712205923289917
Ni 1.1354670861246166 2.3001633763498153 5.5755470651236205 -0.2541476339558397 -0.8104909064146817 1.0172847336769062
Ni 8.732764034880722 7.110890402469064 13.83591457324375 1.1612413138979356 -0.3364689578635754 -0.5416543029880994
Ni 4.668247386618501 3.4220759630118875 3.3903571380742297 -0.12728631865420015 -0.25608727418071386 -0.34492685882294144
Ni 6.608262897808813 6.107394515346569 3.1753470386420433 -0.38385824578081634 0.6381400913216752 -0.500868379319989
Ni 7.731156889486615 8.67866639802304 1.6387528728284377 0.40070745612767117 1.192584089875275 -0.37396412659555595
Ni 8.410242867682818 2.291330731208239 4.404811430636524 0.14318370661074695 -1.357599804759449 0.69339104137518
Ni 0.7330169613719679 4.1423994689445465 11.495148804856337 1.2060047341565552 0.4812025254599455 -0.429033556765874
Ni 5.175494901682993 2.1488233160938384 9.542762035345088 -0.29665979628643746 -0.7919977327065005 -1.1106553734202678
Ni 3.3369437071661943 1.1266622165966933 11.269121045341892 -0.35228047097453524 -1.9399042771687431 -0.3853528280484719
Ni 5.567455103012784 0.5025515846496001 1.0997282040376168 -0.37907316568734717 -0.15358150490530326 0.018900436448928738
Ni 8.886103939319698 5.471842182282118 10.10227492261997 -1.7072708631355953 0.6060162142039369 -1.3471742385507506
Ni 4.027658408945016 1.3752724758646173 2.4452696630483253 -0.6776389207472459 -2.0249232025133 2.42824469922505
P 5.3092715155725445 7.29167261319696 4.765330563165186 -0.21320950098058117 -1.343495504147583 -1.6827883046131986
Ni 3.195862106885968 7.908207909447159 11.12839589877021 -1.6163723390818097 1.4814835254900034 1.0656271295360356
P 7.441642409846068 8.498550802022809 10.306485863463966 0.6682867901083845 0.13359786269452475 0.24411184698639246
Ni 1.2718546076975268 1.6390574787248295 12.312655479544832 -2.7597236600732016 -1.433757165948318 -0.0025376788201891777
P 6.723966845748305 6.593375168890936 0.8856467359552208 -0.4520305318816796 -0.3386793352513328 0.1661904519185654
P 6.580792815906238 5.486091072085981 9.211864668923301 0.44407810980382234 0.35683852265886284 -1.276147770830544
P 8.091054774123243 -0.047125957830840656 6.2185728899682395 0.32249706906451553 1.7183407477965116 1.7863214867118593
Ni 7.153313023054705 3.556658069697369 3.1552236065506225 -1.0472355144027254 2.1087221394078264 0.7143946402100406
Ni 0.8950247089781792 8.937303653819608 5.465066784258424 -0.3405804089287876 -0.35465591318524725 -0.9841493845755178
Ni 3.994494326243627 6.967938577536219 7.946070700124806 -1.9273734916915837 -1.047442745317525 -1.182200432648106
Ni 8.963005354986292 7.803919738718949 8.806939736994192 -0.49203843973318484 -0.2725338497725113 0.9905889695532746
Ni 5.922862596775551 8.644261671245161 3.1609694551615886 -1.2419238166506676 -0.29015207707490676 0.6732348781422793
Ni 3.408586273314533 8.188112026763854 3.2972495776950423 0.7101420355812738 0.6178970248019229 0.7841496974169914
Ni 1.7920918514136244 8.014616285350863 13.42353651831782 1.9801620962475255 -0.6637757896119084 -2.1308886482025367
Ni 3.3376195804317446 4.704651957579378 6.7403470509731225 -0.0906090178378246 0.4005169373834199 0.5245963190645482
Ni 5.805686541312463 8.910777942781229 5.997437341871832 0.14586896675239397 0.8555194074092298 0.485634335979054
Ni 2.60288978955119 2.1487862819423014 7.595484127038369 1.5953188608456201 0.71044645419557 0.3269749023302111
Ni 7.082531500929601 1.7861386115540507 6.645369265941317 -1.1189677499407051 0.4370389435688538 -1.20928186224593
Ni 7.3295678087572025 1.3523113019116733 13.37215255891401 1.3203789727347777 -0.48089527863217185 -1.2934538662091595
Ni 5.71761932895746 8.220590977661809 8.49588156555078 1.5951437687203367 0.22070735201952313 -0.15284128430516902
Ni 0.5520273593954638 3.9378135573162387 3.749440271377044 -0.1998881012813267 1.0442219243873823 0.293063851405063
Ni 7.1296296831467885 1.484958374179346 10.574845509892786 0.43456759921022575 -0.21499050414040394 1.9965541644523037
Ni 6.935894777918824 3.991105701377991 10.699783923518032 -0.4339294514055946 -0.3689113946629969 0.8690112712480776
Ni 0.5218000849109592 0.612842991341959 7.701437908731956 0.7424410048242955 -0.5804918446805873 -0.18200170791920914
Ni 1.8242467534856301 7.0765690025321435 1.9695687641168433 -0.6210641096759949 -0.370873146375058 -0.09493952689237843
Ni 2.8709614954518106 5.281153336018073 10.722590479888309 -0.4464016157306764 -0.5126795130223041 0.34900514265737315
Ni 3.137496284063646 1.6314099264324378 4.504437001686225 0.35125460081318216 -1.6476536656935947 0.06372864850721283
Ni 5.327149752227035 4.3049979112677725 12.780347743206436 0.3764807223698226 0.27631902784655643 -0.5524956165779775
Ni 6.482652314333172 6.7264296168255155 11.457626728372832 2.259907890387443 -0.6216485214245552 -0.6744936902500449
Ni 6.293268921910805 8.37348647228234 13.001280529323179 0.06834969221899197 -0.5525041012184098 0.2217190811134891
Ni 1.5260107311581175 0.35661758466423793 3.205781704375155 -0.36446364330428843 0.1258567852965252 -0.8436756206967663
Ni 3.484126683912142 9.185191747132562 9.042317693917944 -1.6654917223162802 -0.18099280703872053 0.7854298496809957
P 4.003771381203647 8.717691135205161 13.178308402939011 0.43644399029733216 0.10691675385891262 0.11435572663546113
Ni 4.677339270820835 2.772191413302615 0.955471851116881 -0.8802205097003358 -0.5568870607774538 -1.0553825689898921
P 1.501262659393513 6.368309371462663 4.029264765267934 -0.8445971040697713 0.2900204365930489 0.529572689233217
Ni 8.956255880868671 7.261406452853342 3.0658296457168084 0.1036995324731956 -0.5301900111022418 0.6156020581201591
P 3.105869118651042 4.359836231156195 0.8724792433762382 0.7851647689450671 0.8435380666776376 0.16917961645387639
P 2.2562316140890415 7.013925735207296 9.519237942288783 -1.1461473956792905 -0.18476127294221728 -1.5684166371381376
P 4.641406885292055 3.6389201787989442 10.953278987373686 -1.0596022634981945 -0.22055617115363954 -0.16409808816591093
Ni 3.2736708592652186 5.487109511253249 3.2890113306856352 0.5788854194254159 -0.1315011280664961 -1.471665510958317
