# total energy = -340871.9649773844 ev
CRYSTAL
PRIMVEC
9.15170439424413 0.00000000000000 0.00000000000000

0.00000000000000 9.15170439424413 0.00000000000000

0.00000000000000 0.00000000000000 13.39444444943173

PRIMCOORD
 96 1
Ni 1.7536129930631439 1.0517504781165912 12.642359409309135 -0.5019752392309226 -0.17805480745631916 1.961860212614544
Ni 3.4631330742578723 7.16362475420674 2.698927318499776 0.8275838573412262 -1.0155081013924574 1.1224312830092735
Ni 7.076573741817292 6.4825457599852125 1.4719821020972121 1.0495667336390633 -0.9422509445695193 -1.4029265537207065
Ni 3.2206769692080757 0.8530706359624725 4.201930953050365 -0.5839049841271944 -0.9315690393756407 -0.8186626435921965
Ni 7.932367925013479 0.20556833006681205 4.10656287168914 0.5548234933802058 0.5894415976747075 -1.5209748987164065
Ni 4.418818111136865 4.2547829612137695 13.014550991307425 0.08022741749318442 0.898424434302872 -2.6864431062114957
Ni 0.9582566658194287 5.437265536889578 9.10007873459406 -0.6278770188327703 -1.0748468483620908 -0.4416306767045942
Ni 0.9781616229206748 8.111951820736582 4.020730866327685 2.2555187601808124 1.053260894661199 0.8237326019159362
Ni 8.820540838427693 0.42038628778522374 6.303920962884735 0.3298589087462255 0.27718266139843234 0.8536561289482459
Ni 6.615034984791989 5.529999757720348 10.919726766029504 -0.08145794746617584 1.873390352606909 -1.9134368270058335
Ni 3.125920221701731 8.37170464712953 12.136572161440373 -0.008341944206792086 -0.4208582200439332 -0.974508004831012
Ni 1.1545241186899207 8.182182000412427 0.5778669870067499 0.21593821276565392 0.851252918823392 -1.3941313240265796
Ni 1.0819419509795845 6.407922762190473 1.9337423303693428 0.2425725275237306 -0.7585597647630291 2.238649238118983
Ni 5.520463681720579 6.76439080083444 13.063508034072076 -0.29195622016318107 -0.02672224648619269 -0.1582668261961145
Ni 5.773343578098339 8.247616686975142 2.301232681809973 0.13899126579595417 1.0571070078801665 1.0042315000373738
Ni 5.145628172316978 1.875339813478625 5.141993115323592 1.703241687371544 -0.9474471440584781 -0.6140185156831232
Ni 2.6994416442878637 6.66444503692515 9.930024843842313 0.9779849076360189 0.17263080822727042 2.4425462034493868
Ni 3.240142644497432 4.331767098747416 1.5026961372822656 -1.2006252150121968 0.053382015165566135 1.5765564926364526
Ni 3.1595527354245254 6.490809749071386 0.3777182962941254 0.13766920455042095 0.15390006458698655 -0.12500729281203632
Ni 6.46512091478026 9.002568239229433 5.879464912146443 0.27923877259651264 0.8241678896811419 -0.7708252123939434
Ni 1.6847098105273828 3.800885877374462 5.650660404571556 1.3708836663525488 -0.12868705565646868 -1.3707934206315877
Ni 8.788454962750928 4.7119472035290055 4.113192366366907 1.474224529934745 1.746950184003088 -1.3809387365957058
Ni 8.675330744484949 2.7214972519264853 7.4993083569552415 -0.02628413050750957 -1.2088342331855504 0.06892767620964904
Ni 1.9108484266063652 0.7173682477358129 10.387552408822799 0.14404631172135834 -0.605088560183345 -0.1950467140286254
P 7.9572880161337975 8.75666194161542 1.9096861601457404 -0.1830538033328073 -0.33571151087226053 -0.5605529396648153
P 1.9029871125144249 3.1566333417163426 7.877152031599843 -0.5208923878503998 0.0699121516101054 -1.217540759820613
P 7.4503110466911675 7.888888177340827 7.8341966765901345 -0.41581602963433545 1.1489308719616986 -0.6037294750522894
P 7.910879723048548 4.652214028816439 9.361658241188115 1.2657674560374848 -0.05762793492611366 0.3965129584303494
P 7.07449630491523 7.890590394361899 11.636879033541137 -0.5085037843780597 -0.28962834336095283 -0.3267712709598372
P 2.380358318176581 2.942968498754141 13.295379277796217 -0.4321872719035073 2.021964119884976 0.5914231468811105
P 7.344526495365511 2.004799824124246 5.519823977582015 0.9813278559663228 -0.7415179787893939 0.11429530571117089
P 9.418659632132993 1.941662215369535 11.368655389542251 -1.713561067019681 -0.5360351570291091 -0.18726989829668392
Ni 7.450045647263151 2.0000683929420187 2.0870288034577653 -0.30935127571117693 -0.6349478096366226 -0.025084967993085832
Ni 6.191823565854049 9.255210191292418 13.249583233736287 -0.9913351036906799 -0.9859591840907471 2.104842344737446
Ni 3.428292535552382 1.8407097639746646 8.858830654526958 1.1817440618369777 0.6465018330228092 -0.2726508349663498
Ni 6.269631356784989 3.6612583231244806 6.364008308558138 -0.1197010501077745 0.9900567511988884 1.5403327344177278
Ni 8.955317989338061 3.041349321208575 0.06090825355937107 -0.5666443972745339 -1.2081927429468096 -0.465499770012708
Ni 6.942107748857013 5.62516833192534 7.732893714916194 1.0658536437245452 0.5348779034962143 -0.5688511751178654
Ni 1.2450253236435855 3.145651296419104 9.926100592989432 -1.058203326268139 -0.03310578141503331 -0.37268423144186785
Ni 7.626838273139872 2.5806708243982226 9.693760781999275 0.4621514223657654 0.6256219042500065 1.0010528451990761
Ni 3.3616864308246264 4.179857957173356 9.421706234532536 -0.34838010747886455 1.680531133147906 -1.0013914594854172
Ni 5.4925601349611775 9.028650596810376 8.991543180921445 0.632801195607265 0.4187568574302143 -0.5479182816199403
Ni 8.189933494051395 6.95405072311776 9.679803517596925 -0.4427048836053796 0.007624349314477191 0.32955603279382595
Ni 1.1465438324405937 3.3713048721641248 2.1860804458457723 -0.036637191607059486 0.8329507780800945 1.0209123031271643
Ni 0.07313126997519823 8.516182604719125 11.37322300521546 0.4084328497963869 0.2526556227913455 1.0108109530271043
Ni 1.0592365723275425 4.857852827007242 0.3018067385178428 1.2005581092196873 0.41399723125804183 -1.0357000029593004
Ni 2.764949544485895 6.492942096199932 7.672458604475046 0.5829066247696671 -0.7122788794186184 -1.8010888748290208
Ni 9.168177482311798 4.74119605083732 6.734030021439782 -2.020494220207669 1.5217752831305145 1.0968086973451627
Ni 6.429658060174591 1.8513348927997433 7.78924441967721 -0.5348359945146853 -1.2380725612253773 -0.12243876075391172
Ni 9.035322189328449 4.971260748110065 11.384233420796384 -0.6987669609751127 -0.12198933192131892 0.05856047404271205
Ni 3.9253124505921813 3.3573302195233876 3.7342504871925803 -0.5783231191640428 -0.6199971018640613 -0.2650097734813242
Ni 8.932109266943229 2.566522289373613 3.9333055492276885 -0.2917032236121105 -2.300545718513464 0.7889381199445703
Ni 2.194514656634052 4.653971156063998 11.582042020690256 1.1197581070524842 0.9731468628174272 0.16072094416356192
Ni 5.917226674901 3.362006740479129 11.299352277523582 -0.8340419542617442 -1.988995121158123 -0.09326676717564583
Ni 2.295979603476127 9.18922640246484 6.384381832925399 -0.015443588248579856 0.742875778368869 -0.27025970902635393
Ni 5.644734675963254 3.9120150240781073 9.03311937407591 0.8123510995518719 -0.2307832481982864 -0.9038322355820048
P 5.217743603102182 7.574774226726545 4.482852586924183 0.34114013808699956 -0.00047411142294111896 -0.15459811909527568
P 5.057808416756723 1.5670463468718798 2.918367802117884 0.4107967220428732 -0.5456392557777764 -0.5310479882271628
P 1.0314794528387707 7.911456280426653 9.663301164196941 0.7891103838563766 0.2844856228177488 -2.278086618178999
P 4.465226404222114 5.651982825859432 11.217686128011547 -1.4684151223418194 -2.1016485203904964 0.2884937155358774
P 2.279149619058108 8.81835358107266 2.245310276815548 -0.03467672544657899 1.796638809477467 0.4837301769778056
P 4.693460760611986 5.086563072026661 7.3133127771194335 -0.5082438458484537 0.04274947515238445 1.2362357651269549
P 4.697816971913224 0.4740088694603181 6.895499948615529 -2.031551506463095 0.33780233196301823 1.289279937337128
P 1.165405495238602 1.1354702700992108 4.812382583624465 -0.18351788745341943 0.1266196316044787 0.22478872117774834
Ni 8.216025003336751 7.315122069082154 5.623657385526528 0.005566952564816219 -0.7453705197662647 0.267730514846597
Ni 8.240460054123108 0.41725915038683487 9.460751066245987 -0.11243485546366443 -1.1225850349783182 -1.7532563287267742
Ni 3.2318054417759448 7.424100565248423 5.313723018318287 0.1982387386033618 -1.7296016654223116 -0.7029108079401571
Ni 5.481532331141866 7.343940786282992 7.008603117961354 -1.9535082411054228 -0.1019594098536373 -0.6653814435361315
Ni 8.429689846298952 7.017874709703548 13.02086017633069 -0.12727243469712918 -1.189932768295357 0.3487138366691994
Ni 5.028312473429222 7.565311364362089 10.761217415231801 0.6055359321334087 3.6213437810635307 2.476693538755057
Ni 4.901414940019624 6.387029421012476 9.020233774260483 -0.3601130796450766 -1.8360792748612764 -1.1632737709469319
Ni 3.3074442787606793 2.667639471447942 11.188392437351602 0.029139083457801432 -0.03828963960881793 -0.9287824777694391
Ni 6.251886201925534 5.894740937154903 3.4531009758788445 -1.1909912914668586 0.1475800359062297 1.4279858106821794
Ni 6.768271123506132 0.8852983630576621 11.249364752841874 -0.9189534074941593 0.6837848857439837 -1.279156732860197
Ni 8.437496250164408 0.6591990993076615 13.141383547615682 0.19059947689054918 0.22971006973876565 0.40141322394544415
Ni 4.1524486024523295 1.7594975390015812 13.015529308509322 2.2566775563756036 -0.9886824965591813 0.7479192543300474
Ni 3.4634350805035465 2.3865082635430346 6.448433696951105 -0.9447374584367989 0.05407852701195848 0.679045057066153
Ni 1.0810359322425622 0.9355695905762156 8.19264514406937 0.13389379666838877 0.6297449252794445 -0.04980921021264325
Ni 8.372171384054663 7.0561562892688405 3.3390341320581878 -1.3736882256808793 -0.3255260856988265 -0.9267222528063008
Ni 0.47536240654320283 1.0384713550113462 1.7923237875654703 0.9910062595963511 -0.30958884564327976 0.8395348590555154
Ni 3.0956006249769366 8.7610456080299 8.523876442620283 0.48848877470871355 -1.3664420856414274 0.3631122714827165
Ni 4.619103162245263 4.975525442367159 5.247126065294946 -0.834635107761053 1.36339224307151 -0.8241087543084323
Ni 0.42305767030377717 7.260898220427036 7.526284836057468 0.524880168853554 0.9479598220288386 1.0113362294029549
Ni 4.044952682401187 8.917320112609612 0.7960655843358284 -0.9943075560554424 -0.6272185593131651 1.022072899094169
Ni 5.5412472024456045 3.087510518274637 1.3528525353945278 -1.012284195138521 0.058099475245893484 0.38331420035188823
Ni 6.400253633891234 3.6343706155550737 4.049810407104332 0.777320333199984 -0.9835971116164738 -1.3885908538243248
Ni 6.95115878452282 4.645121457895306 12.843638335516934 1.123498805041839 -0.5510678829925155 3.64974187259025
Ni 2.9123377440792586 1.9562591839104488 1.8939342465077338 0.9050383400749639 -1.9226722295611727 -0.2862488853657586
P 8.598282545020403 4.581443898580147 1.7628424869650319 -1.3977120993993024 1.189708825210009 0.21941974355635113
P 7.352232230482408 5.313992078428068 5.428178809576554 -1.4246194653131077 0.248445698475056 0.2800998350452273
P 6.868518893661096 2.337876106285094 13.132985028474618 -0.5578288558654328 -0.14693031813737276 -0.10274385342814563
P 4.273269404130788 0.7474837614521669 10.690749291241184 0.24370047048058674 -0.6300326317231923 0.41701082127338507
P 1.2313709806573516 6.153084401068039 5.794436426432569 1.286191013999159 1.4008491023663874 -0.7640290154077164
P 5.1194634493963065 5.286692544160015 1.464963659981835 1.4215559958964357 1.3445406575826457 0.07306021032078386
P 2.7050150322762123 5.1269129367896005 3.506866324142803 -0.6867416543794624 0.055736888550987886 0.5731289765576129
P 1.4183860603649197 6.583626335241885 12.41148021034351 -0.15916491253035167 0.5406127490974624 -0.8033208710288037
