# total energy = -340887.6068977161 ev
CRYSTAL
PRIMVEC
9.08530382825997 0.00000000000000 0.00000000000000
0.00000000000000 9.08530382825997 0.00000000000000
0.00000000000000 0.00000000000000 13.29726050924812
PRIMCOORD
 96 1
Ni 6.20792448083052 2.326719044051752 11.08998151931962 0.9971884771476633 -0.5194515416388151 1.2850761836684255
Ni 4.797630944513947 0.5753922765268409 5.967398331301104 -0.8598815410326675 -0.6831786196185524 -0.6628771890570391
Ni 2.747186903334426 1.6874407283523978 4.578113651462605 0.8571091204938529 -0.6583829007311113 1.82190992533943
Ni 3.4966699539754145 4.275026100052884 4.795604013238969 -1.6349123068675262 1.87769515062985 -0.5597774949513714
Ni 3.7808400858389297 2.6595773189121523 2.712680919549733 -0.4545031617918882 1.1456619714024399 -1.1550051031802364
Ni 5.101452588469693 4.549665748243376 2.4113913497595463 0.1226195093061501 0.5104789058265595 0.7618083536073138
Ni 5.332700825771377 4.667838294606594 11.42568440279587 0.27631722807434345 1.1074880314358797 0.4169655698577464
Ni 5.7751006083969285 8.108660886200623 12.405586202502748 -1.3240679915505906 -0.4820473899587441 -1.1156029472335303
Ni 1.9643607877935367 6.743993745504567 0.21491286109186825 0.7496799457748959 -2.227186231784706 -1.5190175178797194
Ni 2.6625027867317077 1.5478722915697605 12.991077702719707 0.8859101038859453 0.18531843099726794 3.0175973367303772
Ni 7.856125782124969 0.2427983840066546 6.860469157120292 1.1462885492428452 -2.424733086527366 -0.4837931690052571
Ni 9.032618110775587 2.46869508633806 1.6098731302063802 -0.3945103261780238 0.25679792709449323 -1.4841600438809022
Ni 6.947840706583335 1.2092630194119112 4.6590673423302 -0.1978116783682722 -0.9187546612197919 0.0331065527459817
Ni 1.042247879887421 7.440500389761 2.239484682675899 -0.44284732272051475 0.11143803876803389 1.1947325036768457
Ni 8.010548690600068 3.60751066018217 3.822470764853733 -0.8501488871259358 0.7585211982156098 -1.8858746011168488
Ni 7.614066033316233 4.152955958364854 12.633354768453842 0.09930911671498381 -0.5115063186498094 0.5933525026933394
Ni 8.48321162014158 7.2001032515453645 9.000675999719709 -1.1902294736001695 -0.2266373443507129 -0.2297923450399268
Ni 7.170112663743028 0.33378951849861316 0.24394767493576566 1.0595693533777302 2.373594358870022 0.5376135572598224
Ni 1.9239675271545833 6.4543088342420765 8.836534541783188 0.8080779260978148 1.3164994351747135 0.41390724264739687
Ni 0.5217817159379211 4.897078679771254 1.2662551300705156 -0.5885131723231671 0.14827963307641562 -0.824514217276967
Ni 6.224223515825185 2.1444315088605768 6.9857818437300585 0.8869927954271627 0.42668948201372964 -0.029439131196723492
Ni 3.855702989047427 4.465590346994416 0.3302417073696182 -1.2362275375968386 0.7668721412834664 -0.333450996972858
Ni 6.135878021796129 5.367924548555277 4.471575745129581 -0.7317323601575397 1.8487419579306097 -0.32339181296464303
Ni 5.329202983813213 3.275342868409614 9.149858504970213 0.2043199118004352 -0.8494318064542532 -1.0749782317336325
P 0.14014535357313945 5.681685514854481 12.264648610439345 0.6649237871734226 0.8100008541521405 0.32807379182134466
P 4.118613510048335 6.2917091523582815 12.520966835012086 -0.6913863522403254 0.7504772448652107 -1.1250126705832044
P 2.5177284708788683 8.600657342201803 0.8890878286387752 0.6017823786282475 1.6798600752228103 1.7280407486930949
P 6.411635162352475 8.150971145938724 5.87008927655536 0.4004863412558006 -0.6931007638282709 -2.110705231276126
P 4.798739351576014 1.2762398789329108 12.263571093410155 -0.8445410540208552 -1.1125873003356581 0.6957058055512857
P 4.2237668160841535 6.330676020302607 7.97773166478946 -0.6718200000726235 -1.4539747785467734 3.7694802036938633
P 4.947656565955926 1.1440668794332494 3.64836908837504 0.013111597681293547 -0.7849387689771901 0.3399000950323114
P 0.4026570297377791 5.487241843195712 3.366826426366852 0.21546101601891923 1.445670629556452 1.1150069655207442
Ni 0.8808556348769767 8.974363142890528 4.568220664168463 -1.1213437063720493 0.5209939464252705 -0.454680825020333
Ni 1.9454270147005142 6.836981829769004 4.7004618034465295 0.3324061006481114 -1.4068217750100547 -0.46849947607098025
Ni 6.127446859881386 5.690970695325244 9.160150337100626 0.3543126709132156 0.5766886688844133 -0.24008010011918005
Ni 8.822902043450135 2.4363786607661395 10.145184424917028 -0.09345214371357455 1.224041279943292 -0.26020798121730665
Ni 2.2823827615690497 5.283031469965447 6.767042252682922 1.349798306437159 1.3850689567139953 -1.8707601140729135
Ni 0.710667907269913 0.017413801769384226 8.964813580079552 -0.14662821351592167 0.696016137702853 -0.06016612796693509
Ni 1.5114220527745557 1.249828900822826 11.195003088450523 -0.6115980791670886 -0.748696241705388 -1.45677959498542
Ni 4.254202583772074 7.160373218082894 1.8625072640933162 -1.444888757085105 -0.3185565963595288 -0.7995223232183198
Ni 6.08546367107963 7.955373640698952 7.966734813085144 -1.104851365143981 0.09134949554827494 1.1906398216647107
Ni 5.246581231170242 3.076093071047291 4.78984574769849 1.9886333669433298 -1.7790360087940391 -0.313626248937447
Ni 0.5200327949588391 7.431078929733425 6.594883014153983 0.24237583813189223 0.44305892451068857 0.5364195369517213
Ni 5.389293183063334 4.736259717429797 6.975064819382395 -1.3485140404080969 -0.759193541692286 -0.12929794976759024
Ni 0.7419731385302913 7.5384853911085274 11.066711330728854 0.19962610586919166 -0.10905488324783799 0.22889143049221222
Ni 4.8423488097557215 0.27462874582594693 10.090121124252498 0.03457619531297271 0.9286798907533039 1.0423812716342178
Ni 8.06825854025788 7.343005994817991 4.555189612946139 0.34902879680645693 -0.1932176312396866 0.29680789182852757
Ni 7.256432135027485 6.1907895978874095 6.631623074140007 -0.09322023020842655 0.7278271115658627 0.8814376699368885
Ni 2.5708411568202365 5.260063821990802 2.513421128353243 0.7788072021581555 1.0664519394301764 -0.4291279162518932
Ni 2.2845814050856097 5.6132095802085535 11.096257647175985 0.012698421403274904 -0.15638220757889196 2.4026866482502878
Ni 1.4483791297935167 3.5754031965973607 3.5711658109108986 -0.9680262537614104 -1.3214912319623497 0.5766506165576263
Ni 1.7543812466582478 1.1309749566755496 2.6172198155943542 0.06359058026745176 -0.8620425532397283 -1.9671852243718833
Ni 1.5587928267222622 3.7938684114701173 8.1564859253377 -1.0965549294631436 -1.9741462290707483 0.6863876134741534
Ni 3.783692871228186 2.797274183114577 6.8224389839964505 -0.052400110868271045 0.048690523227167756 0.9128434379416795
Ni 4.348371757528878 6.9718531644935355 6.148959042189284 0.19727637469009252 1.3578337751471259 -3.778278518711783
Ni 0.5438408335338228 8.813489668726348 0.08440338071568655 -0.2198599164175633 1.1860486027496024 -0.36287907242598794
P 0.23451712960440402 5.567483246246374 7.750667209881891 -0.5854275914193079 0.4277595751494569 0.0905010315050506
P 8.478496347475899 1.920587794145656 7.707863618148131 1.1183722824485514 1.154246113527025 2.8893463401700625
P 1.8331054039764063 3.361516974833473 10.20774855238847 1.0413083502850131 -0.3385867755375266 1.21409213915038
P 4.076630321246579 6.212557985762114 3.8578943643209573 0.1882536023661919 0.2858069127323336 0.15834318796000474
P 7.170076322527879 4.1134439721932825 10.342223767867868 0.2561001296965202 0.46301814124143487 -0.5146865161500039
P 6.740159747306268 8.150244321635729 10.122845479964473 -1.0012153389188694 -1.7741455134709574 -0.4669087345450927
P 2.488855375442387 8.66728896017888 5.965177883055453 1.082295334220336 -1.9700589463752523 -2.3678374017815864
P 6.999209014197514 3.8804876977795604 1.5919478258337632 0.8924995841780049 1.7565545398620714 -0.6719053606975783
Ni 5.522465565979614 2.933644592964036 0.21192470467617958 0.36124385081541016 -0.7781366584536922 0.03265558125149214
Ni 1.5070701922603724 1.1332462826224095 6.769488924992878 -1.2377180060994362 1.6054487501907706 1.2870243085337318
Ni 7.104607623435594 1.134082130570854 9.25631646062991 -1.0447230323935168 -0.7377153172138521 -1.4082093993862006
Ni 2.661557915137814 1.538896011427771 8.917980656116061 0.05215534184731663 1.0765373486906362 1.0583827892687965
Ni 6.623985967776286 1.9971769050737662 2.3363549172487095 -0.5468828983768904 -1.2688047002019116 0.34055058413211675
Ni 4.409461340195618 7.1261397934118245 10.275537638068066 0.16020518086940796 -1.7435313881295262 -0.052443048291064526
Ni 8.105753588988641 6.962213657175063 0.3983260654223069 0.2069064415806888 0.38357593865370715 -0.3046723821782688
Ni 7.568912073492661 3.926168605222803 7.9581046830174555 1.3319522793946739 0.4528820812486975 0.5674175279951325
Ni 3.2925686043905986 8.461833900329735 12.030882835458161 -0.19684957156531904 -0.06969155095886706 0.35597797443078044
Ni 0.22502752979842405 5.044869316481523 10.059004867310898 -1.1962597389546494 -0.7462637210044953 -0.14147932232513052
Ni 8.846033226892953 2.505099898614328 5.691945548421636 0.5257990811233977 -0.17331703566101764 0.19599956486019796
Ni 3.739429271175783 3.1597959748409656 11.503406451106272 -1.7120610854353868 -1.0492875118357476 -0.6716189398054111
Ni 0.9816579889289907 3.5399705118263487 12.50724348364116 0.7436260262713321 -0.06325427997395558 -0.5336653712453518
Ni 3.4151656936982997 8.629512267030709 7.853441983386158 0.24750827426245114 -1.2673795377196106 0.7341669377409614
Ni 5.985598011848102 7.960397813693405 3.442647829124924 -0.5015157830960008 0.03271523084483398 1.3278212879454359
Ni 3.5111065016936553 8.513919946943123 3.8010748744343137 -0.005813778468299665 0.180021958485019 0.27162984990100314
Ni 3.685408054855671 4.785038713464557 9.54718064432401 -0.23647978436243142 -0.08493665004339566 -1.3949746458634813
Ni 7.064223448100428 6.270058873432814 11.440816884784228 1.3583281982850415 0.6280276854780216 -0.7825124189238847
Ni 8.094987504000525 8.855663648907639 2.598085257287629 0.28735523105606 0.060840528326140376 -0.4391436486166824
Ni 4.411596386585666 0.7084565443280504 1.3878882686463696 0.41911706898311046 -0.9207750340839305 -0.43207877135010103
Ni 5.854188177866584 5.812986325190549 0.4913813809347716 1.017698681285873 0.18302912074245897 -0.621212205218085
Ni 8.081804728204952 0.1511267602610169 11.221052471469866 1.211840367001726 0.4138954155728549 0.8243998031862898
Ni 8.99170698782075 5.018449253067651 5.623198871722843 1.3897262529803485 0.009169582314410014 -0.8432979256423735
Ni 7.541819697598518 5.963021031936315 2.5051244289345544 -0.34821967064160025 -0.44531018243871057 0.020563168863332325
P 8.870972385789473 1.6004580298914572 3.5777744608858817 0.18281880450386578 -0.7162530335750181 -0.09486676467291404
P 2.246913735582888 3.3842211489982827 1.1670536065458483 -1.1735283587954048 -0.9741153973782837 0.7980737636972514
P 4.7138371876823975 1.2596046876981102 8.272916818964866 0.8647679225906914 1.587969876679717 -1.539795116746703
P 8.81727824040571 1.7291513580405298 12.581256002415152 -0.23071125730977043 -0.27117964973746195 0.22569323526988874
P 6.138440077464187 7.9346409774560165 1.3123385164715422 1.448979382214711 -0.5412874065669838 0.19368994289041483
P 1.8943312661999574 3.18972296551679 5.893425787863776 -0.5474631963603926 1.0046233361591534 0.016779019230551747
P 7.024575182372044 3.9960527619557835 5.734191302502848 0.21450173742944345 -0.8252845197840885 0.9514894324486516
P 2.616622002605141 8.450304649823476 9.929729171189049 -1.5162962622938145 0.4549088818707391 0.42777140222399873
