# total energy = -340875.9342347368 ev
CRYSTAL
PRIMVEC
9.19121003008674 0.00000000000000 0.00000000000000
0.00000000000000 9.19121003008674 0.00000000000000
0.00000000000000 0.00000000000000 13.45226494077814
PRIMCOORD
 96 1
Ni 6.097926749044008 7.311138913742528 4.527521180324214 1.1585503973293336 -0.8265839553218022 -0.19153767243410239
Ni 5.34835598858992 8.090939564343312 6.825490995062634 -0.08869303176203436 0.7211360726989322 2.0559263357630333
Ni 8.761686506646575 3.427383878358966 11.972166097817674 -0.4247904652188039 -0.5174129139422314 -0.8466282755671871
Ni 4.545669224743384 0.2065549845715152 9.472574220989262 2.0466135430025396 -0.08617874998061288 -0.6613730937076868
Ni 1.183496982319599 3.5260974752502747 4.732520093019221 0.2914530552745174 -0.016834812169151656 0.09940219064942236
Ni 1.4966966590112418 4.839530595302875 12.378761337214284 -0.7534419839204894 -0.27531115540733225 0.22243436201295885
Ni 5.518108448644443 4.2969550783859525 6.765373127786409 0.3809071335722924 -0.6073557589509668 0.06365434362585166
Ni 4.393527123314908 2.0714414114141584 6.365639126758454 1.2716480831879777 0.44198497472021947 0.4754352839588651
Ni 2.5876657288629814 5.86637259201582 10.384691532749011 0.1738006601656555 0.5963812622173341 0.20627472153396087
Ni 7.013656206388328 1.169563107749094 9.66699956554053 -0.8799978521665683 -0.7553919085580088 0.1905341708702525
Ni 1.2119989249601903 9.017992592578702 12.475886692993598 0.547921881164366 -0.706953353440647 -0.21886952747983598
Ni 0.6519886015308729 6.710337080595956 5.6268000232624935 1.5423474508549115 0.6398287918780077 0.3420757625273915
Ni 5.758725138869543 9.162414077490538 2.760916363496354 0.24688272486331028 -0.19059562023580726 0.35585661836156773
Ni 2.6965539953780033 3.5242500420123646 2.663091556625472 0.27631619963307896 0.18641372094397574 -0.5069937754914365
Ni 4.126586807252126 5.760342791853982 1.8215581431270642 0.2295514326737143 -1.4272764433199807 0.20757621395420378
Ni 6.458222186487148 4.478619346780433 1.7296791300950083 -0.3089758946496292 -1.2276220553160149 1.4782249093433897
Ni 8.314966120267778 7.247885005566924 7.476459372268096 0.7049165255162764 -0.41502027320591744 -1.5924780489627155
Ni 8.568294254114916 4.901102512023068 4.783168256489384 -1.6636227874283414 1.5400239449280575 -0.6465272869441059
Ni 0.24747976683578354 0.14939852520202795 10.17226612226181 -0.19079359517922626 2.2680624011737773 -1.2355035149466207
Ni 6.536090118783531 3.2908760253766824 4.435184445027243 -0.9023931891426329 0.6400864164147686 0.96776194435643
Ni 7.111046269019642 0.09131834921358567 5.5319752273809355 0.9350228022521961 0.19181072358983095 -0.30357992044503845
Ni 4.921065820444664 5.14500046426774 10.080966155468502 1.040236200266757 0.12372842609961271 0.20395352959995197
Ni 2.735800462670917 6.962746093429207 7.360998471382778 0.04185601680383759 1.2662220270764 -1.373622919660583
Ni 2.774026705638417 5.817484545287247 4.035719746456358 -1.66056857398305 -0.17969568549385181 -0.6413544844939149
P 8.315894432491802 1.7162470955980849 4.621848731737261 -0.42395537091201824 0.9360052207701236 -0.8722444334733946
P 1.4876708906548854 0.7048114053198898 1.327418465399883 -0.1910864438292967 0.8663887460235659 -0.09359278305649688
P 0.0791298854484493 5.059641695708188 10.271235234794979 0.8378456442785506 -0.07696880134657066 0.21946396653072525
P 2.8263338825386444 8.35366111495236 4.822758475041492 -0.25854164925847734 -0.24135125352211984 0.3446926313249483
P 2.3859094751049628 4.9878767269440045 6.011790404106709 0.2806955596476972 1.170835385344274 0.7081648572502448
P 0.9923106202212644 1.8621207917118616 11.434412289739598 -1.6752745127346567 -0.24064908524877265 0.41574429585613565
P 7.1650446285854175 8.195360902730851 1.4769511822699382 0.3681534334510499 0.5740545736956758 -0.9951493352304475
P 4.7605137617391335 1.8500527327995442 3.613561030931624 -0.38493065290938866 1.6459143144049846 0.8303573063213054
Ni 7.254401573555372 2.607141903147217 6.679977594386301 0.3914903084047774 -0.3788003716419347 0.0775796954576922
Ni 6.597873433336918 2.1329857545039355 2.4480834160892515 -0.8463809354430715 -0.7378387301655938 -1.3956935263073769
Ni 6.265785819809928 6.43144819135266 0.7629035298815124 0.16362397674296983 0.6095622796839824 -1.2824785981445783
Ni 3.557200530360162 0.9419795535008911 2.1106740918918634 -0.7304246970897098 -0.1160847935114259 -0.10400703641128539
Ni 1.7627913837412492 1.5482869215206378 8.657177851762718 -0.7690663207213078 0.06857492085592061 -0.22467970640370985
Ni 2.2630597603890195 3.0643126954538933 6.943964774631469 0.2074052355939783 -0.9014884179401765 -1.8360211679298317
Ni 0.25548347262469895 8.151785375462536 1.2041900728262187 -2.0642608237706574 -0.8278759346603484 -0.004271373681844257
Ni 2.5637593912918186 1.952020018080008 13.140925893800633 -0.6359646809369112 0.5366797325916435 0.43386054584087214
Ni 1.5584064438835181 5.925067659962552 1.429343471113708 0.32779251313549995 -0.82282448827937 -0.9427335406328925
Ni 1.635603417839766 4.206109157373504 8.769719624307935 -2.2644438305845838 -1.207280001324553 2.621334803747937
Ni 4.919687138923834 2.4240162323406587 0.5384762371949926 -0.37830003496674847 0.8596761098900807 0.10180617210522466
Ni 2.4665991089139765 8.566713365971031 9.325581035480573 -0.42439040156690777 -1.7018327228391594 0.243181107642007
Ni 3.53416735775219 4.998216838350216 8.09557285337431 2.0200782157161727 -0.6991639393032153 -0.5638210688931258
Ni 8.29463516344063 0.44311191727828275 2.731415336313669 -0.1470349620360371 -0.44260846723683134 0.6998743351066785
Ni 8.194607223499464 0.4053075508561559 7.744778369851705 0.5267856134063831 0.615673791898359 0.5023783882066123
Ni 8.09707010150593 6.1733682018637355 2.5111884266606066 0.267382644588875 0.6505448927439311 0.34178368520826946
Ni 6.6055664762231405 7.018849240116781 8.805705050243583 -1.6472381754227308 0.4366872166563898 2.0384070959323477
Ni 7.291828181240793 5.534110345496191 11.165582260872265 0.23230894081419348 0.9847906177039426 0.2581405571653167
Ni 3.3785877437317815 8.12155548531584 11.510175434914183 -2.6382161528843078 0.1546639393362046 -0.38216080347373543
Ni 0.9421633777036683 6.4385713792102734 8.747537557758822 -0.7851791671227704 0.44863127639214345 0.20207533874063263
Ni 3.6589288441770154 4.166200922950593 11.908213657671517 0.8183589963088486 -0.35538199271799437 -0.11962957343989074
Ni 0.03862054588245723 4.8198981704462796 7.008522915525778 0.023935427769674906 0.012771183622739296 0.003666907328625943
Ni 8.883231069522802 1.3021095491615302 13.41805558542335 1.596356558081515 0.42662109066963944 0.2377563370820099
Ni 4.488748060353452 6.196971229500316 5.807786899469741 -1.8362317412787408 -0.8571721125213043 -1.2041046889203648
P 7.536489003926988 2.886260572643983 0.5894341444468357 0.12911360167092603 0.35110341994729855 0.12159569602732609
P 7.38001784252311 8.482356439316614 10.657381869874662 -0.19203389534423057 -0.5981864337468731 -0.049510705135617956
P 6.830457005900659 3.16633512799519 10.556732604128111 0.377451313813208 1.776406541590992 -0.07048525050475603
P 1.0656840507597483 8.465610054443621 7.732402405399737 -1.1284481786273148 0.6915426753125317 -0.6837100666419902
P 0.7941371001753715 4.926332383854227 2.957077008521837 -0.9312489370320607 -1.7607289829547352 2.3077558631086577
P 4.343012232391758 0.6914565769881326 12.685136540377826 -0.24100312615408168 0.07599101081433365 0.6588192169375815
P 6.4502350248764815 6.1742781316674815 6.72437022023596 1.4494007860228457 0.15638117913762745 0.28023713195403993
P 5.537694917450344 5.245294949302933 3.630968263813603 -0.8059796488078893 0.3336186328989738 0.03486081643292705
Ni 4.755421831322208 0.2276892531647997 5.019806990966388 -0.6245348418334147 -0.6868720093097397 -0.9439329602576324
Ni 8.754287582484796 2.71208714051267 9.493263635011827 0.7236012464099731 0.2128688298117108 2.0464124827353274
Ni 5.44126993188361 8.284102036621501 11.776812441042383 4.197174729933339 -0.4757165626447098 -0.23223926391852262
Ni 0.6050481722307236 1.0564101197296432 6.020493560987192 0.11102949047570557 0.23053693651543525 0.8648234584189751
Ni 6.656715560645872 0.9019095537795365 -0.17140228227444815 -1.2384062904157125 -0.6363521461833169 0.44018674516921613
Ni 7.432573182097087 4.783785905810716 8.943927063916762 -0.06983733250811199 -0.8912587697923683 -1.1002912565771246
Ni 2.875313841368606 1.397275338939241 10.692747808246951 0.772248060883399 -0.5234254386848984 1.1469025286777603
Ni 6.290041423366367 4.2832509840689195 12.813093810567931 -0.7024330969727902 -1.2653895038727756 -0.731123008708315
Ni 4.175649486973337 7.497499890517964 3.2420900010806513 -0.7295150407912467 1.234430593597416 0.25639786344259713
Ni 2.469264559854244 7.95523134664311 1.347970930391378 1.5920895552750451 0.8226918193562476 0.5754869352668283
Ni 2.990167203263745 9.45113756158241 6.846046217417172 -0.5934576608126361 -0.9369344174526122 0.0428093818560424
Ni 0.9847462542769861 1.8238853575342224 3.0816316927185383 0.39248609665914347 -0.9761002890187963 -0.3203581683446418
Ni 3.980492522095017 3.768350200880091 4.725175396997262 0.9656788365751563 0.198315100367252 -0.03403009300151559
Ni 2.542288724407452 1.5178823983813037 4.738829858779546 1.9388943478469898 -0.3543221839949124 -0.2177235868008508
Ni 3.2793870127031135 6.388755020257676 13.134670356180127 -1.2978093149643777 -0.5429959046176585 -0.5481208845490495
Ni 1.115344159139985 8.07723547002628 3.4831009942207083 -0.1447399953542733 -0.06774599719672203 0.4302669149523429
Ni 5.322004789121821 2.687417932499981 8.543412729148018 0.25182207114645666 0.9855922876696316 1.252679769615591
Ni 0.003598358769361957 7.294355764028977 10.872039825304592 0.8665039314451916 -2.5058521625968844 0.6312932436031709
Ni 4.6129580741699465 8.214028250522865 0.7747078010628448 1.216371164992544 0.476722892422037 -0.6505081259687249
Ni 7.965792047092655 8.028531247500483 12.768392360057609 -0.858663095244534 -0.1376414366362791 0.2050786443433307
Ni 5.1244948744479535 2.276258338148416 11.381974597655397 -0.357528606747352 -0.29252160574834785 -0.5545447857975224
Ni 0.6222219483751752 3.3609222378449015 1.1640042638571144 0.9133188349162011 0.19794768972550425 -0.9942031692670942
Ni 8.405260568671896 3.3181923019093618 2.9921469899276545 0.04633410717984923 0.7734659924509002 0.15351002823741947
Ni 8.482393204157171 5.149715555068973 0.058385324165052266 0.012395031230243169 1.3968440949720524 0.8726925767544067
P 3.508101085798396 3.122364378690905 9.59240646141662 -0.4343454558970907 1.1911859239761677 0.17896934885078855
P 4.354620730797133 7.13451142850414 8.884427765082881 -0.48583925290100843 0.017463189781769924 0.44849783613807276
P 0.08413449936905615 2.772151698770091 7.5442859074877795 0.9539317233415571 -0.9210894800005556 -1.5174607149155608
P 5.17191232755431 6.130527971406529 12.33528323677344 0.5132197017964903 -0.20329147053592087 -1.3859171636469034
P 0.8875014127658665 6.799556157413827 12.974090723844183 -0.4968124640830604 0.7517944210147375 -0.5747963369577068
P 3.2969606064886054 4.0257959968694355 0.6146649353990081 -0.4415864537302201 0.17085854681819604 -0.23162785558676885
P 6.012034890296403 0.9295530373931585 7.5926197242449796 -0.1928255380075905 -1.1142112090923264 -0.7694697268073135
P 8.255949359966186 7.500431886552258 4.412974804847713 0.567942547260667 0.07067474080774279 -0.24954561640745412
