# total energy = -340894.7256708424 ev
CRYSTAL
PRIMVEC
9.02231094638067 0.00000000000000 0.00000000000000
0.00000000000000 9.02231094638067 0.00000000000000
0.00000000000000 0.00000000000000 13.20506405920090
PRIMCOORD
 96 1
Ni 6.253715667019067 2.0268621800184863 11.311814521221516 0.04248902240214618 0.1420269672984844 1.2902950088652037
Ni 4.387017552968479 0.47101967351997814 6.2255010958668136 0.6246428281661887 -0.903710879512792 -1.1858871374710735
Ni 2.8195173183471045 1.5880440369089421 4.578961807420227 0.34088199932960644 -0.4362308458452616 0.7932925402585241
Ni 3.5435036471848678 4.374593830636472 5.026217615834705 -0.10304981470433866 0.35632430202660564 -0.1927697450689906
Ni 5.111103127227921 4.7914606909328175 2.7840497113323233 -0.31066356676469725 -1.028693746844796 -0.5817604269803658
Ni 7.259098855561244 6.218068516014158 2.3375734305935794 -0.023997648466178027 -0.6816249019781875 -0.28855387934985144
Ni 5.045556037364426 4.510713437624848 11.600516746192616 1.004129941462503 0.7619240532495717 -1.5992922436710715
Ni 5.581833184562818 7.742911263935654 12.319268330152362 -0.6284367479909823 0.24202745365353803 -0.5606892081323634
Ni 1.894279318966309 6.468518848776825 0.39643944582147467 0.5460046095369951 0.5370232319739913 0.08359761951699796
Ni 2.6889374103506323 1.6762281052263277 0.2543028595860274 0.04269728175821034 -0.607103790841161 0.8545472733039475
Ni 0.7120137220588422 -0.07786525115608076 4.754997923007927 -1.120998921438121 0.4578767062498114 0.19605844312259138
Ni 8.679535419876359 2.275932099188708 1.4534816808098203 -0.3499615930333715 0.42305882723967786 0.4946637931711739
Ni 7.0150092520971 0.4042563761253608 4.904109657925201 -0.7978421073024194 0.24636799001042087 -0.49277454656826103
Ni 0.6800070735673417 7.341391354755318 2.419603380535756 -0.39141368953057104 0.3413201153082896 -0.051536477316395116
Ni 7.595432567320555 3.974905450601667 3.7203418462259554 -0.21737443099154824 -0.43137017531885063 -0.3778804309308266
Ni 7.547109069273909 3.777136392128463 12.699165368642147 0.6484273321802961 -0.4324932331797003 -0.2374568035637201
Ni 8.012470851527073 -0.3104667459453199 7.181283227116003 -0.01268479455652009 -0.6075655609689278 -0.8809082797959796
Ni 6.698867472493949 0.70210451781974 0.21877480308713226 0.5969600175389397 0.3242721586870674 -0.034209041781541084
Ni 1.7335378250904605 6.538928964302595 9.179856853031529 0.9582630037270592 -0.40116511249038006 -0.788539598954571
Ni 0.08734138446421971 4.951083418237011 1.3142078738742613 -0.17497719697225994 -0.516856012997497 0.7900460082967684
Ni 6.314336575042857 1.909761604748244 7.023285418034028 1.9689749692824543 0.2876899886876594 -0.23574907684399402
Ni 3.4153417185529396 4.355610888162584 0.43909332359692715 -0.1012040197448515 -0.09676115348214948 0.4194202020458261
Ni 6.065672659870414 5.617101398503134 4.774409425257247 -0.8134083371717927 0.3518575245045037 0.1529094185389431
Ni 5.636535456530109 3.024594448780313 9.299508035638922 -0.6663656618262717 0.158675631598759 -0.5164911734589105
P 0.2837976966779412 5.695775950961453 12.452850863270179 -1.0974802694908905 -0.633419031696922 -0.2214701983274766
P 3.9628516430231904 6.240100999626911 12.595069552536287 -0.9653785317259179 -1.1646896774578521 -0.7265312755725746
P 2.327539718461825 8.446579348262393 1.4242845799829436 0.6927904316767036 0.10760272418234372 -0.21618760977229864
P 6.31992138559007 7.52817123835533 5.864012278636284 0.3435878282965438 1.123146563908743 -0.34442960747154877
P 4.627750856717659 0.9284048305634643 12.550013935556201 0.345555750656192 0.793646066943201 -0.8630766509311976
P 3.9129672851628645 6.060584076431596 8.322874441294962 -0.7506592789690297 0.63532653313228 -0.5078435250862415
P 4.8442321883328985 0.8754592025598922 3.76685005528698 0.0037484112988387056 0.1979363768715946 0.6913511281270158
P 0.2923896435020303 5.454781000191483 3.543512669495929 -0.7291584287827765 0.16753976685760824 -0.4630618499951767
Ni 1.5238773606378917 1.0406965140378026 2.70064656564655 -0.47132254734207213 0.5172347364931543 -1.2520848163440694
Ni 1.5428061692454091 6.727188506916731 4.755618658008974 1.4296721972456667 -1.163451948396009 -0.1721404988544132
Ni 5.826653595222962 5.559241317664236 9.337723838603111 0.6452391642603016 0.7280605677329074 0.3052783911933839
Ni 8.624968482574992 2.4804137570918416 10.362422892897353 0.3199812446211973 -0.42624982337314976 -0.1758439158479294
Ni 2.3423994647805007 5.191952056652117 7.0574727591091495 -0.6237048897329517 -0.6636834870084184 -0.29220587428014194
Ni 0.43713097094100006 0.1612774191529154 9.194699456959187 -0.17393487175067465 -0.35668219958665665 0.20447854886548655
Ni 1.5839749746201002 1.1537821608855732 11.307615537653383 -0.33199420992167344 0.9199211707240672 0.28766890564173686
Ni 4.01489233322727 6.709270197148128 1.5647998569205974 0.3647878594129266 1.0605247753124638 0.11086211165990584
Ni 5.8258596318495295 8.077106687973334 7.967050733180094 -1.0545919547677967 -0.7594064290340405 0.18393723437902515
Ni 5.087906765488204 2.603198388330976 5.124991170645248 1.085390428205892 0.43414799517430386 -1.4093473696453855
Ni 1.0998197184253438 7.363505039167627 7.008482512275042 -0.9933858155721215 0.704250095576871 0.1229360121053044
Ni 5.166554251013336 4.615074509675924 7.275369691329975 -0.5891677751880305 -1.2140348035498834 -1.0421030782721667
Ni 8.056364394842408 7.135736796414159 9.189205771753697 0.3170049356016928 0.11426419536291935 -0.6311451480610807
Ni 4.507763141907662 0.31984543829399226 10.362237935520588 0.02532922279340799 0.0409720715369875 -0.19003614818791142
Ni 8.035261209269013 7.110176589176268 4.400363355490995 0.07928973617026344 0.38878062278309816 0.7126624880102823
Ni 7.045892622861414 5.885379817923787 7.0374017259212165 1.6626041163558398 0.9485529755281472 0.7179576749709505
Ni 2.414081726165975 5.185762751263768 2.860811533845554 -1.4680867924681233 -0.9586319570307038 -1.4341220054869042
Ni 2.1636945495807405 5.1963188552059965 11.387294273332873 1.444890299747002 0.2829414182590804 -0.114509478604506
Ni 0.9967939484114061 3.2685487175785313 3.9104951719319496 0.43320080076968615 0.12012605346033506 -0.9236461849841382
Ni 3.796038133802795 2.5701767298450306 2.5015810010737756 -0.37082840918005167 0.6802581035376478 0.08898048109546612
Ni 0.995034597754368 3.272374177468707 8.130806581181668 1.1300098666874796 0.49813735354207117 -0.16085181331447138
Ni 3.7654254323703324 2.7265875144112472 7.0852298990905735 -1.0605047207078058 -0.21873814410829429 0.026088469556935716
Ni 4.191837897769993 6.772525620001944 6.119504278820248 -0.1607047462136458 0.4061319695773522 -0.09795774489341193
Ni 0.7981109298276488 7.298120350903242 11.114200646498574 -0.4654874287175338 0.9197303948695 1.0690672655658362
P 9.15809684321284 5.637347464525665 7.847862395130166 0.0595277230519878 -1.2145446533067663 0.4628047396790481
P 8.576789341505336 1.5943325877189705 7.856353292070364 -1.2773721301559486 0.5625357744227989 1.5845793629409288
P 1.8215414471866114 3.2891286091103464 10.375126306872273 -0.806230845586747 -0.452367346395808 -0.46654389500650617
P 3.8450924390454415 6.24987216250677 3.865650677030708 1.2997088459799357 0.6983465856082425 1.1549832488033658
P 7.166746479533338 4.1547020654398965 10.470084326334808 -2.041279532384136 -1.1370184367948288 -0.08538376488314327
P 6.235454509430119 7.717666837584924 10.264719384178731 0.5391467060748972 0.38156662153316223 -0.9712275343075274
P 2.521889321042632 8.43334361793483 5.789681066723084 0.6442251211734905 0.390233810289857 0.1348754438553677
P 6.738385194944343 3.8368550690460785 1.6133552283615298 0.9780317017135542 1.0835037527061404 -0.4181786163292411
Ni 5.2577337266032185 2.718268943612329 0.40310603146498974 -0.469578568067772 0.6189979711755855 -0.07460364354850377
Ni 1.537483005718986 0.9412526015153732 7.045218656225103 0.39578713600791837 0.346329652707739 -0.6308343016888813
Ni 6.8184130940619205 0.7736821203968984 9.395244680546089 0.43951234481001084 -0.2886274129002642 -1.119570930742343
Ni 2.675088162870871 1.609697583457103 9.067600356570333 0.4000330557684659 -0.12730354504538077 0.699083463774267
Ni 6.2499804302395106 2.0728128102558965 2.6854475804319535 1.157363061889452 -0.6457749821591137 0.12341526573456808
Ni 3.971585240130948 6.811114044412979 10.372326683749817 0.07167927081285719 0.5475218175124699 0.3674075564239608
Ni 7.983049095154761 7.4294400884067775 0.11877872512772478 0.03978036522173149 -0.8968038679803136 0.2524838731001716
Ni 7.699053809864567 3.7004918596590346 8.16527180943749 -0.29017907365810025 0.5640660950243963 -0.2397209170075484
Ni 3.1178941674697014 8.351610502026583 12.231190725105503 -0.5876855342155491 -0.20221237853912916 0.6113736218611083
Ni 0.06627067921064672 4.912125079072444 10.141819267358006 1.3532458986661275 -0.038499184516462726 -0.8005947303468922
Ni 8.85559679793503 2.1897780508602125 5.827011780972114 -0.7157323851848577 0.7368781660245374 -0.5595165279805009
Ni 3.6562735131454778 2.846268470645145 11.444208815972502 -0.6614967637697445 -1.6046252258482105 -0.05019179036304259
Ni 1.1522754349382638 3.4877096755791057 12.797331721918235 -0.4727919327987471 -0.2752607617853711 -0.3764305858581775
Ni 3.190668128493646 8.368545379889458 8.04530394371183 0.7954314409783978 -0.7242514783994624 0.41791147871078344
Ni 5.567704245440142 7.732932587901377 3.2546787187833286 0.14015931796212636 0.24843695672430766 1.287902340263311
Ni 3.1788128117585273 8.414135117684399 3.573844777054372 -0.14152765906456272 -0.8194627708959888 0.09483205478023668
Ni 3.459803667465163 4.020206474442632 9.108430825280209 -0.2934955396258429 0.825187846305224 0.5646294237270341
Ni 7.38173010751233 6.127231888244622 11.328915409607927 -0.5323250551673736 0.003499528512826231 0.9405337047680964
Ni 0.6551794779876626 -0.04929971210352554 0.1788041606214394 0.39784376142663097 0.2682254522051445 0.11014117433348128
Ni 4.445608441003378 0.38645355193834774 1.5366204727814845 -0.06839082986957255 -0.7876325137592693 -0.07616815982214624
Ni 5.865620956698591 5.392283451466853 0.300813775340371 0.5358623788966707 1.3442303254310783 1.3808973418348087
Ni 8.101521061706386 8.999592882480302 11.286526787777689 -0.47872989554973683 0.03325130585396208 0.39244213079508544
Ni 8.896819737176093 4.794429031272128 5.607120918006645 0.7644745875855673 0.32412432025529336 1.338794242017172
Ni 7.724487704747594 8.901357959640144 2.313540700618439 0.6423531009617581 0.08963636951191015 0.5088516546357816
P 8.5633821872676 1.5305628931346362 3.690208229510871 -0.7694625277184618 -0.20464772745349916 -0.6129394236863315
P 1.8206482383914997 3.2658781135042587 1.7571582354500794 0.32576339852061315 -0.5787360383317453 -0.5997231821063737
P 4.823706430667453 1.1502815041936205 8.263623120090344 -0.8459438479056527 -0.4334154878836535 1.3331334441869687
P 8.716057735054257 1.7257696152663078 12.49929320946045 -0.7911335849339923 -0.2299733507024814 -0.035255994988816694
P 6.113120993744071 7.759936364909147 1.1497356543743857 0.6991371998303378 -0.5292243047548627 1.5014298867049434
P 1.9490447471110326 2.9995394909618778 5.896470944911977 -0.3844082047470154 1.3072025832538197 1.2496242706187188
P 6.887136037419148 3.9430206033094994 5.954916573738782 -0.5685812092859305 -1.2217992779866507 -0.15888851894051345
P 2.326971312864936 8.581535077123807 10.05486403780723 0.43949460419819797 -0.6787084996623408 0.43063458270440674
