# total energy = -381176.0701112441 ev
CRYSTAL
PRIMVEC
9.14850733330209 0.00000000000000 0.00000000000000

0.00000000000000 9.14850733330209 0.00000000000000

0.00000000000000 0.00000000000000 13.38976522758956

PRIMCOORD
 96 1
Ni 7.275331994677255 1.8011580829025133 10.913234023499724 -0.7643457753171868 -1.0373128559723748 -0.9185420309883536
Ni 5.654033561865474 5.075985139129822 12.757352581013688 -0.12232846042829257 1.5619148314638778 0.568258278728873
Ni 1.6433829290131556 3.0349531993921604 13.321624266868788 -0.22966816075723673 -1.0631161901887238 -0.11981494997781944
Ni 4.627918705635732 2.403825138313352 10.530461400212277 0.31828637341727767 -0.2111575035475589 -1.176782089846012
Ni 3.974038307335375 6.474471680895835 3.1086746143629713 0.640547158101271 -1.517840723962799 -0.8575048132703749
Ni 6.258127784387918 5.548020661293174 6.820143448385829 -2.184115368737161 -0.42073377865092704 -1.731284452441373
Ni 1.9963506309358738 7.955120965157518 8.580817557555815 -0.46105381842621235 0.16821828098187158 -1.020533322521191
Ni 2.617634898347458 2.0964352988907375 8.38967871302984 1.6574760511006552 -0.36034859269465036 1.4266748051802398
Ni 2.3206835055552357 1.7241459499185974 3.7468177507057456 0.9955589119640402 -1.3752815383099284 2.3903355828841026
Ni 5.643119392864547 2.0238144493271446 0.9935123213859813 0.6926443930171426 -0.0844720517021513 -0.945303615352914
Ni 3.986297306883777 3.7734206945764903 7.199515571574665 -0.24775895682067656 -0.37946860135355287 -0.8090336051428647
Ni 3.8028788875211577 3.6253704037617234 1.3164848129957554 -0.6251863593744845 1.3249539936999697 0.004705633005785444
Ni 1.0851959152473392 0.5626084872596543 5.2606111614330295 -0.36555919036131235 -0.6276474193204674 -0.4681996854423743
Ni 0.7485134708590316 0.7936897138963178 12.437150257361568 1.5660609924217672 1.1957437185501791 -0.7852095061400736
Ni 5.798058509544945 8.560203226449534 2.9031689542468397 0.14374652109275243 0.6241846575828476 0.5146728893032491
Ni 8.924414443629704 5.130912775912362 4.854673603252665 -0.02509962328110516 0.5750673312309064 0.3912553095758359
Ni 6.518091762871044 6.890792794663839 10.87560895824397 -1.3247220801948216 0.008325232036243727 -0.3161664988607974
Ni 7.201695660822713 3.6068904193678635 4.509672421334982 -0.02319109340448264 0.6875476952205256 1.2013299543887053
Ni 8.720338695177317 4.690082811554681 2.718216330239245 0.4700951026928743 -0.3393835604072091 -1.5910364314201824
Ni 4.89007832582902 5.008487453556605 5.071520667652494 -0.18210069539091864 0.31206096133285616 -0.7682703071825737
Ni 7.655049931435442 5.57623465726875 8.333803290909078 2.419152507115795 -0.7667191606453699 2.524704776527013
Ni 2.107523289527053 2.4773333930681356 10.908507904718602 0.8535779674121429 -3.329239979578892 -0.5605333992807895
Ni 3.8384482832257745 6.836048128023811 10.078717266853666 0.4412041306901369 -0.3569544794114369 1.171255503600828
Ni 7.337779704317099 2.830063233805586 2.0996757001146507 0.8546596305120958 0.021998358647962114 0.8396050501718185
P 0.6768038126051558 6.562489467951935 12.794361951739884 1.2619699366682653 0.10368307741296336 0.6990094160032219
Ni 6.820587150981424 3.134992124811395 12.728484466778625 0.6355522759898409 -0.46390157228765266 0.19442964926991677
P 1.8076809684831183 4.208139456174223 7.642476223241917 0.30802690047279857 0.6514512066082846 -0.31813185011728434
Ni 4.081304553383892 8.521468447279435 7.703707181434046 0.8087597826561878 0.04542650776391531 0.4670450030126408
P 3.2815329119504266 4.125738852493286 3.5982716108047668 -0.3787571771088251 0.09155364113928104 -0.0929795749525302
P 0.5589984863478638 8.422188847951631 6.85250720719361 0.5214343763967987 0.2547577567360129 1.247654805597174
P 2.656241598417798 0.3176142109862673 9.929850014352576 0.20284152748269582 0.9028788705297999 0.79378824894802
Ni 5.255707561613669 1.2266318354102448 12.33005874779915 0.27233767460130515 -1.2248306086138068 -0.09911988352231316
Ni 4.788685421355185 8.906016795799976 10.22435784089153 0.8443582485860877 0.9225802056134691 0.12245007360782138
Ni 4.199713681111478 1.5903947757412573 2.4758879289422793 -0.5915637862240328 -0.318566880772174 2.6383069128259016
Ni 2.8958135545177983 8.472267775957565 3.3676862332543145 -0.07475533863501964 0.542279081056292 0.34690892224997677
Ni 5.508041685153984 4.049916025435707 2.900423487258425 -0.258187094132536 0.3935726448551028 -0.28037931395885907
Ni 3.272329513781999 4.165681234603975 9.623813239133847 0.09527068497955204 0.6434548186663692 -0.3225911714402186
Ni 9.091996797157785 1.7054464013537218 0.9531728940660387 -1.5899611960781328 -0.3092332620760739 0.6106732533599741
Ni 1.5824630200632988 5.834487864919375 9.45313411594373 -0.7633294182375305 -0.5111607623849327 -0.19089078287872285
Ni 8.623254737559673 6.211141051790461 11.072746478892249 2.105575880469361 -0.5281544687294518 0.7804696774622429
Ni 3.8419155674264043 6.018327115609775 8.039643107640899 0.07831323118960705 0.1313705160259028 -2.0139384213670217
Ni 6.151831280094722 7.349096407631557 8.658772901624387 -0.9005962451432103 0.8716060285584473 -1.4011347519276063
Ni 5.808533550203841 6.903097536747869 1.4210824395157133 -1.6130013657270477 -1.6514997789125623 0.18906092875883568
Ni 4.702103949917814 7.403941707849967 5.131841349385618 0.5207759168771934 0.0056438285493386675 0.824618089844683
Ni 7.275606449891026 6.756227403352314 13.182223889541344 1.7558400302935502 -0.5141085321593468 -1.6134543941040667
Ni 4.406899921986596 2.681958051948065 4.888737154684395 0.6977704013897983 0.28101309088811605 -0.5542745628552712
Ni 0.2255884629584093 1.1264373853698735 9.690641253985465 0.7816418433934732 -1.4942364542802975 0.9850556984398713
Ni 6.741662980008242 8.900271533325053 0.48510599429380236 0.0028037879973822678 1.5786534843747972 0.10706664917321561
Ni 9.004161980244199 1.7750573920729682 3.573205616131135 -0.09424944280388929 0.3902335531795409 0.6169804265249245
Ni 5.775187241730763 3.8823977114575077 8.852616044856711 -0.06671369927746575 0.30908130987924193 -1.1075075718199054
Ni 3.3421692171793875 1.1733875239388276 6.164098513299538 -0.3117691411240502 -0.9273400888959579 0.5245428401187935
Ni 0.5092397560913279 6.195359876998675 7.1570838806750805 1.5053500476949557 -1.3217228883571819 0.9772233468796458
Ni 7.790905262251687 7.399285117722999 6.559471375451176 -1.7645560700103096 -0.9883176570205946 -0.6434453055846724
Ni 7.974561542799573 0.1466880781037545 7.723698499205066 -0.9707721919376634 0.19202618203474672 1.9809948765614653
Ni 8.577686023566697 4.716467106105122 12.990268083329047 1.2218100766199282 -0.9666928796619675 0.10526841962221226
Ni 1.393793357610543 2.954290812065101 5.684544747980306 1.2024059610617033 0.47126726862410445 -1.2375686250057654
P 6.888588004446552 6.375274418132161 4.246885213552874 -0.2922950915598385 -0.6604413259220369 0.6003088794065145
Ni 5.210879876697871 1.6634456051397566 8.010131853354903 -0.1435161502495012 -0.06404617974763163 -0.31459786882209684
P 3.4830836724361296 1.788075717712801 0.0961965524264523 0.8029416333125139 0.5257183484841332 -0.6960521331471109
Ni 7.88887662506052 6.987638891096214 2.143259188061357 0.510177829646373 -0.8581753569748382 2.3825988763614774
P 7.726499772086948 0.5083477766465748 2.3457257141103405 -0.10193575570455347 -0.3446784902575612 -0.02278048822962528
P 7.042850131599651 4.773617830119202 1.1595842563876122 -0.2540396476230657 0.4688260061724635 0.47110657467652417
P 4.553038174812097 0.31082052959474243 4.39682375623838 -0.205137265495408 1.2974097655331138 1.0641294619445867
Ni 2.453785135726653 7.698569379832269 6.071749822970143 1.576589402756917 0.010967297644781111 0.4126134635366378
Ni 7.778344361968137 8.349970532701567 4.336878163297407 -0.3380134195325598 1.204040668451649 -0.11120381127004074
Ni 0.742531262049554 1.6542239099570784 7.379247142565638 -0.6331241261643226 -1.126695457602266 0.619628662781049
Ni 5.95355568516001 9.140117944638826 6.250931568682864 0.1128734856629798 0.5461681316980529 -0.300609782073121
Ni 0.47225966058793223 3.4618042448618143 9.305511975262442 0.45494153488088745 1.2929496728792311 -0.057227871274217565
Ni 7.408278100227537 4.492154859890744 10.438085264361506 -0.4021025367029849 -1.7833307795146514 0.8199101428460526
Ni 6.584162281332654 1.4784993850871502 4.181181550227002 -1.0705489923176852 -1.1488791927881568 -0.8492436017028471
Ni 0.6185095252003671 8.534742931118787 2.832899271014545 -0.44020397156039676 0.37157557175872136 0.48320798592574843
Ni 0.4966623884949526 7.237896303519001 5.041916098593815 0.3781056595677553 0.20616313565676106 -1.987107160106791
Ni 7.749178921251492 2.4109152313357494 8.546847320896765 -1.4367239618861256 0.329949925798135 -0.6012139077192872
Ni 8.012427213792733 1.6591366582835647 6.130276482455924 -0.7672315815054142 0.8974098769954286 -2.230226818383243
Ni 3.0776126881191734 6.127569439197438 12.187953156914645 -0.36840745844338485 1.500875299753054 0.951296085490923
Ni 2.0481311812671836 0.7240174281793293 1.1662498586793775 -0.7508924780257584 0.47357766192483597 0.8962001729580437
Ni 3.180826145511017 9.029091662161656 12.312250263828314 -1.0108875719013106 0.2662984103857607 -1.210955136183295
Ni 1.795961730855131 5.151396283366744 0.958519281630282 -0.15264562335459517 0.5763474834949106 -0.5615872944666006
Ni 1.581813476057376 4.4779197828031965 11.517541406238198 -2.228777744641542 2.5520140058649274 -0.29343100493649465
Ni 1.629211891475488 6.172863697976645 3.135240049354501 -0.7878034921194949 0.1272536656440518 -0.08946976202705881
Ni 1.5315973204445565 2.9161598343652955 2.29852765099828 -0.6071564984559673 3.1662022143566952 -1.5795677686589507
Ni 2.1461757321330217 7.622719107253313 1.078927358164828 0.5849907609922054 -1.5864341567614808 -0.4779480230783898
Ni 5.075344743631024 7.630348962196124 12.559518858973144 -0.2992195865938137 -0.12196284955875769 0.010961384107510155
Ni 3.73508844971992 3.9229255980242392 12.289019459684093 -0.11409913053996477 -1.6140102666075367 -0.21756700661832856
Ni 4.253506903010436 8.963551757113335 1.0433250278345587 0.6247891239360659 -1.0432317925599712 -0.21538234026218392
Ni 1.4039573490271657 7.819110109720136 10.964276289305994 0.5808625977564448 -0.11689083435248902 0.4216971710054609
Ni 2.2122553991017586 5.2630355158213336 5.266864166053428 0.8662915583240693 -0.06714178795381985 0.5314516514234847
Ni 8.72840767846216 7.486424648095036 9.318579702840754 0.2969264196842628 1.0599030825680649 -1.7243951815207075
P 5.119321617384134 4.676049001623897 10.687442463683125 -0.078327115146678 0.850471046352045 0.2995612862039486
Ni 8.77809322066169 3.913383705092162 6.780242234557206 -0.6107028210463289 0.10686584601631918 1.1241608641058705
P 3.9959306848871106 6.123891739332917 0.8597181492251506 -2.022877889948497 -0.6929935488264453 -0.8651420181006584
Ni 8.988142944267144 8.16800672597193 0.6106500427287014 1.6479616838523166 1.421338994789623 -0.8843491871567286
P 6.567255840164411 3.245506090889526 6.713467281046919 -0.7673503664714656 0.015644134295160154 0.1744424075147125
P -0.07424745413053747 2.8208415386229078 11.457153025552342 0.41535065996214277 0.3563410141971541 0.9370884265319731
P 7.209645713514923 8.98828017187403 9.766467740445893 -0.6879955813912216 0.46135206639292153 0.7577105293888564
Ni 8.36874326932345 8.633089382719772 11.711103690301762 -2.2232938387088357 -1.029857171025278 -0.9687304789172866
