# total energy = -381170.1336033577 ev
CRYSTAL
PRIMVEC
9.25415755954825 0.00000000000000 0.00000000000000
0.00000000000000 9.25415755954825 0.00000000000000
0.00000000000000 0.00000000000000 13.54439501298521
PRIMCOORD
 96 1
Ni 5.723252124712891 4.5017588787546705 8.126826085868757 -1.0900286983088519 -0.0046097308578694806 -0.009135643752681041
Ni 7.19200720104793 0.4303109136965353 1.170307576210205 -1.4637218306312083 -0.5165117422842007 2.0083907520759157
Ni 8.367118610341281 1.8835449173152294 8.883159112361774 0.050345285221771355 -1.0418652512297477 -1.0117769164847994
Ni 7.6874747858518075 8.531500207443846 8.98652990085218 0.17583003189085847 0.2452629298717002 1.8036643488656807
Ni 0.7208507363612466 8.942227473345051 8.167879378728431 0.8525179015787447 0.9276486212753121 -0.039781393662996004
Ni 9.192071213624004 3.8011636420127504 7.541478423167058 0.6035338141017155 -0.4422037755992449 -0.3539766277300356
Ni 8.975588710610984 2.3749406728827664 11.086913606238609 1.0063500890422734 1.3707785082332522 0.21300921204431703
Ni 3.3291183294751887 7.837864097033127 10.500373082653812 0.6794970570019072 -0.4489380089992849 -1.6925507833166014
Ni 6.339727071094945 7.0999283353624865 2.9719791125714403 0.39931494665551875 1.1534035630210717 -0.5115839659652802
Ni 1.2926669701779931 7.458286324789931 0.8149812487323638 1.0128022724255201 -1.292758897024664 -0.05355582173926905
Ni 4.2810749883023345 0.9666522607073947 10.642250419899707 0.5092679162375939 0.26952720173570355 1.500345909612145
Ni 7.505565814718266 5.7702817523926315 1.0240335888047973 1.333780076632032 0.4113446241265432 0.9063640008649229
Ni 2.356774761994272 4.926996663389019 8.138474293731898 0.9952097561547376 -1.620837573942015 -2.2341999440983784
Ni 5.336196993326596 1.4926955814132532 13.028583885902608 1.1597616440286156 -0.9516861218404898 -0.31493648310843825
Ni 5.97660319062951 2.0141951108576492 9.273629953227918 0.05235228834947113 0.537314795072481 -1.0042636388268897
Ni 5.704151543931509 3.9858303520381777 5.520058591662111 -0.14225271015604532 -1.217266937333936 -0.6407911557912771
Ni 8.719442889173058 8.465083120104708 2.91841049730443 -1.9972105670893796 0.9850814094714841 -1.529663941849972
Ni 6.337034111304546 4.879032365816391 12.922151822159064 -1.7501879742140956 -0.8164280978347229 -0.9594925052587863
Ni 7.0806889422207755 7.1574151608537395 12.41976305306914 0.00048002496021207653 -0.1502267295004574 0.3481965307131487
Ni 3.278331513909188 2.087682374416252 13.770450813617789 -1.3174335169532085 -0.4203095466293149 -1.5424472096575694
Ni 2.035507435246953 0.688571310090152 10.178991929771023 -1.8285089187131864 0.2968893957987403 -0.809571994144838
Ni -0.12475066822840272 8.305874596963768 12.51045657139849 0.7555993965831245 0.13917561389261837 -0.5692764355807423
Ni 0.754131462458187 2.470073410495465 4.638887907861551 1.0687021689169336 0.04968939680532733 0.337611813218767
Ni 7.909926220359011 6.188504885751646 8.644249158998132 0.06110946571681089 0.2808984196871227 1.2740844605436124
P 9.187018443707998 9.027976495399454 0.9603520303798924 0.5066960417453595 0.9480899198487993 -0.5823345543162809
Ni 3.9591135997533664 6.436682877706641 12.471773268237515 2.6918100269503644 0.8876047179795488 -2.58666656294179
P 4.68401025371036 8.492012718008692 12.064412664782175 0.5403808355923145 1.083702756090824 -1.5211366211052513
Ni 4.175299969731017 6.395798010510834 8.776998195428739 0.13864570953107735 0.3600572867064767 -0.869422133533251
P 0.555362342038986 5.22163977942508 0.6340541436942213 0.022146454190052182 1.9786371749625664 -0.4689363064980827
P 6.103672025275421 0.1348210422624629 3.1148586750589162 0.21036560377388286 -0.8407201376128683 0.9625937698919292
P 2.049490467010843 3.881822877521727 6.021918948367046 -0.3517073720798846 0.7112956895697427 -0.1812514600167459
Ni 5.129042680927739 1.655587259181611 1.8909463923680152 -1.6713371253534635 -1.6193987846129592 0.6210671949997885
Ni 3.800145684703665 2.9925723889342355 6.859355409922094 2.875496064550531 0.3093412484088479 0.42079471379584943
Ni 2.9200012869538092 5.630997430037698 0.47031108344917416 -3.192540080920276 -0.667010237388806 2.2260176653979022
Ni 3.1519937576943478 -0.0252286837820757 1.101247501530388 0.24621835180643406 0.3013366329368165 -0.7202043049132822
Ni 8.027389239670098 1.1839491295676836 3.8893270737211565 -0.9246849106612978 0.715375001845439 -0.05940842386530415
Ni 0.6981206750651076 5.006952582938991 4.788959801445582 -1.108370176930517 0.312850547113687 0.039597045566331805
Ni 2.732623108823273 4.266573723726546 3.730166672198464 0.1407758685002027 -2.0001768488065554 0.15842803436432715
Ni 6.695012680280423 0.34192538221160146 7.231488212572935 -0.6140637670987618 1.4218185055292027 -0.8853110368493655
Ni 9.18634289022106 6.228741961932582 2.682968076701828 1.0377224327059675 -0.7248978537342096 -0.5345135781782601
Ni 1.4673762068890956 4.242420373029159 11.96740688572076 -0.2216375771432764 -0.9701628404884389 1.0076641798680066
Ni 3.8571883106418627 7.402391214363794 2.2357053975618157 0.40523285480185045 -0.6069775496759418 -0.3759384767131074
Ni 3.581840112691646 2.8682242765507895 9.366625905907272 1.0629192436865693 -0.009741909878112255 -0.06403846643814778
Ni 6.661734730430688 2.9339380479309227 11.504825799910485 -0.462498778402855 -0.14755818152935876 0.41975521678774164
Ni 5.428812600138648 8.128592704507888 0.3730026934422399 0.29509630845405954 0.5455922045899247 1.3492128662473344
Ni 7.3290705256375865 4.911764320382161 3.3719178818278124 2.758389771753127 1.2727102059039048 1.0592276537675953
Ni 5.99086384711406 6.900353177837637 10.411522067053905 -0.10787834644123358 -0.3632017458727293 -0.5268118386586282
Ni 3.779518167958655 -0.1401977076859043 3.9983049561531505 1.6209357900827763 -0.44836619565621494 -0.5867756208067701
Ni 8.73628545555974 0.49026952461739465 6.002672151899448 1.1074008710387122 1.2571038668252157 0.07165741643598626
Ni 6.8402659341295395 2.835520084457085 1.1535473718239837 1.7737937865584934 1.3100115134575243 -1.1972776386962025
Ni 1.9535711260229425 1.8885606706018134 6.85017250957841 -2.4601487470224983 -0.9605278885018359 0.9870681008842097
Ni 7.663682347291278 5.186640556307256 6.696565527884646 -1.274757575351237 0.7161589311993151 -1.8840987401633487
Ni 2.236424445588324 7.385613427078597 6.394011032725522 1.3381478666824245 1.0432973556905838 0.07591079239570152
Ni 3.408750353517725 2.0404676635894052 4.513642142214638 -0.17046902468926126 0.8798651832434459 -0.18814355915088887
Ni 4.539071641211324 7.2472175038297735 5.258421353249538 -0.9436591377709554 3.0011209363419082 -1.3063003831545243
Ni 3.9388377409878585 0.28161788955844647 6.55444388088457 0.5265917522280222 0.15053706165202463 -0.28992659132766196
P 6.205967480681138 2.5717673456730856 7.014547628770826 0.12907812044730027 -1.1707032306417837 0.8830127277334923
Ni 9.019906870185615 3.3299234411651017 13.500388590348932 -1.9224359451806503 -0.4172561045149717 -0.941570887783359
P 5.334605278261482 6.077788147152588 1.0533988809247015 -0.7320524625011199 -0.846556284678671 0.3526129146132895
Ni 5.260248123911478 8.921868327163345 8.931525965779358 -0.6259985708631348 -0.8100507335534695 -0.02570280408274283
P 8.82354290526306 3.1834301302303727 2.9605206149340817 -1.7619273741382107 2.0372794100858074 0.8388591731447295
P 0.6076437040178712 4.965429178885667 9.949929325249178 -0.6343829382720881 0.7424024382768762 0.3083614009940818
P 3.208610692394201 2.615669068166728 2.240730405005755 -0.184920681338217 -0.18365878390665788 2.7011601007066965
Ni 8.345945098312308 7.733939909932873 6.949290087348309 0.38897474107177527 -0.39192225373587336 -0.7866590941024064
Ni 5.79548082287117 1.5482020172304678 4.917482464212014 -0.22838209495596154 -0.42167171708416407 0.3088319128725972
Ni 7.9141923868998125 3.1030670277567665 5.647728021120382 0.13514258147382532 -1.2011340363278151 -0.42749526574447666
Ni 1.8272148614933916 8.756903718147395 2.8609828984202506 -0.8403714960241978 -0.334106885389302 0.533687739842855
Ni 0.046586353542420696 7.517670252539025 4.665691649225502 1.731987649155985 -1.2647534129506732 2.956747038212224
Ni 1.8175442670570812 0.3025026718779346 5.19446494635118 -0.7326121916593318 -1.2039270256919203 -0.24450805398354664
Ni 4.194474583771242 3.676556413223355 12.11030032944427 0.16128401575588353 0.07831014586581352 -0.682493934846702
Ni 8.026732194497871 1.085373845418806 12.834817562949693 -0.07545493580520553 1.5597311935489977 -0.4616361732922437
Ni 2.335231083671085 8.729909341141925 12.306409805039552 1.1133059236692375 -0.5568207263158926 1.270001291613174
Ni 6.078796850304318 7.1512056212683195 7.056399555410264 -0.5238144465932011 -0.31971616388526874 1.5033201617491205
Ni 1.6748914314248102 6.598121652770214 11.670893504483189 -0.5105645235618304 -0.31176811268278565 0.7081941678262835
Ni 8.871044494967924 7.022720900547045 10.698988584060913 -0.9717042168336297 0.578641678845726 -1.4388327806990124
Ni 4.01849752750246 5.324990208769303 6.034177005199903 -2.4730708544008055 -0.5953831599701229 1.4023889360496817
Ni 2.9564626669337732 4.950789101949549 10.388252488383952 1.2135951449093034 1.069224617079307 -0.005531214230874345
Ni 1.2338475460275737 1.2506901124142575 12.878565666431237 -1.726425581687175 1.2825814422710298 1.0287605955269896
Ni 2.3415054023579924 6.388366922154511 3.609350871677544 -0.6578941340201508 1.7587042392152228 0.8280515410062642
Ni 4.261197058303106 3.93901356997761 0.9418594477367548 2.7157945627904194 1.406524812594926 1.2648161478678086
Ni 0.6208466103167074 6.061972792232345 7.055289056527625 -1.4106239223649641 -1.2424732613962344 -1.8351997004698009
Ni 6.974441961624335 8.318534284225846 5.080664722521328 -0.35562084820167783 0.21136807689646825 -0.8324262730351922
Ni 1.3001165668490264 3.095219502319454 9.165681133093836 -0.09139731806707485 -1.3660888160670666 1.293460551077379
Ni 6.640700030762044 0.3524760470124027 11.139790935951176 -0.46551468241104343 -0.8141650128321593 -0.5285460477409155
Ni 4.738748594467083 5.5102769473375375 3.5041107434013643 -0.5142260315738176 -0.4618511175165272 -0.34550432859296626
Ni 7.517494423549274 4.085488372597628 9.544504691512572 0.8608441620562528 -0.6076954016785728 0.3406233463515811
Ni 0.45407281353779266 1.5157384332280022 2.206612177668158 0.822554265337119 -2.571453859757094 -0.9982775964467839
Ni 5.867913112491267 3.5080382077829624 3.1740473400878133 -2.3564800677872384 -2.7472386402323137 -0.03940678393239665
P 3.1821067857285623 8.566943630114725 8.30471875271009 -1.3700272318895244 -0.8835979108130008 0.25346860561094414
Ni 8.34756457584949 4.967622414178877 11.648626151054815 0.2848805442633223 -0.3404842496705555 0.5966792530737272
P 2.5505012920705585 2.318758683578614 11.565152726294087 0.511313485912713 0.2515366786955539 -0.7810952268613839
Ni 1.4189862180781228 6.7722571317252855 8.93124186314855 0.7483627696253692 1.4404312355343838 2.28583489466585
P 6.182054738074989 5.975104017137948 5.2068312768250955 1.4981375891069166 1.116716492012683 -1.0267816174237478
P 5.418818110194901 4.640700797287458 10.456502824295177 0.037212861604871396 0.20665833012562473 -0.12383769798396738
P 8.932103425198331 0.3369605267904718 10.593734574548701 -0.021514219922691983 -1.3553169222625434 -0.6859063029623607
Ni 1.338465794929476 3.4575290169376207 1.5148046887508504 1.9128246473431314 1.0885451717847898 0.8673773351890803
