# total energy = -340867.87365833565 ev
CRYSTAL
PRIMVEC
9.32728717474358 0.00000000000000 0.00000000000000
0.00000000000000 9.32728717474358 0.00000000000000
0.00000000000000 0.00000000000000 13.65142759687469
PRIMCOORD
 96 1
Ni 5.031175916748026 4.150129714050045 2.9969524513082804 -0.35898307980569144 1.941126836721934 0.8539227523460714
Ni 3.2639068670672695 9.106771280384033 2.3307631028328593 2.232386545038723 -1.4452111734215303 -0.24284686423103985
Ni 5.487793251814876 5.971413082745655 4.7117629734457225 -1.0759305683445728 0.8750510496842543 -0.03653229059807902
Ni 0.8366697693398449 6.579263049224494 4.909230966514873 -0.6118127662810561 -0.06600304636368633 0.36298962986192324
Ni 0.4894325961889465 2.499740897761643 4.654345127404704 -0.4244454231745593 -1.0885233174079187 0.16595596731025614
Ni 7.151538743086748 7.486061891328452 1.5636478453779499 1.03483996895185 1.1085193009138716 -0.3617480441453383
Ni 3.50115573918984 0.7764350826249391 8.45674518755027 -2.2429023569683824 0.2559106393935334 -0.16795371446657525
Ni 0.17985994067125113 8.821412261917377 10.976880198336604 1.0478867748334793 0.9139497836319808 0.15799377504038598
Ni 4.199928099341066 5.069622993760498 1.0361216763538175 -0.2696884099039162 0.38160801629405894 0.15560239199007397
Ni 4.696522186488328 3.6450104865851225 10.81519354365543 0.4649847780495024 0.9931585300526637 -0.22681783579263518
Ni 1.5595037317640146 5.996895230828642 7.271992260128661 -1.9739891346675942 -0.6007840192707201 -1.4636979193718083
Ni 5.3427073025356435 5.61627663023477 9.02813945279106 0.08045444590232595 0.47404945935493203 0.3613407814045906
Ni 2.5825485517443516 2.699615330876699 10.331809693085743 0.876328116624465 1.7199091207248962 -0.465557876944153
Ni 4.70576552790496 1.8978790495365652 4.191166045933614 1.3530337826553214 0.18067013359197917 -1.5584579832635288
Ni 7.409736701810486 3.012200700095274 13.259795251590063 1.229769697786637 -0.5300758541218806 0.16683708436362882
Ni 0.7236295800052379 3.7796498744247704 8.923091815686435 0.47649663534384396 0.30701825670262606 -0.12644016860382096
Ni 0.6218175787607847 4.701820085504117 3.3430162517546256 -1.274697925757895 0.9740518911301999 -0.005369234731713334
Ni 0.253679820901117 7.049255713848813 2.5722698814707603 0.8774869128192566 0.9910512539016739 0.6098517858999433
Ni 7.811966626382499 4.863228787032702 8.449796358735547 0.33590125828556344 -0.5525730067831321 1.1997011605360306
Ni 3.326241126085792 7.143778440303057 8.095760526090618 1.7909471584093284 0.4319939249457786 0.8698990731696696
Ni 2.963484280096211 0.9200268005268317 4.987385237013467 -2.6830009132991663 -1.5938577029190617 0.4826544274151236
Ni 7.048714731202835 5.509115429896029 6.3201053126684945 -0.18119643840909438 0.0355447298738291 0.12777225715168317
Ni 1.4933825942236427 0.9041433634951631 2.803183660263182 -2.3651266877186425 1.384514626872422 0.37316014263702185
Ni 4.672588368047279 0.4401882517457039 10.316137985468966 0.6891394651876775 0.16175375630345046 1.6372165295206706
P 5.166225705215658 8.204244335725907 8.953056657901444 0.3784213910359612 -0.5097749377809995 -0.43206051651765587
P 8.51718414185047 2.194057720922793 9.002010923718998 -0.03419618626573465 -1.370252203416137 -1.8737068554060634
P 5.766679133103792 8.902923423007136 12.564514094962798 0.5479702179037982 -1.3576802802883974 -1.1593320126903648
P 3.6178960632771995 3.780041620478755 4.536232759399699 -0.13799367776937524 -0.06297608661190444 0.7795376525662768
P 4.541558640276487 2.5358095165892096 8.744667344484427 -0.07675514267386782 1.206242046978342 1.4449833736814404
P 0.24138552390690568 8.615316528373569 1.0625169658340683 -0.4708710616269503 -0.5339831595960869 -0.2301600127919907
P 7.612036229545446 2.144865609286748 4.818080054310996 0.6130466386881571 -0.8043161450625372 -2.9469729895445953
P 5.07132055999443 3.7734845377180153 12.97789292568547 0.08419077301630662 -0.20110988950356976 0.3266743403706568
Ni 7.69465733778816 5.33701765746587 2.8291359036109505 -0.723460864177367 -1.4074200707156856 -0.19684160114551907
Ni 8.79968901049524 6.556924196860383 10.553577134246327 0.5983633256443694 -0.5312817015045237 -0.9177295623893872
Ni 9.075291686760286 0.5131453579281041 7.351744294890291 0.6353717845479186 -1.3242811360026612 1.01256984469974
Ni 3.248460879795884 7.174409250809839 5.688904483186084 0.4095415094795334 -0.9624765275877747 -0.5792996241446992
Ni 7.278968138075683 0.22167137010448923 10.628073242783667 -0.31918857351657287 -0.3553740222981944 0.5216940578160887
Ni 2.33829488708506 8.354758766038923 9.945897857119581 0.3096333257279699 0.5271517384965502 0.28226367546576553
Ni 5.1017088610392225 8.726507116696148 4.217403704263571 -0.11213635038663912 -0.7682240273256704 0.8679635467098537
Ni 6.619864729533881 0.3658105997532602 8.224903343701385 0.011807534157889342 0.1943329757910524 0.20838045502305402
Ni 3.141476897910136 2.5160543227239947 12.683118010992684 0.36283330678971704 -0.18608102019490533 0.8024585230285083
Ni 5.933432370083164 1.7456204165546172 12.189236298904916 -0.9371038531509409 -0.3331301232983295 -0.4380794690182262
Ni 7.252693170597728 7.2265487851377666 8.475529410838824 -1.6810026734676855 0.8664602226914496 1.956987715013591
Ni 6.218408969782837 0.9354429404798191 5.967311874651918 -0.4240137349537795 0.22251972263791353 -0.705613808693617
Ni 0.6412696357985115 3.3286755479926953 12.993414463981551 0.5470471918688965 0.2187545991685265 -0.03157880324754561
Ni 4.656843907591905 7.457287210934596 1.0509623226989275 0.8542636806252578 0.6820712454869866 -0.7015758911788176
Ni 1.2228819439473941 1.3086183660479864 9.303010869755335 -1.6270269905821784 -1.3093278571269384 -1.0152324791335678
Ni 4.850021348641227 2.6035162929195184 1.310162964775125 -0.5054891659214521 1.2521169551335856 -0.44715057808155895
Ni 6.554937484729462 5.077066168786202 0.43249230724230975 0.30959064541549264 0.3368569373306134 1.0501729997644949
Ni -0.08505553014961931 1.4360477610369213 0.8771203475998371 0.08876707953307938 0.5539331203554524 -0.23672918136907614
Ni 7.952976551242894 2.336420102398135 6.797687590724413 0.21652185318326578 2.6683913909161077 1.5507711561422324
Ni 1.6566940623001516 4.297724703532179 5.537346329457808 1.1452027723778342 -0.11495247967919557 0.1400752428887523
Ni 6.628912197923522 2.5775491259125505 2.80499968304201 2.283035220433526 -0.539526200901503 0.5319005660354452
Ni 1.5292273581632179 8.32565763060008 6.754084389458546 0.205387176722685 0.9373424515243083 0.8332940203521261
Ni 2.8726644865808204 5.052899168170163 12.747361565660032 -0.3926804720581366 -0.4117570290736134 -0.4026797493626936
Ni 8.578249889837041 7.197914014048905 6.803748461816772 2.06874354213236 0.8978729326747763 -1.6125313680691649
P 4.504809129497947 5.745291664013642 6.870421774747522 0.6988986014569706 -1.0507103603252035 -0.035033080344733215
P 1.724009092576476 1.7814745077811918 6.722222377067813 -0.0012642114244042744 -0.7637528789281943 -0.2998793316649997
P 5.770941703262623 6.314424062157022 2.580228855467544 -1.5159753886192857 -0.5463457949264978 0.04860876214663887
P 2.7394801555131143 1.7814371986331934 1.1397319785317992 -0.2927715169756248 1.011346256705284 1.3667989547602137
P 6.603112922082547 8.146321883458208 6.121641165347784 0.37719214661455036 -0.5306471532443183 -0.35479629541785346
P 2.0228367134705985 5.073782963762333 1.3431311934040147 -0.9150702703896693 1.5572207684223183 -0.858236806340393
P 8.601819944085104 1.1603984483368779 12.193018513783265 -0.37371292981669835 0.7078128732274649 0.7444117553974212
P 0.2866545786309064 7.965018078759416 8.939718637491975 0.022361141304019554 -0.16731479533099572 -1.1917878192262248
Ni 3.4258938603898312 8.394819463702332 12.163435157606541 1.429552640948667 -0.7951216230474629 -0.1970696579959251
Ni 6.119670309604762 3.6876921518954258 5.05874084801803 0.09596796815689279 -0.44528087186267185 0.5053341284008265
Ni 5.95441876583233 3.534789936110503 7.510251277433291 0.28020062228914966 0.9537610020916477 0.5166441540970069
Ni 8.310230297902693 4.997896156733349 12.288004806401391 0.49861892116417994 1.1363486644213139 0.5835134051157306
Ni 4.546586047969287 0.7339287703102286 0.2063634266806977 -0.668213513668288 -2.5356484200227105 0.3299424695989673
Ni 4.147685964856143 2.4829517811623107 6.542623600432551 -1.4984407221696323 -0.29599490900892894 -0.40622401507052625
Ni 6.547830092035744 2.2882913014800472 9.960327170108007 -1.5487217298123714 0.821510654563953 -1.9261000242957993
Ni 1.6308108408761803 6.072987238171617 9.537569752307212 -0.1611004389901677 -0.14231004575654202 1.220690361193188
Ni 6.933569373192412 0.9903526790466365 1.0660128330015293 0.3247863793193245 -0.6699104417547366 -1.8159583357416855
Ni 3.453213484011745 6.458390736996299 3.295905057848198 -0.16086981103660034 -0.20109909087029237 -0.7944953023173736
Ni 8.898175833924325 5.876162827905441 0.7398133556782948 0.956116646808018 -0.5305401953528089 -0.4127193929868828
Ni 4.182971091575739 9.056637112761027 6.730372560448088 1.7061120669408036 -0.7820401072731563 -1.1490866808132725
Ni 1.4021524000802688 6.962717145066253 12.159449607871599 -0.8033272987867068 -0.06460462335426292 -0.6470021696979954
Ni 3.045060732194968 4.511478139702683 8.260724789423461 1.668251030228972 -0.8911183875597621 0.05944287664766537
Ni 2.26257597122207 3.499765973426895 2.6955430373726608 2.448176148041654 -2.7498030585253805 0.20299913610648265
Ni 8.180954100087831 8.117397966472359 12.872585990002253 0.1552123556405069 0.2682609334287703 1.0421483296878051
Ni 2.013938481672952 0.27904444516790883 13.5507888841332 -1.3320700359194606 -0.3876488231715001 -0.1216183217351454
Ni 8.248763476575137 9.301142614169308 3.0200915848969605 -0.08788133449401639 0.5141406709488628 -0.697597880367676
Ni 8.479707102685957 3.1133551276062534 10.841649460501177 1.0557474085284786 0.7108771139750855 1.7019497080329977
Ni 7.69996456409095 7.202764203288713 4.1789202508318 -0.42956474667899563 0.9184872664910182 1.28794424924484
Ni 2.3799225689644055 7.169913498476018 0.5802934297671352 -0.8685605568639041 -0.28159416020256667 1.1821153291334674
Ni 6.75826301403438 7.298602077209903 11.203207750111305 -1.5266338967743966 0.13259230424814583 -0.28119975297762534
Ni 5.160330859831893 5.870547801131664 12.246394846367343 -0.4799277725125799 0.08525623816634348 -0.6168431296161119
Ni 0.3474908753572883 0.015381628991088627 4.884508059593656 0.37140922138418614 -0.49413260325805214 0.15394403045104454
P 9.099701196838316 4.698396971175253 6.53182540027308 -0.19643922350077783 0.7239776559127854 0.6425209939981902
P 3.6218321783910437 6.308790380809245 10.54066257266664 -0.09665033893589807 0.21768913401848963 0.37289223368761587
P 1.211614581251842 4.864469316203652 11.347039179289089 -1.4409773378458408 -0.7992253608031913 -0.3003889243115666
P 8.267763160193383 3.6652973358093157 1.4572076443242805 0.45835133189338484 0.19173204783309558 0.4691044566448308
P 6.960655814639336 4.918912690420488 10.692999554859387 -0.933498909408502 0.56414554211208 -1.4841194204509538
P 2.093929294981773 8.098090482383126 4.085039241723132 0.3089951779233388 1.285098809376245 -0.7097949366545002
P 2.2368979501120902 0.882507788570823 11.347475696320673 0.17509032551135653 -1.445268509022027 -0.1293372876459579
P 5.518946390393639 9.727147793303375 2.3858733780701686 -0.9550691793801099 0.036878875304220356 0.7463539667254566
