# total energy = -381172.7787867446 ev
CRYSTAL
PRIMVEC
9.21585337455516 0.00000000000000 0.00000000000000
0.00000000000000 9.21585337455516 0.00000000000000
0.00000000000000 0.00000000000000 13.48833296639604
PRIMCOORD
 96 1
Ni 3.45740112693775 4.937614635390811 -0.11659989870435684 0.45834387569421714 -0.09808270050705044 1.365012295173436
Ni 6.662527483115463 4.296154375875154 5.926584451451561 0.3099467432033307 1.154075906497748 0.29651684295067
Ni 1.599227039160854 4.823301189913077 7.738526289100788 0.7158385717454188 -1.6413583196031858 0.9495433644658744
Ni 0.1793082515267283 9.176556993406743 6.139578490297719 0.5272977771561113 -0.48248293483426585 0.5838779875440008
Ni 3.3979865201177764 0.9986483052933123 8.908976533332824 -1.325492639812259 -0.9234150428099388 -0.9794278107301324
Ni 7.559985718161636 3.7618191961912584 3.5047549464232577 0.21893971859613903 -0.4718390819671745 0.3538717267210551
Ni 8.247018372702076 7.6609177445137915 8.965546206210602 1.151976857876874 -0.19596768318099797 0.9235073454134289
Ni 2.283743765725204 2.7985044728039146 0.35204559958476705 -1.1045112081957429 -0.5162116945452787 1.2842603726353496
Ni 1.4598003931891803 8.004982415060852 12.868962381847414 -0.5811603315025217 0.19316980872088668 0.8441124511238688
Ni 2.0295520974595744 1.3910501268828357 5.291648094552292 1.4737401340991587 -0.8955645962565738 -0.5388088631195043
Ni 8.430966806411812 0.61239806584313 8.339916939652188 -0.019116409114476755 1.0399567213531251 -0.8258460487145132
Ni 5.409162205913162 6.463225437654202 -0.19807172903339285 1.392284243515512 -0.517259933304135 -0.1346738693675229
Ni 4.259954503750311 3.9168298502492633 11.145166495553907 -1.741341836677375 -1.6474618613977627 0.721897376344989
Ni 1.919210684793909 4.062219153365737 12.020221912588806 0.10351878392095722 -0.11925753481245267 -2.050911656157261
Ni 4.9516043008402795 8.191400697479718 5.771131436430727 0.6268894581085204 -0.056025880546316416 -0.8247222195227152
Ni 6.035149047583196 7.0439071440478305 9.045370241953101 -1.5582479241352518 -0.05214222922119407 -0.8066861879566107
Ni 1.1735928502388002 2.1041359989632267 7.211685441395487 0.10322464971930609 0.86063847380335 1.4272936697111613
Ni 7.322889457938669 2.1658914325448375 13.027840929574158 0.48728755531176077 1.0502210793936104 0.3546435718900731
Ni 7.772153094958508 4.30466060855622 0.7336510489252447 -0.5117780842539573 0.1504308750914635 -0.08846111825688636
Ni 7.466011661120644 7.426659967135645 6.3730621359909145 -0.46842002898329654 -0.33758661640778637 1.2401268726512449
Ni 5.093795702829635 8.965504734870338 7.932785419585797 1.185835458297532 0.4852196170391385 0.29974666274187733
Ni 6.391194327540209 2.429151500548462 7.1974146924175555 -1.0993594887914744 -1.453626136958103 2.910888842227529
Ni 6.902112023754342 3.4791136775299414 10.84414723303147 0.0074484858582452365 -0.42454749597006236 -0.08495876153058272
Ni 5.596760117566238 9.150512991720186 10.363342337776581 0.7262299422820718 0.15004958049264483 -0.18469905224571417
P 0.38080367009535 6.476791173847625 11.41693003148258 -0.5061784786789928 1.8198412157358597 1.6749271566975672
Ni 5.733274553865955 0.20566467064328525 3.554040408779786 1.878450540738636 -0.7687212786770633 -0.3785697436883674
P 0.13506570414645103 4.169123052716085 6.279641951738799 0.6678106218029143 -0.8367051029162041 1.0756652304983283
Ni 4.079895160172113 4.230436125334866 6.984447379546234 0.5185681105925972 0.9940838700804104 1.3634374944871486
P 3.854751861798923 8.000973518835213 9.820801362232208 -0.28163735473567625 -0.36572939739058946 0.10151075235199292
P 5.621864102206786 4.174809234259116 12.790217522537151 1.3017886113270998 0.7674776360779492 0.3257106909058068
P 5.4573519033013485 4.221588906078286 3.468579035517236 -0.23314712044477265 -0.13795279722911083 0.8481660523679523
Ni 1.181979276825767 1.5035849126558616 12.078073510673452 -0.428277652436456 0.38308485794990155 1.4236375610158127
Ni 4.3589512008900915 2.134935381000198 3.0532868772719888 0.40229022723375873 1.0430104205777844 -1.223557141218022
Ni 6.489748663717159 1.995481087468347 1.6894677539926366 -0.028147151858177333 0.37630151647948096 1.0064963848121504
Ni 2.6092753551004066 8.107508784049871 4.7536662016810745 -1.6908659394150105 0.03449006335706964 -0.008162224095818202
Ni 0.8783887912068845 0.8315796286568596 1.057219661527893 1.0603286001412577 -1.240726968129089 0.41312614150699817
Ni 3.7051140502686124 6.033269013491172 5.447614432607075 -0.5097713382365736 -0.4208019128847011 -0.4998638493148746
Ni 3.510060513221189 6.807935217938722 7.758057447195028 0.7982899934731155 0.35810479096579617 -0.5266843119418284
Ni 7.076300868721663 0.31335744704401175 5.764198349923721 -0.9438879659523098 1.04127004084791 -0.2151990206067842
Ni 0.6569484227267092 4.972100358784691 10.13155901703426 -0.8299785828256481 -3.2156303870808363 -1.0439262475238344
Ni 8.222384396584534 2.3810170982806285 5.9763565108672 1.0147820218597103 -0.5002479721271706 -0.4260780736819759
Ni 5.31669033297511 5.799002020259634 11.036612958446343 0.9633807845695987 1.7742241892276926 0.1819772824391769
Ni 8.58691747751583 5.736251274511658 5.171466915219698 -3.094387189296922 -0.9164111006882799 -0.4510650826446167
Ni 6.092748131284893 6.270798418823576 4.707347322531518 -0.45063185176194004 -0.10186787858109553 -0.564775462386595
Ni 4.609272210730966 0.323035014691236 1.423262299244842 0.42618580290443375 0.677057337212163 -1.0274315923029207
Ni 2.110900435353154 1.9405730329571944 2.922031928503242 -0.5653614167970521 -0.36763072817836046 -0.941201163148766
Ni 8.907555448739735 2.4591675350470896 1.8921298996007199 -0.01078346376874917 1.3720193226188886 0.11244025478030312
Ni 4.526532278975154 2.6202237889304247 0.294787502458585 0.7289573685155639 -0.3105188136567168 0.6070788511404964
Ni 4.189628326513889 7.3604348446587835 3.3510686104977228 1.5104675714271794 -0.48852348460139094 -0.8879734141728771
Ni 0.857146249137699 5.648562429484195 0.1974763849042521 -1.0004460648530125 -0.6711589694498571 -2.106109127265012
Ni 0.7054357921794666 2.109988065867319 9.865136989731747 0.5397149198735415 -0.4723188498170704 0.4672442635076405
Ni 3.972502820591975 1.9123633057234515 6.751733257611293 0.46415791127283285 -0.8961135267815082 -0.017407911063802278
Ni 1.5604098646726072 5.235203757280647 4.5347906051999685 1.9303220327969466 0.15445850819361787 0.41582322872318705
Ni 7.9379094340719005 1.471025302620967 3.7210666924906346 -1.9504727967132083 -0.28345101090564734 0.1664794439138939
Ni 2.9799369785375616 8.837579473932218 6.88658976188574 -1.9472478620180076 1.3784709917815035 0.6964493685855295
Ni 8.569822069473165 3.3543955335723328 8.553262102512592 -1.3247547332049703 0.1956054147455728 -0.6508117732520727
P 1.0743841884709986 8.520047245301507 8.198060073140972 0.1810722541264043 0.0800664664352879 0.09108107237823669
Ni 7.9726900647743335 8.075566636192258 3.8210292110659236 -0.535725081987858 -0.6343551703579462 0.5805540653770904
P 2.101122414903954 6.151296447885992 1.7946768579041459 2.1546266152494247 0.3221350577394065 0.2544404826059102
Ni 0.4043603129513349 7.517786325478426 1.8473353226022453 -0.04209152985341138 0.6258401909083996 0.6560172287124122
P 8.807609518700552 0.2437031055198854 13.024172098338692 -1.875289626512151 -0.717246507836539 -0.6007909612492556
P 6.9936530954997735 1.7730748975526618 9.447214626928345 -0.8547791868090955 0.6656071863936924 -0.14200099915655545
P 5.830317490086572 7.691449866802387 1.7101988161985509 0.3753566360677084 -0.8370390892168551 -0.010845941575568417
Ni 7.735510861870836 6.758519812049362 0.5297558221332755 -0.03441678691697298 0.09801688026612151 -0.034069173769567127
Ni 2.564136105185061 8.759226288391126 2.302809523223135 -1.6184616175106705 0.939111370499273 0.9122094039021064
Ni 3.599620176487282 7.484756706920524 0.7775765709488278 -0.9840519397657053 -1.6856653690506773 0.38205975911949686
Ni 3.4103357636634204 1.4539483262850879 11.031406001279707 -1.8826003012409513 0.2979265788140031 1.4334738303799441
Ni 3.293598548743518 3.4197727975371057 5.059446374065961 -0.3662767852536273 0.4607077479407033 -1.9294095482850062
Ni 1.8708182386310923 6.725960202014466 9.584540058326581 -0.3422549684177332 2.248306044482457 -1.1643484920683496
Ni 7.390625980371864 7.467421686689661 11.688085321087364 0.5889325192487728 -0.49650136060054495 -0.5073894682679585
Ni 5.384380776141344 1.8893328880961653 11.687006144655129 1.6323630580831112 0.08416840441880344 0.12099097256379163
Ni 4.391142176789295 8.429400111335125 12.389950891662664 -1.1396504751010372 0.7812160687099642 -1.5723995330452856
Ni 8.359608453595454 5.64229564917745 7.859840096815291 0.5460251783622854 -0.4248022922933459 -0.6897812125367346
Ni 5.724676162650965 2.383855581125448 4.973985000803411 0.05966193463700693 -0.15019896158631552 -0.6718354266915914
Ni 8.053319566103315 0.4857510437705188 10.92258243966775 0.45222670705288576 0.33839522835201075 0.129003558455623
Ni 7.270571058230744 5.875401444881564 2.7528611157080123 -0.19860229259036766 1.0821127858958848 -1.172438982385968
Ni 6.237409381983376 4.68702636580156 8.431246968354937 -0.7777831317690153 -0.2932407433025595 -1.0691019754585136
Ni 7.62329863096654 9.02313146613221 1.5836245993677387 0.25815315557080704 0.6467296327628992 0.10487195551474196
Ni 7.416946457660192 5.5413544069719025 10.140164780931963 2.472486699762561 1.1140656846533974 0.6238601843638932
Ni 0.7462537284391758 3.1003513189609797 4.385461524758299 -0.9609572627297709 0.15750089456436747 -0.5747994222815004
Ni 1.642753514732552 8.952353712079567 10.755542332176814 0.3084922701449913 -0.9706786037825927 -2.4116577414006466
Ni 6.382614368032004 9.401184203989969 12.923509174905591 0.5240360756857039 -1.583529581520176 0.5670282629765138
Ni 4.627906666290139 5.429778069951673 1.8908350721991054 1.4108324388313445 0.5170758423177869 0.4372276625408921
Ni 1.3103929779936767 6.772315944577592 6.6445150976602685 -0.16503628370946416 1.470777966147041 0.10540031721438622
Ni 2.9385393650994787 6.394217127452873 11.683013836965596 0.0671718698608069 0.491804726455824 -0.5993529432511484
Ni 2.868544958585177 4.119468034638527 2.4496024008112514 -0.8034280860306292 0.1837917099400964 0.4429655934659339
Ni 0.5619965636407978 0.40453541416578803 3.8538597671905515 1.463121478043048 -1.5984363234286796 -1.431711853383515
Ni 9.020422005234883 3.3908165861785893 12.264617128698452 -0.14173951796505266 0.8409960169820743 -0.40508630192165723
P 5.437980179470794 6.127067969317711 6.805889298485637 0.8650774834113102 -0.235349270302414 0.8503147232798388
Ni 4.6752024258992755 3.039471391451635 8.99611150557141 0.3485582849279416 -1.2977566073495714 0.18973455778709258
P 2.872618365784561 0.6375647182867447 13.401549314142796 0.6412729805237021 0.03808215158370216 0.020386534076151985
Ni 0.414009311453043 5.0764883301589485 2.4920238955612155 -1.3647790961167074 -1.1607674595853106 0.16467375816372284
P 3.995883440648167 0.6021629390656734 4.581905734082617 -1.0153535780924643 0.7822275406936141 1.357949989010016
P 0.6120515497555805 7.170523753804246 4.598995612613245 1.0204073384662877 3.2095646405027307 -1.4364154295067713
P 2.4625497532420537 3.0817260792551995 9.183356450039563 0.42962028250727946 0.5112443232376743 -0.4287630767133067
Ni 3.728079956922153 5.276573723158553 9.326804894431623 -0.18510965742057153 -1.5278261173102847 0.4804959863112241
