# total energy = -381175.4521782682 ev
CRYSTAL
PRIMVEC
9.13074526031938 0.00000000000000 0.00000000000000

0.00000000000000 9.13074526031938 0.00000000000000

0.00000000000000 0.00000000000000 13.36376863836364

PRIMCOORD
 96 1
Ni 7.283102459720789 5.07664872900066 4.218086575279518 0.7079931075590711 0.049444113563740656 -0.20560366360886528
Ni 5.995658242708367 6.873606794834915 5.242032092337817 -0.9997726929350718 0.4413923354415431 -1.1891686364358232
Ni 0.40560596739119475 5.991622453289004 3.3246650621800025 1.1481497708213 0.19128107633860605 0.10501568018145784
Ni 1.7537057253828554 5.059756850209212 7.50589447101111 -0.8088407724057682 -2.29221585849153 -2.411701193044072
Ni 1.828851759141568 0.5816704765717235 5.224284662712446 -0.39928589318979624 0.10008558986969215 0.9521946860457923
Ni 0.666254961739474 1.2272269518072332 2.397821369011181 -0.2633982060198302 2.0026407369660153 -0.0324465505644796
Ni 6.257820201551642 6.019069473638785 0.8722290532752173 0.03639293680673732 -0.6031746309900837 1.058431640228861
Ni 5.264102929859271 2.5875071240193224 6.968523631375856 0.8011387757758203 0.8472371127957796 -1.4321342856329142
Ni 2.790291846224334 0.2900481680416332 2.8855848694713337 1.0948088933063145 0.7589153483302349 -0.35569541019335515
Ni 6.273735090596774 1.7767699879921517 12.83031419119926 -1.1465425742351802 0.45417714591103714 -1.7151566936415752
Ni 1.603057558799016 6.717699318962495 5.616283993468497 -0.25119163665130934 -0.38390555407898397 -1.275825354494119
Ni 3.201650183149914 6.14686338475506 8.695028866531834 1.315399260131999 1.5293047587383404 0.5965481268125017
Ni 4.038501250714134 1.2758390397454333 4.739220210560809 -1.15260009328317 0.2808374845422002 0.9489252712659012
Ni 5.1140573924647486 3.626448977146311 0.651790948121348 -0.26753408256507477 0.12512813466061676 0.7255074622937505
Ni 3.486027245290267 2.5644793843911966 11.620625574950198 0.82912703345863 -0.9031146406896898 0.7203732263909787
Ni 4.632410578276158 2.5588913682720795 9.192014419737589 -1.4646728816905679 -0.46227689220003615 0.6666608244691873
Ni 8.385913876170036 6.1989177636685975 5.8126781070431655 -0.09968089823210574 0.6645604902967328 0.4079646519107168
Ni 8.373203878722634 7.486937217634459 0.9359954391756694 -1.7472114080842749 0.5654074395436391 -0.03818782392363101
Ni 5.691650078188762 3.7529737146669038 11.015647957944392 0.32527206070649145 -3.359823251682388 0.7487294089361686
Ni 3.2158941458064865 5.043631954022348 2.0335913739137417 0.2756178880144737 0.5773296449025218 -2.2499206972677444
Ni 7.985667656265643 4.324905338309461 10.701358574225237 0.47691418249723677 -0.009464744957325636 0.49566498074217863
Ni 7.598724932252675 2.1355626242678034 1.311494600113328 0.2084676154202216 2.23210783745604 -1.8522366013474294
Ni 1.3931325937751322 8.504659218701272 1.2189590619447164 0.520750977176529 -0.7717896331897417 -0.19229563364604946
Ni 8.36000995177472 1.977609861449824 11.923207517055085 0.46975880239937806 0.1953403340096442 -0.8118595046274341
P 2.200865714601013 2.4309878882122926 4.022681321420046 -0.2000444243535329 0.34830117461181304 -0.669743320049253
Ni 1.3604171333914787 3.8391862117203384 2.359787249494545 -0.9700484263977617 -0.4215025384961515 1.764800839031264
P 6.33298449680094 8.048651537294512 1.8638982987984412 1.3506616828787188 -0.31852008669463855 -0.7467002943212818
Ni 7.108760009102459 8.635110176697715 6.082184837399868 1.1317327629158571 1.2838821633603241 -0.06737910077560655
P 4.358679965147064 4.494901554168478 7.460831503768173 0.03127644151577839 0.4171697154487526 1.1862185526685636
P 5.119481055168597 5.137459492649874 12.469358481363773 -1.4971181467034669 0.8196219221816723 0.18845414841277222
P 2.582613044542448 7.133011268599803 2.6968350158556915 -1.3160731462705721 -0.623069827252114 0.05961822588326507
Ni 0.8912922232972635 5.906350423000715 0.8516867025157578 2.152141386933726 -0.5694736391932128 -0.05318146911898583
Ni 8.074336323802807 1.5389962498256105 7.763307529227665 -1.0943437807444378 0.1803567161166184 -0.7407134806102276
Ni 1.1765239231970108 3.218067263186143 11.276481393347582 0.5926935289531018 1.456817133091575 0.7133250612949457
Ni 8.919724638215678 9.190825596700481 10.211910451258586 0.81420280804863 1.9642752498139397 0.4828639723227684
Ni 5.808249695576219 0.5520549042149332 7.9815104279338875 0.001637021382790729 0.07954427538323075 0.4935865009465951
Ni 5.161610313948998 8.061096743128427 12.801768742190772 0.34882233722260575 1.9120911116112167 -0.6430598972207958
Ni 1.618908532627099 6.222000287768479 11.386345259932632 -0.7120287110810254 -0.55052100935011 0.8626313358636627
Ni 6.7345364132821866 6.57102302658097 11.979322338400276 -0.08112910337184738 -0.91247679863088 -0.17228730884492263
Ni 2.642629433351199 4.909126945115958 4.235753654346314 0.2860460253263332 0.5271589375854018 -0.32663988758829554
Ni 6.75939943271414 3.419062359313791 8.783403524070573 0.9293527484506123 -0.06407214788956062 -0.2441391006799021
Ni 8.339511428592665 3.031982674121433 3.4492823870089557 -0.39311138894796815 -0.0650036585648945 0.12327102684721995
Ni 7.4970540834187425 0.7514119446370752 2.8877634652981654 -0.0848903701864925 -2.2610237491594414 1.7149744024274398
Ni 2.712260496953136 4.45688113076978 12.994874874385548 0.4754481394746715 0.5538235913607816 -0.20182388485145886
Ni 1.9977522855654644 1.018078100133227 10.429085228044855 -0.06724128964616162 -1.551689554191444 0.9240187378322088
Ni 8.633777087884985 1.4423199186667708 4.996859711260623 0.08580054070558771 -1.6333825004865612 0.6048257934402615
Ni 5.994799952650855 7.872793382957599 10.005026024417164 0.42480126385208133 0.053542966223462635 -0.17690552434322437
Ni 7.182107286038515 4.104324793529026 12.914786368199913 1.0032395684377495 -0.024790576681118594 0.08805616950898384
Ni 5.335907110840865 8.941437550521657 3.4465422503466243 -0.1818664678929255 -0.692381369163743 0.6482607246954448
Ni 6.345758409465392 5.16393865399863 6.633627981680193 -0.597318686429939 -0.7698728757830031 1.446652019633115
Ni 1.0194294504365429 8.53684509585795 12.203058468753857 -0.3489483212775087 -0.688170159295873 -0.40077687591302585
Ni 2.977042979695409 2.612634935064763 1.3448492126674685 -0.13773553901198216 -1.3357192026362736 -0.882198716472629
Ni 1.6178128431919783 1.599295691738434 12.951442658251883 0.29618388509128346 -1.074147765412537 0.17060657870839002
Ni 0.959869598892426 0.20781850208486358 7.933427923222663 0.2842295409428847 1.56693413905534 -0.8375214281699126
Ni 0.4050453396302245 3.3381456945301076 0.30865754002263346 -0.07285297940598422 0.7825764393926006 -0.45125457294760346
Ni 2.930832277769183 8.107763982319288 7.041690119555117 0.02490061989642163 -0.8179183092270043 -0.020722063038699792
P 4.889011913236194 8.753545073888999 6.2751183985086145 -0.8100959849691081 0.01871428858005164 -1.1956115638476892
Ni 2.987598121253741 7.219899440804895 13.221363924444873 -3.0908300680732834 -0.23775813685422278 -1.0511163375143704
P 8.704878201479042 4.1689065549841136 7.552667626847366 -0.06043995045361204 0.0982279678356631 -0.07078786934683938
Ni 4.33128772926904 7.286636058149054 1.3836850116208017 1.2337955311165782 0.40183077109883697 4.097097881814395
P 0.13464288316031012 8.218428615266506 6.191487163149419 -0.24309266169325874 1.9603322060057917 -1.632086664493273
P 6.84368534251082 0.9727348190098046 9.885874363720404 1.1151378346716536 0.4037097332891047 0.29832432847305396
P 1.6871791151804276 7.979002212201991 9.35465125489071 1.0400292264622735 -0.8647326984773818 1.7239948607584956
Ni 3.8332786195159776 6.020503000649734 6.023517972745375 0.37454982389569685 -0.8093709338776254 0.19918233346355374
Ni 0.7864767457845337 5.01171999922445 9.65886394810487 0.128529704142998 0.5713114637329 -1.0464161038252235
Ni 4.739304213417501 2.476760314364471 2.796448707775185 0.8771423849956441 0.7394852646300814 1.28231379043194
Ni 3.836145673537877 8.915588410598096 9.158110136316827 -1.262309322285555 -1.1261827796319055 -0.6042935750858754
Ni 3.2621139784780055 4.517600586966067 10.320023040896501 -0.8584880031192506 -0.8032581361116682 0.283518373808473
Ni 5.370476112518931 0.8832188183094806 1.2556372657853905 -1.351347396091834 -1.115480562723053 0.06756113487942558
Ni 6.207144565177298 1.5813903002194987 4.789147125821153 1.3348864223223331 0.11669260229875388 0.1593106940795966
Ni 7.861106028982975 8.39479809133981 8.46927484146857 -1.468983850361096 -1.285433052787212 -1.3034315462471617
Ni 4.9501239914800665 0.697992519302282 10.85395980722718 0.27201217294108637 0.7142984809518085 1.8575886096879621
Ni 7.439968663848941 5.742490067978375 8.837232919869008 0.42817377986874006 0.8012907279726522 -0.8376798081246477
Ni 5.185934619408683 4.0494672758106365 4.7542010243625 0.0042454055399152694 -1.0605993373041411 0.34126097993558
Ni 3.631060003519112 7.167772015929016 11.11960423232508 1.5020209833217228 0.5456788507664603 -2.112610418718639
Ni 5.4458412841646675 7.034061381863087 7.576481523645191 -0.1908658431780584 1.140119958538288 1.767614397220659
Ni 8.587328986581149 6.975588089008799 10.685135065989211 0.24595378529113768 -0.4290412700753578 -1.006307408729796
Ni 0.4099038092004567 2.695094695802908 9.227642587869603 -2.0151270423584844 -0.29559921623240704 -0.874330626578462
Ni 3.384228566022237 1.3040895656809688 7.112638749702787 -1.1403094488412748 0.027630103012442737 1.2196428937652803
Ni 7.247994744070455 3.2857443472954473 5.9317622002247585 2.6797052732670297 -0.6526963918692954 0.17187284701532335
Ni 0.5397174411754712 8.427887912280463 3.778178223972803 0.7368280295128923 -0.5007133417993634 0.14239514927118058
Ni 7.706020320186895 7.374839057676292 3.57296381044541 -1.9550850986742392 0.3456061442781531 -0.5309870530822405
Ni 0.4550790846104939 6.946104912458752 7.773797842494419 0.6092938565139442 -1.0210241461146803 2.4572575415176328
Ni 0.6337376385286716 4.338784071154326 5.074850885252531 -0.9795357970629066 -0.7087916922009664 0.574150732953908
Ni 5.317609097274345 5.628081829461162 10.117294929312303 -0.17907862073514322 1.7400370018230225 -1.4611368435128513
Ni 8.262858821860661 4.648818527567095 1.783742225097638 -1.2974136221878558 0.7635487333371882 -0.13353384222580875
Ni 4.821453528815695 5.8402712193176285 3.4167285408169827 0.7855900294079439 1.2802060000603177 -0.2754235126154805
Ni 3.2126892542087577 3.425198220150468 5.914590007552825 -1.0350063193263852 -0.44570047589859374 0.3113173982986122
P 8.71890302624859 5.822776711336864 12.5900596295367 -0.1343429683906654 -0.48249501901912384 -0.3816833496166846
Ni 7.430262681602827 8.876654912670132 12.071946444798227 -0.22823631340671657 -0.3850620362809304 0.01216337483541131
P 8.74719920591059 0.5684993764870403 0.31245866928797394 0.46887074336746987 0.03846344618252086 0.04453896295263943
Ni 3.528320857485936 7.837539575382581 4.510726048835212 -0.03766177621683191 -0.05032420217584881 0.5363706859916569
P 2.4212271214944234 2.5273355125405956 9.131249309814837 2.156248467123564 1.018184876893672 -0.8849166296244244
P 3.5192631581556024 0.5993129026262295 -0.11088833620688768 0.8094794344310319 -0.22338155641757657 -0.1792269733875494
P 6.2370934097372706 4.1986271309117695 2.654097649438799 -1.2016030055444338 -0.7538705868174759 -1.3359202629034865
Ni 0.9025139092619606 2.441442591572405 6.6088517043285195 0.6498818052386356 0.7243635784972944 0.8691226000149612
