# total energy = -340873.5304073451 ev
CRYSTAL
PRIMVEC
9.21780251480497 0.00000000000000 0.00000000000000

0.00000000000000 9.21780251480497 0.00000000000000

0.00000000000000 0.00000000000000 13.49118573017126

PRIMCOORD
 96 1
Ni 8.969613023604047 1.0737633603715933 3.227671565683021 0.4067829728977897 -0.9443116837532897 -1.659993161095554
Ni 3.61861423369236 3.080930604701946 0.9131053613995745 -0.15532214174549377 0.6275648869089901 -1.372065859586108
Ni 2.3848759135030257 7.1745289757868935 9.150275497240223 0.933372925353599 -1.0057703052794034 0.19558304614806962
Ni 0.81683463363602 8.37330417165536 12.844890511324245 -0.8404614846348429 -0.6408099248443544 -0.648920726876947
Ni 4.846296457736477 8.932566675951641 5.639247765478647 0.03355675290952285 -0.6434239654284338 0.48403588114368246
Ni 7.083475524154532 5.587380113424573 7.630803739745771 0.03305410224149146 -0.0011793650200818398 0.18749769803677388
Ni 4.917789732778044 4.799184269915763 2.207710674079171 0.5145880428989267 0.5574395908468142 0.98310988756741
Ni 2.812775516481957 0.16230337669183836 4.169639709806957 0.4807304709195333 0.629766008325367 -0.5659735964597543
Ni 9.21310127273027 6.215914402395607 8.87013081350108 -0.47391576199054514 -2.172384710563794 -0.6971731341254316
Ni 2.2748522246303926 5.379703026435595 7.1319399635802725 -0.9866284422436299 0.23100796261458278 -0.3656869741884282
Ni 0.9110525568157997 2.456747118441022 6.6993715437100905 0.6052821642513898 -0.30180071705742867 2.4326364005348426
Ni 6.523789000950061 0.19017432388313316 1.702236811847105 -0.2883836723205743 0.2556915814041919 0.8845268503851734
Ni 7.392198160525363 7.803192313990856 9.149196092584813 -1.5348220890121438 0.22221736090614633 -1.8680661121805182
Ni 0.39510266221076507 8.417144039641137 9.46649497226388 1.2078847247880875 0.7663306669576996 2.0006391331549542
Ni 3.93984542785476 6.663706022850003 11.318268504545399 -0.08435249540515151 1.5518867578039144 -0.25939371284612744
Ni 7.194826576565844 2.5842385427705628 10.589865779552852 -0.015404250370212182 -0.7101916578722867 1.6229124541931728
Ni 3.852645017605505 3.7359292042253704 8.018297106115018 -1.112683202483574 0.2968459441553146 -0.533209514654856
Ni 4.991255617522923 2.1159096586760677 5.287613493818877 -0.8899019986541576 0.06421278723248296 1.259654144050895
Ni 2.482907241515799 7.265398071372218 5.154442059680077 0.4238993208631022 -0.2592780132038696 0.7298724241306656
Ni 7.326641150198439 5.181317484217364 1.0581530120886002 -1.09912269019032 0.07197391923514056 0.931759301009576
Ni 0.09640807301859812 1.8695270196113372 9.722044715767604 0.8466151629410645 0.47493057640830466 -0.24209970165237013
Ni 4.62624907999121 5.431857352142814 13.475036993926633 0.8375049731096802 0.1673559329815763 1.1635501645367703
Ni 7.617195498133617 7.5816516522645765 6.111897955315726 0.11312082578709551 -0.42349000123982544 2.6930125318988978
Ni 8.0818833502991 7.543213416457029 11.352252698256494 1.1751345269402602 0.2929628070508245 -0.2596485091694109
P 2.568190348875853 5.193826042008932 10.332062283374082 0.5101734587709988 -1.208345723584906 -2.5101831858720702
P 2.376745811828624 2.7998798109916074 12.279919422031412 0.6355481622247828 -0.8711470866441577 0.9792187800431201
P 5.998577058541808 3.736307134121799 13.116116971287898 0.10446520699462655 1.0675585422307938 -0.6789414416087532
P 6.286375283573758 8.847818201127998 7.401817859059838 -0.12511887868923616 -1.42967862500357 -2.1346038922705945
P 2.273165366799989 1.6288686358071551 2.680145167341216 0.026729959795676543 1.2844544909240267 -0.41813490757549926
P 6.027373473089236 6.917149498516311 10.556258593957953 -0.10607240358074636 0.5054146039297748 -0.06138688774791362
P 2.722948032562402 2.9371697592212493 5.739757760543853 0.9143704161091671 0.26663676756178595 0.2435878561621224
P 5.250497090868596 0.8819796081978132 3.5110268099813418 -0.1350191685220836 -1.650931565113918 -0.28647848487806143
Ni 5.604626621625033 4.334800605227895 4.7181911277702975 -0.03793482737256047 1.0174479987276477 -0.920744180845995
Ni 7.813313460973274 4.836525587243431 12.139436427067062 -0.506540747114418 0.6336638007178764 -2.1010983043139815
Ni 3.3667746556352873 4.71380898453219 4.6086559824223166 -0.964456791242597 0.6754465410816174 0.4684693941639932
Ni 7.571336931432766 3.9786155045469767 5.822930912945551 0.8905221487366599 0.891692000675045 -0.3027553676612141
Ni 4.944023598271636 2.0419091413947754 12.31828852432132 -0.44714389321333964 0.662089403048421 0.23548553876996217
Ni 1.3870211554995742 2.333772417263927 0.7570931348129282 -0.5017626089994842 0.5450131921580034 0.28817644140577464
Ni 0.40159476040722925 5.979616039103888 2.4331891809701953 0.0570455800600824 0.06500982921248159 -2.065614509585075
Ni 0.30868023448001247 4.6688445446594775 13.7430657982544 1.9716296332964818 0.2241670284333494 -0.5145849575751331
Ni 4.601904863979763 5.880275783157141 6.504060138576226 0.26089292309947326 0.31353523188553745 -0.38865823827262097
Ni 6.762797398133247 0.5913717970089942 12.896318474206131 1.2267041714874358 -0.37941897906254013 -0.8044048481216018
Ni 0.9008834772611508 5.444273731910863 4.4276183442304164 -0.22829210634531652 0.009791017948492815 3.545380023942707
Ni 7.910837809856691 2.9242832715332514 7.9394544772582565 0.48552326432248644 0.5456852785243634 0.8803799180963354
Ni 6.53156882613509 6.724617260791555 12.728083441700825 -2.8665540248658954 1.0221801140959943 1.2375930504857975
Ni 4.663212467422448 1.568547337216127 7.717228011036994 0.4660186186306555 -0.5480074988996367 -0.6593519495126
Ni 2.964048870879476 7.438333261296772 0.0877359645659026 0.5578039161647683 -0.934104918423617 -0.06858854770267542
Ni 2.7169380254289432 4.924094709586763 12.44869461775454 -1.409993230759501 -0.7043470261660515 -0.006184531544157091
Ni 7.356138117724614 0.2909322778316069 5.11975639121 -1.4754787140568202 0.2645819419152863 -1.1453274708811565
Ni 2.820536906062282 1.0972871919737182 10.757466627256346 -0.794504044068122 -1.7268117613820002 -0.5226955024974095
Ni 8.868042059488133 3.4103011183410996 2.1077684956388434 -1.3282938567064801 -0.3629747174635878 0.8871378056454593
Ni 6.87878500512758 2.2393360321684073 3.6855898638012468 0.9377605128983333 0.8156410831570533 0.15608730204629248
Ni 2.7366825580667773 7.035754961378593 2.6356111988383377 0.05530957120558216 -0.7070387140656016 -0.1171551437574692
Ni 4.5848888008381 8.41132760635707 8.815072880053004 1.3973518878464064 0.7995503482427778 1.109164133586722
Ni 0.5795241556460589 0.19229994910548817 5.261805490793943 0.2233645871367121 -0.6244723640265956 0.5839211820771104
Ni 5.995194125078649 3.8379794940635845 9.111097071903817 -0.06738038632718718 -0.5489942882929384 -0.1649907751835094
P 8.61175950069743 6.597826389440761 -0.20323502803558244 1.0935927615110264 0.8483853674676098 0.8688086683189682
P 8.965400487929214 0.9686804135595941 0.9656394605636925 -2.7517146737257967 0.05253149423981276 -1.0046436478741279
P 4.842821346249799 1.5534301413589622 9.848120285655888 0.3846406324727956 0.41422760210129306 0.6254357563811292
P 8.154759295693456 4.511155599825014 9.88376368379033 -0.4628703028096609 -0.44535234853055555 -0.5840124562393362
P 8.164060058266553 1.872200182293397 6.085536884149677 0.5312410780745754 0.28963939910454634 0.013792168688085922
P 7.072570863972199 4.3777002573737755 3.111175135998862 0.42279760315849124 0.5059239394660254 -0.32150539457520755
P 8.20718093766888 0.394619649367524 10.851581311049783 -0.5911786349704722 0.6266421179844046 0.546460209017175
P 2.3718972477915092 5.379592412807373 1.07482248586183 0.05611509782601303 -0.05304185821732801 0.9818425908192123
Ni 4.851734961124116 5.844630541462229 9.01761657291219 -1.056383499450581 1.0424877153050949 -0.3771191272847699
Ni 0.08264220698622622 2.9784562959555427 4.620771861833693 0.9030819876795414 0.3850838906578013 -1.811964126980628
Ni 7.761721421209524 6.414622567696157 4.268003800484636 1.0970724925295106 -2.72778464527276 -1.2643273811568483
Ni 4.133548326478213 2.799759979561032 3.129145241683949 0.11439172207971911 -1.1170029129048504 0.814678719243784
Ni 4.9368152768324265 9.147304599542197 11.336724388414435 -0.017309437812725027 -2.0640011423513682 -0.6908086253599843
Ni 5.358188675746192 4.919780778086061 11.206466701599078 1.1524818225377507 -1.7252238480695903 0.5654202950594456
Ni 8.644731579710283 0.5254128904995257 7.963388501065042 1.3250028446600344 -0.4355196787108499 -3.590818615891481
Ni 0.6087335277388539 3.865752732549949 11.16997342208779 0.5031792868413528 0.21400397185741854 0.3912807634971326
Ni 2.7396322548193948 0.7565944517056888 6.508512337112208 -0.4975807097076528 -0.41485777948612423 0.4928079709093577
Ni 6.14556413484568 7.853917880333524 3.7880549547452977 -0.6644231933879202 1.0163215984326883 -0.18212512087095084
Ni 3.632182838754401 3.1821236389214302 10.566053430737114 0.43396570396016876 2.5022793576439613 -0.9469555491340402
Ni 7.996185441833209 7.651246060021645 2.1569841859562664 0.5482383839635203 0.0962145369500601 -0.4323441091963457
Ni 0.7454667207064392 1.4541359744239748 12.025827013079528 -1.2580513183401496 -0.405365780835289 0.39277303177194295
Ni 1.0625821661187025 6.531817706798592 10.937101315930281 -1.0391056862067394 -0.48852014216728123 2.30662072106295
Ni 1.8973186937024054 3.894429315666802 3.0619050606475624 0.03880231757917833 -1.1064169098588879 -2.0452207764200714
Ni 6.1070613744216695 2.5292174805318943 1.3385161577434845 -0.0215998376579628 0.4621902460235008 0.4956364414970883
Ni 3.9586220912456414 9.062620649335017 1.8679627585522147 -0.22033428495082052 2.17008845833045 1.4139398741120746
Ni 1.620508089073955 3.629574200688805 8.949634358786474 0.010997636662084287 0.6588001907741879 -0.10358100461746032
Ni 2.894288542680072 0.640131206109997 13.328980915660305 1.2142548899804895 0.8884706655242698 -2.2797511503656156
Ni 5.20332037843142 7.204376219802443 1.7273166084862355 0.8678864136150151 -1.2953590536516724 -0.7786935593984267
Ni 0.9475439927666192 7.663588697370879 7.218850013055443 0.35031743371089347 0.51745816535787 -1.1056190965479409
Ni 6.723787658579881 1.0155898097285647 8.77082189808233 -1.3074087857273546 1.489994648284808 3.162905802993611
Ni 7.990765374050274 2.741558775510948 12.972017832460883 0.6551682504485554 -1.2079693140820937 1.6126817776041
Ni 1.5587580311183775 9.112018852139009 1.444703397277245 -0.9531765903430875 -0.7220668120433178 2.396982141666343
P 1.6864153758902527 0.7742354818468119 8.541242390924932 -0.2053542666022205 0.8418239122000082 -0.5714220211688352
P 3.389376707002219 7.587698530607442 7.332229903764414 -0.9912553994926802 -0.5871962532839565 -2.3333329402468137
P 4.405206179591934 6.639619905304411 4.092213857171688 0.21764311127190258 -0.5986356054691496 0.07873129256363215
P 4.885757869605088 8.700683639986496 -0.009074926415474843 0.9476335490376712 -0.022778431347096253 0.2710518659103461
P 5.659813604306038 3.802675311055694 6.910198353762722 0.4336867392671692 0.363205088306839 -0.2739356152160443
P 0.9148843972534969 8.092705050260266 3.3733091557225703 -0.8934526921198936 -0.41079029428496994 0.8528444316802279
P 2.4631350554709095 8.191685811915287 11.165804210084012 -0.5685902081469949 1.305070367402165 1.0771382154994287
P 9.032386257620688 5.815050613714886 6.530353919785106 0.3404004317074976 0.11620846357348373 -0.5029301469450241
