# total energy = -340865.0742736148 ev
CRYSTAL
PRIMVEC
9.28166456049751 0.00000000000000 0.00000000000000

0.00000000000000 9.28166456049751 0.00000000000000

0.00000000000000 0.00000000000000 13.58465428932010

PRIMCOORD
 96 1
Ni 4.01650109423964 2.8668555639850726 10.70173226987679 -0.7961657480412612 -1.175700683856375 2.0728477941087204
Ni 2.1668695528623836 6.365495468230822 10.109523090778529 -0.07874106275564502 0.419370065534181 1.696130787358376
Ni 6.429520390060729 4.1784290133820825 0.7660009218247813 -1.1365697792931846 1.1247082519689082 0.357476670463494
Ni 7.45962736301646 1.1971676525754036 5.306356376836157 -1.494589209634026 1.7231152863670196 -0.3627327766561108
Ni 4.3202899738413905 3.8433702060266413 12.863431007437425 0.12536647592366798 0.9842072343966468 0.9081231496478747
Ni 8.397623097317506 4.814046681087779 2.081019725090052 -1.17932182554873 1.344777199073484 -0.4753229267507169
Ni 8.676407172713724 8.358751486325385 7.704414557624247 2.585449659815554 -1.086889638459238 1.3006105318585988
Ni 3.0917038868800435 2.7060228812554934 8.630630003321855 -0.23151344149609163 -0.5535230294012272 -1.3997052185699312
Ni 5.05661370154339 2.9582799594655866 7.005986937973759 -0.107651318032092 1.2546417784379684 -1.6442857776626263
Ni 2.6515673555413635 6.363193615430906 13.420415341531816 0.6864961140275596 0.1524849294070148 -2.244599799275463
Ni 7.97217944090732 7.38445516210309 2.4464602049050224 -0.018079483209530154 0.37355583541354376 0.18675387789221384
Ni 1.02774943016872 8.271346051580206 12.73493378754795 1.398597330217733 0.9023721060967104 -0.6410996881706315
Ni -0.0019259453870260675 0.7850171960847283 6.287616733944648 1.7618432990648365 0.3684773924493719 1.8512634388008826
Ni 5.152613957630189 4.583007487960778 9.718054039161933 -0.2567660454152933 -1.405303024372683 -2.073439919166765
Ni 2.04708039062162 3.313869808729952 0.6394584204823303 1.279264462082655 -0.03937181692940316 -0.6590809552394005
Ni 0.5480163898392357 5.050292888008139 11.82654192222001 0.8572698144414334 1.361318648371933 -0.5330189959106046
Ni 5.694904488629635 8.314477946585075 0.7196269414045483 0.7208064572736553 -0.0487008076398129 1.3899363121086257
Ni 0.44214601170634826 1.655793259629534 13.224389371457722 1.7586042233022487 -1.4503739485693925 0.3295889429142904
Ni 5.696241048319907 1.953632592276664 13.780544852910852 -0.01695025470109339 0.27708958746399376 -0.0003211307848446083
Ni 6.291641263678694 7.646745719654751 11.9942309705274 -2.053762238232179 1.1183969650388996 -0.31204219227977875
Ni 7.376268734000165 6.533827735889157 0.12793660735272247 0.2822785878641009 -0.7901647932628199 2.337226361763949
Ni 5.131767339127728 1.50226524687388 4.80350642286365 -0.6607362314546363 0.56829633105566 0.1558070518017123
Ni 2.0082830329456254 7.521266897065809 8.113720183940833 -1.2267177983341906 -0.28394003472692386 -0.7207835744555199
Ni 3.3294815684455075 1.295961689681454 0.25008980954565724 -0.8436635365119083 0.1350281673831481 -0.281132904295432
P 4.22096688185794 7.943972462443839 12.876486596745334 -1.2544659149817363 -0.3524213674277737 -1.4608090278597874
P 2.2724577683939913 1.5052725061769954 11.690980427467567 1.3754820843565085 0.30269314696471095 0.8644406211582597
P 8.468405070914908 4.071327886534402 4.195389398951782 0.6558177111070963 -0.1469763408839598 -0.35065116290122833
P 4.810269043629853 3.948058100100217 4.961821918176548 0.25932352172982437 -0.984329618907124 0.5697785720281413
P 4.2161775429677935 6.045565774036115 8.504075435815533 -0.4205229481917016 -2.89705964965392 2.1798285684363488
P 2.7700570847499164 4.934791854773669 11.740510173823168 -1.3392107607293 -1.8770508321776318 -0.04332437381924797
P 2.220573263750735 6.1738290959797935 1.923967464317753 0.16129584283042545 0.00029207731912207763 1.9074785525398699
P 7.328932244969645 8.054637748465582 9.955514287800957 -1.23376287810643 0.4931018480006927 -0.254492161779452
Ni 2.8641545996109783 4.237720286308938 6.006169748998852 1.4546597204289398 0.49626610466128734 -0.017245160233692883
Ni 7.023816087342136 2.730981277138448 3.2016990367237472 0.05862320895984742 -0.09170302223295175 -0.1952413465379347
Ni 8.579255990226967 6.322289319909826 6.115553237150965 -1.2992301065713046 1.0411497132199619 0.4050143110331412
Ni 4.46604923339733 5.733618311324987 1.2938101998466942 -1.2471565258045167 2.0601912816869743 -2.4908744582411293
Ni 4.39781971754177 6.048146076771504 11.265957230459945 0.8733932023658572 -0.238890193576137 2.7785089111005052
Ni 0.37168332736829 6.15523792195467 3.909446375714538 0.11275958579293482 -0.9530413503168038 0.008893188724571783
Ni 8.438332477883753 7.160005950782298 11.747750800311936 2.402920618637965 0.4939156021512397 -0.9045557440115904
Ni 2.776127293343242 7.095127115816938 3.935501864343259 -0.37605340502441686 -0.42952797990378927 0.5641288299415317
Ni 7.82382131528696 3.447600031073429 11.899396491503786 -2.138612242099039 1.028257687748642 2.153066984071789
Ni 8.011060333563957 2.5521885735708185 0.7179256122988042 -0.7601782742030585 -0.2754692782517514 0.7170996978460294
Ni 0.3623227687041175 2.3061223655927554 8.71020821038087 0.8414809270382927 1.2098562466921616 0.566540781817134
Ni 2.5756804664602786 0.8637749040005466 5.672394595845945 1.101824405392199 -0.08683875216211497 0.010944929047277924
Ni 1.0051392954082599 0.42720717266818703 10.390915313903681 -1.7685191684231154 -0.025064656278111674 -0.6666695662199357
Ni 6.32572353578067 8.337635699551967 5.616833623887985 0.879591103646453 -0.3459894957595009 0.5659473712075092
Ni 7.631133959939196 0.8129949174346689 12.391065752400575 -0.7607344038168447 0.40694160996284107 -0.963152984829509
Ni 2.6225899989230723 4.605868227663164 3.7307399916269053 -0.6080633265409527 1.0948286908006564 -1.0135106113464545
Ni 4.739969716587273 7.677403057550399 9.944673303646518 1.8172477439770705 1.797398827571943 -2.4259870135391255
Ni 6.841496351258508 5.9086333774346915 10.346249159754354 0.12749586356184495 0.3352749375554742 0.9035951798705341
Ni 1.0731831779735037 8.00378350858358 5.553162333476128 0.11746958967409447 -0.17697751523174035 0.3559718037831934
Ni 8.794507072012614 0.8585799563710598 2.5961084818930766 0.9145959018564119 -0.11398445933897144 -0.21042191093311502
Ni 3.239050311068182 8.290948927037553 1.2485509473348075 -0.22195279439085003 -0.22819877530056182 0.24747767813483185
Ni 3.2138041835852382 2.372541956867736 3.3673368371731502 -0.7125753276131147 0.8424124377136267 0.8738292614620112
Ni 2.374741711357978 0.1419881192631743 3.2594068576842092 1.2060672119633744 1.3030258261683108 0.6715171241202241
Ni 0.46615118064353145 2.703461141849136 11.297949271712964 1.5495282848740668 -0.2561806052254685 -3.1164176867344007
P 6.253020257628499 5.3021508546440534 12.50854563650981 -0.7885110597094808 -1.0718396861046506 -1.9574929367847835
P 0.209329379824573 4.336987688305293 9.660237622726637 1.203588925626211 -0.9920807236074527 1.2371364225643533
P 7.2055139519032085 0.4924275728877281 7.400267405772187 -1.5949427084531242 1.6963809556959688 0.014639347179729626
P 3.9673361172995096 3.1570375234066774 1.4610973520805526 1.662204824034892 -0.7914958533694175 -0.27743591505981896
P 9.518346960940878 4.083598247024273 0.07868067010033723 -2.5719009745968417 0.5142041771969467 0.6502319894892027
P 1.7452406605681856 5.956740244620021 6.563778739115155 -1.5721056559539506 2.2079312402098363 -1.90195633717006
P 1.7807523090055914 2.683672633101475 6.812635943613115 -1.2772281483789165 -1.6277291588555256 1.4562340068945954
P 8.353934302441692 8.036473531008184 4.545017635097656 0.13363102992530534 -0.5055696414504002 -0.07407888139328532
Ni 8.413411208658863 8.6146655403547 0.3864912949367786 -0.2514852566323282 0.4450877820152593 1.0986015275795273
Ni 0.49216582994838287 6.481636936316881 0.614576134248405 -1.2469415815802332 -1.122658311418415 -0.2183285673747014
Ni 7.475693924293289 3.7133062411669004 9.606795654777631 -0.6723218794097067 -1.097683643750948 -1.191458460911264
Ni 1.6073058441990558 0.5301974503018254 7.939945148210439 1.642707634542229 -0.09245635545920852 0.8142439456992104
Ni 8.447298565806005 5.778439469271729 8.617723848812652 0.5760870307446724 1.3625211533204664 -1.2869610593959642
Ni 0.47564817977608603 3.077437968519277 2.2608259864228053 0.777234715464713 -0.996958106304412 1.9767875233483376
Ni 6.903674221849774 5.630341230257811 4.110485372793609 1.1543060202306832 -0.4671519609041503 1.5517008670453534
Ni 1.949158829980054 4.9038282219489995 8.364234165554862 0.15312564831480724 -1.0352374615005848 -0.21126420432875226
Ni 5.562742867589325 2.0641215266726074 9.044893894822776 1.588714468155225 0.06360497844515497 0.23709093558386907
Ni 4.220939036864393 7.654987837744771 7.458912674848744 0.5680186519142411 2.6448534556951677 -2.330660021400341
Ni 4.922475085961218 4.435958077037144 2.8817944030232336 1.4470937351562239 -1.9635422283026573 2.8169517884577355
Ni 4.506108897447472 0.6808592850550038 7.088241977079126 0.8405962104404942 -0.2604872030206224 -0.42099268873926854
Ni 6.674129376709813 7.3645552733812405 7.7216803099565166 -1.0661560054563124 -0.6827849837245596 1.2462635816766021
Ni 6.536705051889052 4.901331454194253 7.372201508609346 0.5031692595390238 -0.6203889379858413 1.090894388743257
Ni 4.7071126242013825 0.9867523180024833 2.4169955608996525 1.0857809787760915 -0.8719670114422918 -1.1030065986257584
Ni 7.86174619649847 1.0920899285921646 9.8110953006011 -0.5614332853872395 -0.5866938597262412 -0.04384733620225351
Ni 0.9377265660300896 7.994613224041981 2.4125663505927184 -0.38263002980067 -0.4583379621569461 -0.6278734192883445
Ni 4.741185614638842 0.6548650554120872 12.05970847285403 0.8889560898011205 -0.05036482560579714 -0.6747189188869734
Ni 5.3838851923700854 5.939207180349697 5.776385436914385 -1.6045529778493786 0.7649587263108375 0.13325770574628662
Ni 8.072569924310086 2.739984491718763 7.134048847797445 -1.594615921241325 0.13123707577183202 0.037388210840471094
Ni 4.868845628388994 7.741028867806128 3.214414917110377 0.5199423652323046 0.373472274560802 -0.11124546314125357
Ni 6.712982424372903 9.363714430107844 3.5433125555602376 -0.24104940601098485 -0.6836727856461516 -1.327120148113353
Ni 0.31416299603104686 4.293874356629457 6.041828975902059 0.6635245928330509 -1.14333486593116 -0.06098759542696593
Ni 3.0998439066603902 8.793968735470697 10.96235398414851 -1.143690706608682 -0.3837960250843132 0.0852176716189242
P 6.1955945992693175 2.1307638778959674 11.251842603230786 0.34841893113659994 0.4042329527824264 -0.5710078164495521
P 6.862185181464199 0.6724788701636986 1.4586386391503203 0.7963902053472414 0.6310045087181584 0.264593511879512
P 6.224033619345692 6.265049294840961 2.3374025031774135 -0.5117901684388154 -0.25341641221677 -2.7215240090750292
P 0.8661974184391673 1.1313792144874963 4.498341072414209 -0.3060471510386084 0.20131840596995007 -2.9097853247507053
P 1.4177742547866592 0.6064853072899924 1.199044405140496 0.09328322223587807 -1.2522406251956433 0.8368817377033845
P 4.278875186771943 8.299543748379172 5.31043195572504 -1.8276105752686334 0.6996426787118467 -0.5191738624973962
P 0.335347467121882 7.724544631626088 9.747125140591836 1.1709042909089964 -0.3315800052023902 0.41415046900645447
P 4.010523702291472 0.6732334694888322 9.12320886734119 -1.725951213153918 -1.4967558782680417 1.1097452029011725
