# total energy = -340890.1835546749 ev
CRYSTAL
PRIMVEC
9.08219688838970 0.00000000000000 0.00000000000000

0.00000000000000 9.08219688838970 0.00000000000000

0.00000000000000 0.00000000000000 13.29271318868753

PRIMCOORD
 96 1
Ni 6.165994357156144 2.2584154318361422 11.499965015358352 0.9746118773987279 -0.48690548938199374 -1.2562662014152686
Ni 4.625417610861395 0.084217396230778 5.975433516392304 0.1990578920705475 1.860001847115145 -0.3391948414351707
Ni 2.9842192041360547 1.80178073167103 4.866581728583546 -0.5168698969545679 -0.7393942475781717 0.09285461933889169
Ni 3.513420658235676 4.2667616518033515 4.983691209426242 -0.45756148900223775 -0.13234239302086884 0.7421203882600832
Ni 5.166462249833433 4.274290793106444 2.6847155940611724 1.3111497408270258 2.0217502041019566 -0.1302808825061498
Ni 7.137062859118312 6.347965256008687 2.6970646573058223 1.3466615605803904 -0.8040145546617186 0.038682247061546285
Ni 5.085231079972324 4.357955991760349 11.401293302621095 1.6864017329960699 1.0176416027956925 -0.16883560285089633
Ni 5.543863863474808 8.114052953516687 12.409146518824256 -0.7000720529397814 -0.4789008739099623 0.657214591454623
Ni 1.8723948132531085 6.520200039690044 0.5396042025297327 -1.3016916807379195 -0.6318558009748603 -0.5011568570946853
Ni 2.538038112704186 1.603788837331568 0.2892761480466404 0.6490202285692888 -0.6506801327702149 0.6599368754817925
Ni 0.8448813652299174 0.20865984292162373 4.670580651823865 -0.23260770300153485 -1.1368711125836872 1.1142464332056359
Ni 8.852571801599867 2.2716481928477292 1.5706270114691059 0.3550860587441304 0.2396831217910775 -0.7316002054550497
Ni 7.031164442237664 0.3564317290156701 4.529611331273867 -0.4682480221818065 1.2501768006880793 0.7089030209678501
Ni 0.7489978869679907 7.53548975878702 2.8379013777797946 0.1635321883601119 -0.5165647070093232 -0.004682235967017743
Ni 7.639789708997771 4.134370466308566 3.889766920587041 -0.4047970528160125 -1.4272677015692323 -0.6886265301070011
Ni 7.890140468973334 3.844902683905478 12.447948389016297 -0.7909574643674442 0.012354150689978723 0.07560148868539883
Ni 8.265716561020112 -0.058636480194240025 6.656591932958064 0.177346725645701 -0.659801892565825 0.1876275387464188
Ni 6.743667496580982 1.0068796046860433 0.12949941397379122 0.41288625758205016 -1.4131497741106114 1.6407579670150259
Ni 1.7262713459123928 6.550561824221091 9.342770668954012 0.17748813631957175 -0.4867381105661939 -0.28441620303239407
Ni 0.194169197627192 4.759261947874268 1.2369934133328357 -0.16616037001157835 -0.40484924621018664 1.2750866765558815
Ni 6.413039197428057 1.6248776987378173 6.872173318204281 0.16605084101690756 0.724434540944546 -0.15461226016266275
Ni 3.4557032963766265 4.465716259023547 0.5314783608845256 -0.10918369551621841 -0.861944079988651 0.30979890477155675
Ni 6.248606020959436 5.742654991149219 4.84970064904186 -0.5863467607994676 -1.118783916064673 0.1910784734094967
Ni 5.04429761814719 2.8848508868898133 9.173541184256003 0.7413153758602845 1.8022448428103348 1.1102905338816813
P 0.15309223708964534 5.609882353380934 12.509107903533817 1.0999917230588345 0.1775927802182361 0.6103400383902715
P 4.164677757657684 5.874537573612674 12.477324755174141 0.6116477014581014 2.5467044207265563 0.7451296074000522
P 2.342816288446079 8.460847563308338 1.3880911999639054 -0.9735584964335491 -0.33824019083138523 1.050418025895765
P 6.59296660195829 7.746732578532045 5.892167934405873 -0.42178278874073166 1.022241306351233 -1.195047463814103
P 4.604328749455147 1.0606916218402318 12.739590449378325 -0.6885730511612463 -0.1418711584469105 -1.6020914036827634
P 4.026165171392954 6.3740765723493285 8.188936575902847 -0.47154931864089755 -0.3322266376474537 -0.9347505224274161
P 4.749816463006699 0.9194634586760745 3.587264369066705 0.3534410669415397 -0.899704072346244 0.8522119403025517
P 0.22106612400729825 5.459481171258847 3.555522090593475 0.7553284023099249 1.6003656792409082 0.2977391453935453
Ni 1.8348217643135512 0.9903772527587588 2.7302037776758143 -0.39494329995038435 0.8488995880998671 -1.1324429016090045
Ni 2.0859081822451455 6.316622594202932 5.0603767396948305 -0.6478015256708393 0.3151820234603411 -0.35868123229455645
Ni 5.643005125796348 5.471260780752346 9.311705014156392 2.314940810892871 0.18963968408044116 -0.2774372006113996
Ni 8.680564072843213 2.4471434852477945 10.078588471652948 0.001697185196764819 -0.4934726010765501 1.1567724794933048
Ni 2.4836175883517977 5.07059057842759 7.190640555590209 -0.767597192374949 0.8800297338457682 -0.11892354851180165
Ni 0.7830788311656436 -0.037948143675163894 9.019916730422857 -0.3714382748499087 -0.05418059980746153 0.44045979632494464
Ni 1.528433848921728 1.2101755020665255 11.396135522951582 -0.7439484426077575 -0.5552014455449147 -0.29432806282946733
Ni 4.020434305093495 6.715975877964421 1.323484991689421 0.9040132412445593 0.5902219274841578 1.0378761846750126
Ni 5.811152920833082 8.023103832878366 7.9782332386589125 -1.0816818690060532 0.8981207870195241 0.8537540879786909
Ni 5.196715048000622 2.761841610883682 4.5945599383748 1.7261926397407628 -0.25897025215546365 0.9318408049797887
Ni 0.9389720178064032 7.282641394639744 7.134132942369967 0.1263010719227954 0.6252984594723165 -1.0546408057278611
Ni 4.928663086095353 4.544913016759331 7.082397115447247 0.2876786758337497 0.18793401424324407 -0.0793622412794117
Ni 8.058015798100426 7.440480896095043 8.879944635102147 -0.20059901130542226 0.4275024648333283 1.30479577358454
Ni 4.5788713512976456 0.3610300453507192 10.438861061774864 -0.39570743180991846 -0.5702177164480889 0.30732164687565783
Ni 8.51524992326675 7.070553930574831 4.904838666956304 -0.17372558395334595 0.5912573107272076 -0.08543364428447223
Ni 7.050100822957745 6.165976192762168 7.146907052433658 0.574348707897327 -1.553605540267234 0.060103907270431974
Ni 2.5422522521066404 4.930452278901998 2.8127382428047065 -0.3984124894459074 1.5171601529560064 -0.8591158665112365
Ni 2.359064338857698 5.136590903939741 11.596749447561493 -0.6216199821794649 1.4006300443770459 -0.4527195875289042
Ni 1.0335267706489781 3.4634958213923728 3.717440406716106 -0.6059179980631758 -1.789160755932867 0.6992323306473055
Ni 3.815875982331674 2.5374114411120106 2.371912014716992 -0.16911611020579262 -1.1767728338746313 0.62127031214953
Ni 1.0499927937883105 3.3379889412145274 8.374928163362 -0.6352450291620673 0.4746896640420922 -0.9811108548595104
Ni 3.372583029542005 2.73052619566889 7.2890724983269815 1.1799270632328969 0.020471637590790553 -0.5185503699807843
Ni 4.498439414771486 6.908700098050815 5.965051657015266 -1.3231799325186824 -1.2835780018563443 0.43077419360606456
Ni 0.6519573368097868 7.52096732580313 11.680387399624433 0.20544965452950423 0.25085970723318735 -0.19098514236474204
P 9.098000010807908 5.63405916176312 8.148419986919464 0.013482093646834847 -0.3019228444575897 -0.5380557870035637
P 8.510445441060073 1.4517346953576569 8.121994426563036 -0.3560558788565675 0.9669163085266831 -0.3708479495640774
P 1.8440311120594324 3.3219497813336334 10.387869975005163 -0.9292578747439609 -0.29605018772689656 0.5195739261492923
P 4.131382423499498 5.942445160492314 3.8163110195674017 0.8970684344956098 1.4665418165785065 0.010855711767581305
P 7.12189559014827 3.9772302940213473 10.245864375778828 -1.9284559261224852 -0.07770310840943391 0.8538268501981554
P 6.279530901703741 7.635475665428449 10.352418527282014 -0.8437751223891081 0.49262285148174517 -1.9559770143608897
P 2.5200281160768854 8.51967295319993 5.92320634261253 -0.1452408462500918 -0.7514640342585123 -0.2989730178006464
P 7.182709981180245 3.9233365370942663 1.4630356730698857 -1.0954748090250876 0.08553725974187204 0.12942110560901582
Ni 5.196397171106041 2.8532811701593563 0.40876698093960195 0.6242412218523959 1.1721723589881425 0.12689576808400083
Ni 1.4364130290388184 1.0876475825007603 6.968133086920907 0.07406011234020794 0.6708712630061091 -0.12535362040786152
Ni 6.664034793389772 1.0662135976089655 9.292603337451128 0.3894871619318195 -0.5425109945614398 -0.20179174606194278
Ni 2.7615328161860884 1.6636950086647375 9.278699402082124 -0.55085705253329 -0.7687140795882116 0.3006362644356822
Ni 6.487522294927044 2.03268650789518 2.3975001965111202 0.16605366923038498 -0.2058072949792391 0.9293126392412963
Ni 4.080658353321246 6.783066067115137 10.408712708873034 -0.4860122881437629 1.6406396962696066 1.1670769467431061
Ni 8.498039159974397 7.091424819253366 0.8986843001871179 -0.7257236920696147 -0.5947475832686532 -1.3491689003832763
Ni 7.500532382580021 3.9992546217173657 8.073289328775228 0.7776422353157769 -1.0307544860285667 0.588817076716831
Ni 2.8874483952283954 8.428660257182694 12.631334294159577 1.1228406026325501 -0.10999282168107509 -1.5482075091801144
Ni 9.092913980494599 5.0945494140820635 10.309097355868719 -0.32050497833515124 -0.7986933995591213 0.2863144484963714
Ni 8.61904127044617 2.6490316420951294 5.802894479111848 -0.19677706645617077 -2.1534801603498073 0.23410408504140331
Ni 3.6009185440185374 2.734858403632189 11.500868693958662 -0.4471243528293138 -1.2320980888094972 0.639015809058409
Ni 1.2590286396652395 3.4222808114606074 12.627386263128875 -0.9872804740053319 -0.6825314729528568 0.3965852064291815
Ni 3.1363460036858704 8.392967223019662 8.279287179759654 0.6746705821475414 0.32427113024580284 -0.48192320567605385
Ni 5.631098365545016 7.760937134621353 3.6791970916388306 -1.7876222078011534 0.8403966928351784 -0.47844758842262763
Ni 3.003664187887467 7.977347724452577 3.5691199559239815 1.1157685262771173 0.6646723332842488 0.14518016821548546
Ni 3.335282446512089 4.610186766512438 9.440152709718967 0.21666352096745264 -0.8742696914335395 -0.4862498580758658
Ni 7.373163652019626 6.5925034099119 11.826965885034252 0.394326749412308 -1.3849103196489438 0.3232568300486755
Ni 0.4012596369092809 0.0464154759271217 0.3100098955506568 0.3636092657237931 0.36118857209744243 -0.16713996031602826
Ni 4.452365429451115 0.07343592018626538 1.5082041633505483 0.40340608600575684 0.7351349580811856 -0.022587398382212714
Ni 6.084181926687801 5.7189595392073995 0.6499792343057899 0.07797975910958829 -0.6434728163884983 -1.4648292047627742
Ni 7.800208554397676 8.958978821511845 11.162595909600897 0.7120271684191286 0.7373124253484785 0.21027458672197336
Ni 0.016931939844819194 4.87808433106891 5.929321385844583 0.5015664338282781 0.992133174111943 0.5871641144944404
Ni 7.9519448194770055 9.032235822417446 2.3343335164592416 -0.23262004429670907 -0.6679098663849401 -0.6008467541878555
P 8.643644942086794 1.5440279811502076 3.6320214358238094 -0.06444007275194062 1.4145075736900865 0.22542198388637305
P 1.9898821134905063 3.2325809629712343 1.589556126431597 -2.064185490448032 -0.5554068766875015 0.051124843700273245
P 4.613083987351625 1.1507870159616749 8.195436704287193 0.6152688431504566 -2.313583782644345 -0.9766949851800019
P 8.50463283498772 1.6001377941423727 12.402247681992135 1.008934819050314 0.8755341599682598 -0.5878403146258585
P 6.2830911229230555 7.9172235803916955 1.2358490565123414 0.9890738184603288 -0.6888674424732136 0.5163333077248076
P 1.714564393994798 3.2736960687361307 6.156320909144173 -0.8479919886839331 -0.20728516507634626 -1.7926885665804675
P 6.676940595309788 3.806884607313506 6.070396968099341 0.19231671669197203 0.013684696575944174 -1.47090754974637
P 2.2515311265192013 8.3112456145212 10.407024328452957 0.9982395441199969 1.3322173601306024 0.8683924067171561
