# total energy = -340851.2222840996 ev
CRYSTAL
PRIMVEC
9.40026840700180 0.00000000000000 0.00000000000000

0.00000000000000 9.40026840700180 0.00000000000000

0.00000000000000 0.00000000000000 13.75824300733985

PRIMCOORD
 96 1
Ni 8.75018350770932 6.392887582672731 13.769662725451724 -2.2682125535983966 1.2664847938194832 0.09385734957179319
Ni 2.6973318365581425 7.422799797256108 9.115592623896756 -4.16857017882277 -2.303304255095208 0.8369141336032168
Ni 1.009410229040886 2.6261624039390705 12.629103710764523 0.8427279120715163 -0.929719901982044 -0.43859574653301237
Ni 6.602945981999871 7.488141063421101 12.479896069352195 -0.001812370618390427 -2.691011956529101 -1.192927589257623
Ni 9.099384680993335 3.5092236244166304 0.4528776743141307 0.8811250237924759 0.23105964178812466 1.51730336340209
Ni 2.453996486831912 3.586334026711472 0.7805315522013111 0.24814282252265654 -0.3060844320344471 0.7143961828719373
Ni 0.8715411914622813 3.049277888236659 7.848389432216137 0.27934778737055116 2.5635706003542755 -1.3118534517622698
Ni 6.8084264505800185 3.6831379914600126 9.986558518928408 0.10736772535340221 0.8662900156621726 0.1306099837107944
Ni 2.4077189651328377 1.6519467800660363 6.66403926684132 -0.8887920534194306 -1.7570427923524 -0.16593565559528195
Ni 6.854468965567234 8.3150732808385 5.270975880558039 1.115454594581124 0.5033420376714622 1.560353657624345
Ni 5.802945533761397 0.8700249281573735 8.46217244203204 0.9942041977083586 1.1200643254389937 1.7912832015925086
Ni 2.434575532163968 0.725518361009052 2.8478874764696887 -0.16468841345174215 0.7600402059632976 0.21005090074694147
Ni 5.827828044412921 2.4242070360367935 6.432075421888473 -1.375018771566845 -1.1575206705132388 -2.8314414974334787
Ni 5.451300290674059 0.3177055737608082 4.2064039360829995 -0.35329605672324316 1.4092954333615277 -0.12443650791023086
Ni 1.833644569406155 2.9354312367441775 10.224589297154582 -1.1071494171495384 0.30744248872423824 -0.15899187728759714
Ni 1.3294141684436651 6.54128962107681 6.2229636295966975 0.18325126405559408 -0.182967157156272 0.9453825482199654
Ni 0.11928188672433307 0.845857777936746 3.2296652801514574 -0.8660246778159278 0.010504241965433522 -1.9167136979848924
Ni 7.717075201844675 4.421030865888659 12.573823551947594 0.30567974039686063 1.1784491931357899 -1.1768525380726311
Ni 0.9010401739615428 8.452495805664574 7.449083887937152 0.6185796526912444 1.4320995757402368 0.8727982490943357
Ni 4.286569425631995 8.086176743488824 11.294953687063495 2.1147629462852677 0.21140124412724884 -1.7183659446074921
Ni 0.384344076975258 0.3398112451050176 5.416014502902007 -0.8311924006280912 1.0571386324490502 2.1596004143149323
Ni 7.691215063271822 1.5589593243180693 10.39343127932922 -0.7541282113542368 0.13796950939965916 -1.0930931961667885
Ni 7.392305326325416 5.789192940983468 8.66595992225996 1.0738685436092215 0.9958818425210979 1.2990920383315432
Ni 7.383845084698528 4.509882203507925 4.8939442724289535 -0.30617082110066624 0.15232577812133122 1.7249063168291712
P 5.021905427035626 5.614423149508922 11.535515957589803 0.034671840350572546 0.6940921812072627 -1.2432317368288137
P 4.5586319958157455 3.2161608544612506 8.007985310319436 -0.24591187630960876 -0.4103784035585319 2.191411902398574
P 2.4119020846039096 0.9214406366045106 12.262529901313119 -3.2307104213424105 1.0459425066229147 -0.7924160511908417
P 1.9281736691839104 0.4617393074048715 9.236321211939288 -1.5764865586304657 -1.1233928755915945 -0.70837903014358
P 0.8035847706077318 8.15563532724557 4.197158772038506 0.8683301860206528 -0.5183611367881137 -1.6081257828023015
P 1.7786717993683354 7.122057007957208 0.5488534754100838 -1.16447730433673 -2.440098513239843 -3.1618331387547225
P 7.783130888413717 2.7116954467869028 7.781758449216466 1.4855422689404092 -1.6741781943466845 2.063861788560026
P 3.2642902290497653 1.5624374236535676 0.626761960498395 0.3721723248024558 0.5527139032363707 1.1371673036678673
Ni 4.5647421703240525 0.2396476244037552 6.60395651086086 0.4148202413799694 -0.49090612590095456 -1.0624782994944089
Ni 4.344935692589043 7.105174125777331 2.8414896537460668 1.048858137607813 1.5479354864656503 2.0721047452951087
Ni 8.915966642522417 4.82635164196436 3.2987309326859764 0.23919049842537515 -0.681734173862542 -0.732426558011087
Ni 3.3077194694011207 8.432689439989185 13.401175021338947 -0.08890180533873075 2.324479346510926 2.5326690256794127
Ni 0.6207749295071011 6.711895093617232 11.661377092219313 -0.15464568450375948 -0.7456302011855546 -0.7166602963157658
Ni 8.525338486072075 8.463512920316477 9.211047650119232 2.536417436978251 1.6253624583955621 -2.143982505272017
Ni 5.832518778381606 0.7037285386855797 0.564989036246253 0.04930296000018605 0.7531599339036965 0.8671086549087259
Ni 6.318625461725608 3.128907562482618 3.411906405009392 2.0392424473494493 -2.0612346353498245 -1.5167418344716652
Ni 7.43864864990381 0.8319867417760403 6.842400900899904 1.0991059780197716 -2.3894776057591813 -0.4525599220225883
Ni 4.670015776967955 5.491740245650582 7.0156722895796415 -0.6433290917217823 0.5720930790939309 0.31463797803141297
Ni 4.105247647030849 5.702043051958054 1.2599273838814968 -1.531953509215097 -1.8245121388489676 -1.345295276360483
Ni 5.495725959483693 7.791045914469094 0.5646910477356171 -0.5521415756726684 -0.4584719166316491 2.255122810293974
Ni 7.443226580650804 9.354949780004656 11.903012873405386 0.5431195746797162 0.4152624711237107 0.2582356879822843
Ni 0.4730186895472073 6.165739495259278 8.665629032809665 0.10420861089913021 -0.314601982587155 -0.03296257096894968
Ni 6.557599086879755 7.697297036974707 9.636658905696752 -3.4035872841422155 1.3485333236818067 2.187380412641678
Ni 5.867017763682359 5.446261746771825 13.456387498222862 -0.6891826597207873 -0.34288180336845464 0.8840828208692194
Ni 1.369910525031033 5.560578411688022 2.1782875525069727 0.2672342919364688 0.07004276365069873 -1.070926173151446
Ni 4.717280326856834 4.198075298214753 4.522816032901741 -1.130670383089614 0.8450601597491187 0.045322378085883235
Ni 3.272158253762771 6.511584772697962 12.479552019526036 -1.6115057550181278 -3.9783293708232192 -0.052607598893386814
Ni 6.414780807949421 4.182790461675509 7.562300721441853 0.20759266901443602 2.0988506459303853 0.46399824576651705
Ni 1.1995870605448407 4.195114213645342 5.272145273956244 0.6400573629490461 -0.002217576476609084 -0.3457622102400432
Ni 3.7092143362077743 1.1519370996485159 10.001582028004067 0.3714485592625538 2.4277219939523604 1.672985973810796
Ni 0.8008774932871279 8.82186995509448 13.064579608078994 -0.603279017778432 -2.5981920470828865 4.861344669659872
Ni 3.3074750624207887 3.6944089133607214 6.475482101595491 -1.0881947304239066 0.6274435308397774 -1.2996862202721164
P 7.700474327719027 1.094275852827041 4.308875322694707 -0.994810720944106 -0.3051053559506294 1.2498934651197056
P 7.98769013068338 2.274178751186657 1.7813076346485348 -0.5558735319112749 0.1191811730485625 0.5160036922995306
P 3.8454336266691365 1.533832406686214 5.0204794063080715 -0.8407039396629521 1.1955436867242313 -0.34110080020863187
P 6.133806783252016 5.924961018558062 3.90266340116764 -0.43514455475961833 0.29278642937396027 0.16183346050145034
P 9.321193415913374 4.850980345367077 6.727243851982101 -1.1427658808015675 1.2922403055170326 1.0159318191934374
P 6.431795293887939 8.006105256624572 7.607042239272225 0.6137184679442012 1.4624043973713654 -1.8022193888890383
P 3.481492832417388 7.729502356767725 7.01458561854401 -0.9650049504365832 -1.7258262575402792 -0.2843868924563554
P 8.19078293107105 7.342502703948472 10.842953997824868 0.9830602652763972 -1.3947401612551722 2.205406159795137
Ni 4.381117325946699 0.9697786971531557 12.407638085643796 2.729227291256558 1.2590077687161478 0.47515709059681394
Ni 1.9892002121191916 8.48889364519714 11.305863638654792 2.5758442755153057 -1.0274171941252177 -3.366888128948969
Ni 0.24167996244790302 1.1072670238585505 0.7151902860363172 -0.6083374061379458 0.400165210470956 0.816965972616064
Ni 7.391609706458316 4.604232698184669 1.493801363388325 -1.2831452851943 -0.1999384949032879 0.06033633499621222
Ni 5.2063292942332975 3.0978208746380442 0.8968326137924375 0.11455935800583497 1.1020393496164826 -0.20133460391986616
Ni 2.12319163895214 7.999713074062035 2.246583323053445 2.1478499586472237 0.8939136909167121 2.9485650166220636
Ni 0.26830810295510743 0.4249363163010639 11.365574144003668 -1.5676532766095517 3.3614834129936297 -3.644703538835394
Ni 8.627923615932323 2.6044759845688157 5.832407855213609 0.9086232292127449 0.48953829901915047 -1.1979414975324465
Ni 9.382671171735423 1.3536010592280892 8.892792160652677 -0.05041907588250027 -1.298813587859176 -0.07783577733255627
Ni 4.210793861460506 2.177393586975065 2.7490897147777447 -0.35995624235223816 0.4511998084502681 1.5476326105132507
Ni 8.887709435488611 6.630939981516394 4.740746217049277 -0.49581256206363644 -0.009933971284260311 -0.2730552694936201
Ni 2.7358729373028523 4.961997516048789 8.708362653293921 0.6864079251891275 -0.9349495258120994 -1.6581000578378993
Ni 4.11116981616967 8.827472515105173 8.703423752237514 2.5751415930213266 0.5367761489601917 0.03371924662931612
Ni 1.026838326792274 5.170457869735294 13.33433817245969 2.825118383428928 -1.0464880947137396 -0.5001070756739323
Ni 4.791401443776841 7.013540308689666 5.356428081096991 0.679402440405572 1.0985547335019918 -0.8595472976217003
Ni 6.9674883934339755 8.339833587999857 3.0305281127377817 0.013314457720719005 0.8817302614766428 -1.0733340112619902
Ni 2.559091488374802 8.732238395191844 5.363073130881488 0.5480290961661917 0.012811807052687613 -0.7084409937297671
Ni 1.2101059609676041 3.089153827104722 3.2913291612892976 -0.22724669579993764 -0.9008266159864614 -1.069478899181958
Ni 7.265664909439385 6.391233135421251 6.417243678289693 -0.4810642001098683 -1.277932887755425 0.6398413902834981
Ni 2.852821677391859 5.98232145678836 4.609988482571494 -0.22670033637816442 -0.6606251597980687 -1.1795015456597042
Ni 3.136286773234959 3.7912222783777367 12.139392964487467 0.9329114123361482 0.8170173946792897 -0.16171493264571504
Ni 4.763529647750484 6.46285378092709 9.281104090950945 -0.2381180912968028 -2.160386143441021 0.48744362127365076
Ni 7.554685563950808 2.1978861722490812 12.879572924235914 0.2342192704630289 -1.8543983848854384 0.3840708760122547
Ni 9.361069354781437 7.401931201243119 2.0758434266738406 -1.0109515923700267 1.529955247838146 1.07555287329018
P 7.413239724217725 6.6846813163840775 1.9189858467771108 -0.9185242903765406 -1.6505487278532027 -1.2454498275260548
P 7.734399896642845 9.038235934567888 0.32953205152834936 0.6514069836339104 -0.05213811545613601 -0.039014176479668296
P 8.887060816963885 3.1599378487163463 11.17875132829135 0.11078857810949308 -0.02244778748055489 -0.6622284997294466
P 2.0236333955406236 5.3117251043673654 10.563744403520092 -0.4085128111047029 -0.09126902001932669 1.445328158615369
P 5.6588206175131335 0.30176553850890486 10.716117115327723 0.4387523267155347 0.30033287426265054 -1.3122347463610886
P 4.458960949182537 9.259292648009982 2.3247164745582927 0.5130654356068131 -0.8644138816853822 -0.8019617858977478
P 5.619424092337261 3.0446247553418706 12.597170998757262 -0.4002695972593042 0.7084597627828444 -0.8958512742590571
P 2.853695902359971 4.375138755197032 2.9118769840280754 2.6437795059046985 -0.4967453582905509 1.044047346482731
