# total energy = -340867.145095982 ev
CRYSTAL
PRIMVEC
9.21480393944332 0.00000000000000 0.00000000000000
0.00000000000000 9.21480393944332 0.00000000000000
0.00000000000000 0.00000000000000 13.48679701203445
PRIMCOORD
 96 1
Ni 3.1648152306276645 4.836048949425959 4.399474571311416 -0.12576833934777695 1.2405781012560504 -2.254064287122473
Ni 8.39416123102311 2.2203807503925788 11.103329282146932 -0.44687418449172067 -0.24459984236640456 -0.29865162990548566
Ni 0.6683865957925252 1.7944817227512695 8.840838720280388 -1.5810728924495674 2.941120130308245 -0.25747001346085335
Ni 3.6149952668982137 3.030592395070354 11.033629425915164 -1.0362396775128542 -1.4848622121542494 -0.5983427568190792
Ni 3.6268731492978685 1.3622981987588627 1.7839934327999216 1.8805688726332195 -2.699481427452693 -0.058799586636711636
Ni 8.250318140054445 0.2450778495651361 9.74883694388516 0.8478333516188818 -0.8770886489395734 -0.20245714756008362
Ni 2.862864532045903 5.057195031434739 9.401646164899125 0.40028836631238157 -1.1661078979616175 0.8369845818298359
Ni 6.838905035795069 3.900930636069114 12.474667203663019 0.11780717551917132 -0.01306943158944846 -0.013868273341659987
Ni 0.02713391195812543 3.6592078966527084 1.7329590836191548 0.05074200643955778 0.8954596952475933 -1.346596768780726
Ni 6.982213668129772 7.006697402447757 2.0856520220938095 0.752904880470097 -1.166539071961765 0.04369564111573765
Ni 5.289233011811549 5.316812920284915 0.7211238407587507 -0.7848690920815192 -0.37460793082714194 0.23917404336514292
Ni 6.431905571227221 4.183419668531347 6.582312367109212 1.0856639935822527 0.6481288271032709 0.9247903258909105
Ni 6.828989906654628 6.46042538971204 10.595767739677088 -1.9218201659735226 0.8097074912814377 0.05572866102087177
Ni 4.725268575330808 4.893530896989224 11.507137660077852 1.4114366480742464 1.4140296056124033 1.0162100125554887
Ni 8.265236907785274 7.767932363685528 4.8806697949991555 0.9857866630686248 0.108848937884619 0.8187660019392802
Ni 1.5483727366147437 7.0788124588168015 9.70041959905001 -0.9788068893166819 0.6066957567694647 -0.08762319573662329
Ni 4.6872022198669026 3.255507331928986 2.801800790154675 -0.6142159764059099 0.5728592678359941 0.23782447131578396
Ni -0.04387260348564524 3.5385216082211497 6.10993755384269 0.3481042281096585 2.158279124400347 -1.7699106494540036
Ni 8.794139014917151 5.747135053862481 3.3867906449994916 -0.4332704776653571 0.9935567939323469 0.05824808500861582
Ni 6.765306395976571 8.514488142097349 7.661012992480567 -0.5819540310484107 0.5712530996911387 0.5062998347482055
Ni 5.889807864718846 2.79215934069404 4.821462836120752 0.8006438384172727 -1.5420851983324604 -0.0762964578698944
Ni 5.893327919859783 1.9876885189293636 7.5578799842531215 -1.7600162731584268 -0.025002435581608553 0.4418883012413551
Ni 4.050007735729017 4.1145574379862575 6.323055698577164 1.2312449967805827 -0.4244600784625786 2.2405271718679862
Ni 5.315495203308071 7.6230479998610345 12.853591924780883 -0.7711373443177235 0.7774861693538868 -0.8757388197798982
P 3.678347044631051 8.683036122680814 13.768670803805279 -0.9111110286316051 0.5419708057872538 0.8256408746822426
P 1.1488464781183623 5.803050484739987 7.253212761442177 -0.11959049267183923 -1.339394594605332 0.22076443050970365
P 3.6237861899465234 2.8374132433043617 4.736846055118959 0.1167262837501667 -1.4428899814875216 -1.335867041068048
P 1.0628447120702795 3.5490080552116905 10.308794783571976 0.3846750852551568 0.49695901696325384 0.025766053220510468
P 5.998054167704685 1.302448046558895 2.729916103886477 -2.243947510403445 1.2290767854846703 -0.7935097984756528
P 8.571039394453193 7.398759669676706 11.015139000140808 1.7158074398516967 -0.36181592126879625 -2.587807104304137
P 3.65106200988677 6.561299849470784 10.887095612168608 -1.475604441001407 1.853851254132717 0.6328243355357166
P 3.24701128260976 8.748525734949508 5.861429032735746 -0.6597293874566768 -3.121784093252636 0.232556023827993
Ni 7.456812935090069 7.045583875470677 12.903520497477587 0.9607325483134744 -0.7927616074557186 0.3307953045175658
Ni 3.1733112799468897 8.355901364674494 8.323956403530287 1.7613028531803345 -1.299851285095071 0.1753626053361367
Ni 1.0011792434756401 3.784326505824558 3.9106587046876675 0.41564479416379385 0.013400846786938212 0.2306608636878092
Ni 1.6439947580741838 6.573288309518846 4.817200989255087 -1.456897094399891 -0.27300024788596855 0.18501838325834585
Ni 1.4005119910873103 9.034691474221257 4.7268526001442295 -0.3067997129339168 -1.610805900737626 -0.8613540118131359
Ni 2.1844890886806656 4.686382102307888 0.43283132471598756 -0.9617427347455436 -1.4800377941824125 -0.9095889355601239
Ni 4.864338397809932 1.1967265998783365 12.715797431180047 -0.8906586743145243 -0.3331895157813552 0.09216324969882192
Ni 1.569511497068435 5.82050332358013 2.2007753333301228 1.1447327747199512 1.0363417503083572 1.4162690364658832
Ni 2.695689557263484 1.8979086832273953 13.184706556649433 -0.35692851126950786 -0.0039013919369352166 0.5769167257348192
Ni 3.295693092320681 6.505273840944872 13.34426826033907 0.4303134519195621 0.5264508557747836 -0.6505893728286214
Ni 2.145132660652019 8.21635237238561 11.924554460605986 1.0688824032485396 0.4691057421964115 -1.1480631246447648
Ni 3.367669926629217 6.062825025258737 7.465765117208972 -2.65580738360351 0.16872530252527715 -0.7941898552618128
Ni 4.968419609372463 6.808090731105816 9.19238533713323 -0.6633394734054382 -0.06481545381348837 -0.6117153214712433
Ni 8.006752439831265 1.836796102874788 0.04668311871597474 -0.3629682897056845 0.7769765767073199 0.05314264546125041
Ni 8.511281390293563 5.7928681262825625 5.993883547398956 -0.18310651094761368 -0.5715145808826415 0.20356169347817202
Ni 1.7435422860520513 5.422515937357406 11.532694919065783 0.5450723275307129 -0.15720830302461314 0.41383448042793247
Ni -0.2502003591275629 8.82267726301004 12.379261730098376 -0.5019932369530515 1.4587063796944877 0.7985828421231859
Ni 5.867222380031837 2.1801304863726467 10.52907467400157 -0.008092547200147352 -0.4906796117124453 -0.3197033083694623
Ni 6.131438456094913 8.64552265545894 10.08136696965331 1.330904811966766 -0.06325942218027815 1.389773047057884
Ni 8.645181707709689 5.177227068779893 10.895564938556134 0.9874956753399314 -1.3959606639258344 -0.11001004807225569
Ni 6.866014989262705 4.320075212353598 2.470538721421586 0.004459064212618127 -0.023287509773030863 -0.23120490911673733
Ni 0.3957914984214549 0.7246263877720237 1.9318081043071857 0.8778964895528494 -0.5028591844977727 -0.271965378863551
Ni 5.075891868819456 8.272074292378404 2.2281810820072474 1.2851972826273221 0.478706498510969 -0.5009789367559243
Ni 8.645126418885484 7.172720526725944 8.146632243584966 0.23310932522830177 -1.8542124941268778 1.1737052506929013
P 6.6602115559703154 0.5826861538363499 11.910783857457776 1.723198590109445 -0.17996950798052877 0.18498393047598466
P 1.5302656466881945 9.300870303543544 9.379649506189882 -0.062321740857357186 -2.925329700243207 1.7416380277615553
P 4.917793476010396 0.33120032954606254 8.621191886887917 0.701840971914746 0.09476366343614646 -1.076914529524397
P 4.266214682775645 3.3228399050044533 8.982665612126445 -0.1950027481645674 0.14909492988885936 -1.0931852416599626
P 7.982047550216468 4.026869362799977 4.309220173201703 -0.8219104611055328 -0.09351950661640022 1.5965424488400761
P 0.729040278904246 1.2436575968228223 13.220216725474343 0.9118095973605265 0.5819270344652172 0.19274583380959062
P 7.442815647762625 5.263560567773196 0.6159368527121565 -0.6003425608579274 -1.0334613434367685 1.3512548363780275
P 3.85760262750187 3.6251223365314336 13.098282752576598 1.8675104967873641 1.0043356297154058 1.2148932948954367
Ni 8.52575784743077 4.427667264253032 8.183653640271432 0.30882342823216496 0.9789758107943786 1.0738482318942473
Ni 2.3611645264220025 3.0596190277770363 2.036830147361574 -1.2791040252453907 1.0347044718152503 0.598574413213911
Ni 1.5092835379030787 7.912051898775212 6.936610524446567 -0.5294215083673334 -0.3920217554282152 -0.5507218125070064
Ni 1.3037196895155687 7.674660117254724 0.5033476125851565 -1.2443776775077988 -0.18928538606481596 1.3467656902584226
Ni 0.4206290812143406 3.5059288463533615 12.62573285803343 0.8038518038316091 0.12637306281131142 0.10044837252574958
Ni 2.9324363025016007 1.389196211733721 8.51967699824882 1.7199073209526832 2.6584543343080536 0.30245609125324036
Ni 6.911766491290856 9.070242188183915 0.5851704650038805 -0.6054076340856606 0.12862380651870106 0.48993939111231105
Ni 6.214270329555345 4.5100660419238725 9.691005755249012 -0.47292357328060486 -1.9509443370329886 -0.22737730784053098
Ni 8.068989226276004 2.1805727969662723 3.053599917782114 -0.9461641635809963 0.7814783212324155 0.046870182188977344
Ni 1.2589726011271096 1.7586084906474242 6.193366546604517 0.741990033329806 -1.3435649239329377 0.6704454883226002
Ni 6.259570306185836 0.28122936875080395 5.561051301202565 -0.8554124495177203 -0.813040926530045 0.25635826845391335
Ni 5.29378512500428 6.619804640281808 6.701575889797942 1.7508762585303717 0.41221082878158044 -1.5357091196027872
Ni 8.10891697215475 2.138055691154009 7.284084197916439 -0.2553041161577861 -2.089836615357233 1.0129866205221845
Ni 3.866789787123636 7.288200450878367 4.385083811851725 1.49452518916531 -1.118431674931577 0.8670045252306939
Ni 4.349037341432043 0.4059010599270106 4.2057766260783165 -0.00674606047458193 1.6732148019921507 -1.3056537507094612
Ni 3.6137789127657434 1.403304076709572 6.311658828948078 1.42432841643525 2.7663331949699197 0.7472134865122745
Ni 1.9986909949458012 3.6163959171113618 7.546308033347391 -0.18397708647802508 0.6971049998916575 0.27219369282427314
Ni 4.082867726913788 0.20236262546614459 10.633409292675033 -1.7470771964992557 0.21114567647301702 0.3979841436592372
Ni 2.896249767060604 8.300888984592307 2.492265386372638 -3.059652099808582 -0.10600349801602388 -0.7511457316871449
Ni 8.293203838028061 1.0834029398698373 5.243815085689425 0.9055659304436599 -0.012272903830082088 -0.08470550786919605
Ni 5.904017092539069 2.4238712678724688 0.858070572388472 -0.2068244233898438 1.1067357266508875 0.6321257668067952
Ni 7.397976411333827 9.150770360635882 3.260163572407299 0.40579026996721723 -1.2703938990659025 -0.883922384031955
Ni 5.754276526988727 5.230719006196493 4.556406369929788 -0.1608189031940069 1.0516801804376403 -0.4591622578304544
Ni 1.8737198226384937 1.523078099541778 11.039874298608915 -1.6003679932337536 -0.8614797387577228 -0.3054887074319771
P 3.9396788870315254 6.0046427525889 2.536111266926585 -0.6460122949809003 -0.19998374631892657 -0.7354943983031332
P 7.496049570666275 2.791615667256042 9.202702231729548 0.40471220641169003 -0.8267261373266214 0.0920236387971641
P 0.16197229642489774 7.894083030909171 2.901144670963394 0.9690446677235957 -0.7284169226310617 -0.6624416441815173
P 6.735266134826164 5.810035306197658 8.137933468576996 0.6785102676086057 1.633889522029967 -1.0997510678029383
P 0.09035668243448845 5.664035951085065 13.08727751211895 2.3769416780757 0.34223208559959767 0.3986382323034683
P 0.7827008472346652 1.6404654881292124 3.9952616634834093 0.3639445375760248 1.2255302057839927 -1.0424085253277275
P 8.849215898627577 8.838720236833002 6.868583155146945 -1.6618453838129443 2.0034182385619883 -0.9407023691354767
P 6.1827004109353165 7.499873714340331 4.3085327488207765 -0.7937728223290523 -0.11468431361947347 -0.26425772580664814
