# total energy = -381169.20742839697 ev
CRYSTAL
PRIMVEC
9.28458273111662 0.00000000000000 0.00000000000000

0.00000000000000 9.28458273111662 0.00000000000000

0.00000000000000 0.00000000000000 13.58892532699146

PRIMCOORD
 96 1
Ni 4.377411597690626 4.307377988664026 7.77108542427645 0.361011680199946 -2.024504626918642 -0.25817706683020697
Ni 4.93807970696934 0.7731114366312719 3.6534778114545814 -1.3905762596854696 -2.418800523093015 1.583899306154769
Ni 0.8116378134913912 6.506849261414462 9.721883998630616 0.683293805040178 -0.8344564160913436 -0.22148588205676048
Ni 0.5672276671174098 0.05337521033701728 11.261373692353708 -0.12586449860600904 -1.4067068466987451 -1.0317029659847652
Ni 5.6822947361535086 4.822570210760943 1.2009134503758119 0.3625720827085304 0.3901085975659023 0.9017049048263568
Ni 5.277616904649677 7.074165132069689 0.6862430218394543 0.6756000359403461 0.3137136664449307 0.3456853342555208
Ni 2.2072238994953937 1.6790425458820761 10.74170630128545 0.6268912578807333 -1.2163122867301503 -0.13252391290405566
Ni 2.5428522877630035 0.47047581379863784 4.387565217580788 0.5617988962567744 -0.8402501399549851 0.448714323024253
Ni 7.326334404396677 1.0150463131966239 3.155103682873612 1.1698023160940692 2.381032817425938 -1.7974039697782658
Ni 4.229842436631527 2.2124325505180535 12.33049620189842 -0.6959156075692466 -3.051835946198273 -1.8126932918371683
Ni 8.102739082592542 5.256401632658985 5.795309464929128 0.7456212023244901 -0.09843802696394015 0.8174562819889212
Ni 3.6911973580582496 3.2384532407356827 0.7520242918849886 -0.9404177480155222 0.37469971920999984 0.679674463120036
Ni 1.1608514034993862 1.4974082500598056 13.212104489252502 3.876150902980241 0.26121585365653077 0.7030928420439762
Ni 3.2750716358040783 4.3179531286191235 3.00809902445654 0.5956379562934064 0.9510888545761231 0.01862687107256792
Ni 1.5426705918342556 7.700874479715923 5.183943819029859 0.9896942256531472 -1.8512986629141923 -0.5442642298071207
Ni 2.5781429874726824 7.956683308550723 0.24921027574780508 -0.3342542096004437 0.6385242141339713 0.23399301338483575
Ni 6.646693649477389 8.773104539166667 4.430588117952983 0.5070063738969268 -2.70350288990726 2.478348557859977
Ni 4.343439308756737 7.6284547328768015 4.59615544301819 -0.936390114913368 1.5739941312259151 1.4999967538028425
Ni 5.312796189364218 1.576689303682786 1.7600375335135825 -0.2810963946305417 -0.410426483187648 -3.6093842947088097
Ni 3.198297419571683 2.1235512381474253 2.8535246455781946 -1.061661202909752 -1.4433604933660367 -0.7941304627787872
Ni 8.62707661887363 4.72037480647143 1.6939545145228851 -0.5634963385638553 -0.25576768605776595 0.4360693805667329
Ni 1.646862181453308 3.469351533574411 9.402544482652052 -0.30693880961494235 1.2269977914684547 0.7720575421391478
Ni 2.8726221042029874 5.819381603086793 8.041790437961081 -1.9072918904503602 1.0228102914808257 0.2803276347853172
Ni 3.413588328508288 7.979059153407426 7.098066433901478 -0.18636152754980162 -0.4317537839105145 -0.5272538112920532
P 2.7008944583649916 5.362032332631892 10.570322185015794 -0.3631325831976907 0.476940921970114 -0.8811034265259213
Ni 3.391119637822305 8.167963277662393 2.549363565770475 0.620686414621602 -0.07271234006306186 0.17673171776952143
P 3.252602945118095 6.150989766946538 1.8041476585466565 0.03566762860493857 0.36566486270124116 -0.7577377830823661
Ni 0.8639304414589928 3.8576049378784485 3.2898786886578 0.7745921356355434 0.8983102773225109 2.2733514174868588
P 8.522560068852096 4.352213239623784 9.455704290665137 -0.06979850885037657 0.0038096035540773105 -0.5916717725568068
P 9.289782294532078 8.135197984509155 13.026045161206703 0.19255582928597162 -0.4428486082720954 -0.24459984236640456
P 3.1405751675077327 1.0021685966753597 0.5180899404287739 0.39509833747100986 0.18181247472653853 0.5874091406257108
Ni 6.172706406415347 2.603694159690793 6.71965561595951 0.16232094166083014 -0.2786075667704169 -0.2701843757037282
Ni 8.65779001919976 2.3068753280626084 10.60156294965224 0.8927201848292433 0.4451160641500334 -1.0012076256093854
Ni 1.8071697902897506 2.7491371512593594 7.286545324258338 0.05869288585551827 -0.3985821822545523 -1.1270597829202202
Ni 4.620500547913941 4.502902020546723 11.309301637886815 1.4709551151548539 1.1336245806219316 0.7147941896413045
Ni 0.4229443199565619 4.589081519285276 11.320240733492694 -0.7605603401328257 0.26032908017620326 0.7863459337373618
Ni 7.408094441661459 0.43076286724030843 7.679686133015723 0.6001535847755729 0.43456502810706443 -1.1256348775482357
Ni 8.60979801004445 6.45497629659521 3.521760218828614 -0.3814375521544656 -0.29634894991423805 0.775582781683587
Ni 0.1811533544265954 9.02656436852066 3.716217452132873 -1.0142297489006662 -0.8130224145872835 0.4151922800074075
Ni 8.475208695918825 1.1358851600057458 12.70285997097932 -3.7619484140931925 -0.6574339065542806 0.6708964598170898
Ni 8.291346100193811 6.829228549843685 11.418828148856347 0.5919713060750965 0.8513498494125725 -0.24595635639429897
Ni 2.506382446021457 3.7341478386836044 12.005992600895253 -1.1905030389765303 -0.09591371788018967 0.7627360076279057
Ni 0.09585124877474696 2.291620758311753 1.9933191787899525 -0.44186284732005837 -0.9516802083032191 -1.0180120987612338
Ni 1.6796553283553304 4.67895628202921 1.0100623490808238 -0.4704823108289639 0.013058375845854928 -0.07258661311847497
Ni 0.674432103896628 1.8218580004819926 4.6882882163302355 -0.09893887785975863 0.7824689672804589 -0.18730795062347097
Ni 8.488299957847435 2.8552877878762395 7.478176330519285 0.4537266886371798 0.11028926987557136 0.381584105034659
Ni 6.088996606735667 8.201991274093851 9.5332834802374 0.9381397506146231 -2.537178740624308 0.9244961916892595
Ni 0.7535488204017814 4.9441796779530955 7.604131910980079 -1.2060211892167876 0.24028141749670873 -0.3473172134319889
Ni 2.5134851519614476 8.455933901760105 9.818949670852358 0.10458347774004569 0.1500367249768384 -0.2977777119409646
Ni 8.77796037603806 9.336298055001821 1.354700496621855 -1.4897403661821569 -0.540563641027082 -0.6624280173347624
Ni 2.8952022098841086 5.404899252010894 5.259729227180414 0.6302115805032179 1.1096624133793793 0.5585760184441024
Ni 6.424819971244767 3.3817422090649316 8.985078995081357 0.750090036729121 -1.3140535447373822 1.2475020820693934
Ni 7.767584208054266 6.136719362986062 13.723863272582609 -0.8603235136660925 0.8185793398497708 -0.7830253540045612
Ni 4.4568783429721694 6.586297437530149 9.499556304292812 -1.158824991146959 -0.2960879829433675 -0.17850912138491837
Ni 6.467816874784762 8.878920930798136 11.996765582381313 1.7970877240894274 0.21912072425869358 -1.1164575819243419
Ni 5.126138934177849 0.3795481793506583 5.875144808152916 -0.7200613515775146 0.4799928214225605 0.8077079443529057
P 4.5934545578444075 6.317601607591157 6.422955626992806 -0.20866353348111158 -0.944010093352471 1.2226192027847846
Ni 6.581515877322181 1.0457040060251848 9.858411933671631 0.38359753592026197 1.7665651300205383 0.2740250896060571
P 0.16897569545810948 3.3550768868954504 -0.19833168976015184 -0.601969297828073 1.0863098546963679 0.27282695553289793
Ni 4.910040266526501 4.253759522254293 5.421302324669956 0.5176926499661794 0.10770582541911129 -0.004974827506772078
P 8.289247784452062 8.790262448417781 9.495764480624977 -0.7172616773451905 -1.4945485862040777 0.9053774685819376
P 4.4354309564082754 0.4214002938156201 10.504525131179284 -0.45465177155461056 -0.0890910385314014 0.20824495788645425
P 4.051132784431606 2.1025587961470085 6.822225188941025 -0.6085124982632294 0.8714011116364929 -0.2746341839449657
Ni 5.357148642011715 2.9679283479598557 3.602722710419872 0.4663009257577647 1.0295578946173043 -0.15738673758400637
Ni 1.7248341088834276 6.895074811969716 11.864165025918885 -1.3983849570966111 -0.08787002164010672 0.4065965679185965
Ni 0.4035998914258815 7.091425171733014 1.2799066819280214 0.3031482322242586 -0.24781474975927642 0.7386959359595665
Ni 1.673313958215443 0.271501630899862 2.031735069113227 0.29207217691575504 1.1137237279329466 -0.3861223592246447
Ni 6.2318770534160794 6.290778447511897 5.104191108594132 1.4088416336535605 0.31844655314422576 -1.0434863317729384
Ni 6.396279163323811 5.592039305509523 9.746684048089843 0.9552974933408322 -0.4967250465755768 0.9221071226317926
Ni 8.592890784532395 7.755792787735588 5.9393792666826295 -1.313703617597131 0.10349127311713144 -0.29808521587905434
Ni 6.178750669901535 7.735106736971799 7.098909474031347 -0.29185080493356835 -0.5882763737220127 -0.2735558632791224
Ni 1.0717936840531244 0.13026362693942845 6.497694662647364 -0.6934969708254249 3.154126514139084 -1.1576286568460128
Ni 6.027931904817603 6.455876901139235 11.825558801645581 -0.6165024584472415 0.710888426828995 1.2732036006005556
Ni 2.714282826947301 3.074171830406016 4.999610494950392 0.49624065073999046 -1.006619797763892 0.44384079698203555
Ni 5.02378569197856 6.110044756233652 3.074018634787703 0.43917990117125655 -0.2415302023021453 -0.3129814162645964
Ni 0.5211761357940717 0.6607549847852553 8.777264032318453 0.9069347857667283 1.353790715426004 -0.17812037058693195
Ni 7.912414417149579 3.2404401414822943 4.687635510150391 -0.3401893441379561 -0.45045007476843707 -0.5637038265889711
Ni 3.8881233619630877 7.478945093985731 11.530420479527383 0.7866138426867678 0.9489998332575785 0.6102801316866134
Ni 7.236543202899096 4.418486592564507 11.699290330740112 0.5749197499094485 1.1428044473489865 0.22131053282116078
Ni 4.964039400836285 0.31808052653351565 8.194557108543327 0.4542342244012177 0.9783037244280184 0.43821136661040017
Ni 4.092272771385982 3.037785549910822 9.765450047104105 -0.23914293301689138 -1.6020590077829313 -0.7818773564430469
Ni 4.71253861848012 8.992322826681855 13.22122287814618 -2.8299885670370357 1.614219040184233 0.2187491998518878
Ni 3.535615601932206 5.8382293064308195 13.327610271627728 0.13545651316981833 -1.4248549783626816 -1.1592433096313002
Ni 8.021712527379082 6.631931162621723 8.515432294538199 1.0369503304266334 1.093126877618201 -0.3534467233684945
Ni 6.509653205458746 5.120280362350224 7.5569922265375675 -0.15666245782347213 0.6503242920926929 -2.4559539922148605
Ni 6.8962632385845115 7.6401347382003415 2.4440494700754165 0.29938002343107795 0.4112096412105756 -1.2139293883202706
Ni 0.9148164551129886 7.635650284646074 7.659914613670351 0.5302290918702932 -1.3894066648574008 1.3135246688171054
Ni 1.671791286615236 6.163895337216587 3.2980184825108587 -0.21347098217208396 0.5137637472254184 -0.536380970404302
P 6.738026091741034 4.595032936942183 3.30471823755177 0.8937046602296995 1.0128966319115393 -0.05391757595406198
Ni 7.103569406202958 2.8615363121868453 0.9949061959090059 1.807339740834739 -0.5235367674517822 -0.3485384874335997
P 8.048470695377844 1.0890073008018075 5.337172861841925 -0.46544783372885 -0.5782490713929976 0.8871740582000335
Ni 2.8003973336053574 0.6928833555496259 7.936611897176773 -1.177645980508204 1.2006439840652743 0.848369683738326
P 0.8604914319424274 5.17446518831857 5.363154838707898 -0.6687945829827385 -0.07144684308707694 -0.7656467535167975
P 6.500136507957452 9.224177431562177 0.6917905601389894 1.506202368392922 -0.07235727071648827 1.1452050863706793
P 5.5332121880771306 3.4652663170860505 13.2574513207316 1.357566123308036 0.8847644203172763 -1.12061248463298
Ni 6.701723372492193 2.2976093143003724 11.812146293147661 -1.461765992456418 -1.1849664254290173 0.4449083190146015
