# total energy = -340887.01546631515 ev
CRYSTAL
PRIMVEC
9.11399985930711 0.00000000000000 0.00000000000000

0.00000000000000 9.11399985930711 0.00000000000000

0.00000000000000 0.00000000000000 13.33926005132421

PRIMCOORD
 96 1
Ni 6.578129760563364 2.1903129381853965 11.373333269347805 0.04684138583357094 0.3995556019114151 0.20093428315765396
Ni 4.9086090108975915 0.5598411215585846 6.030612589817076 -0.48912460852049955 1.2316180638492853 -0.4698631891877263
Ni 2.8281744568218263 1.7662567457622922 4.42902121641908 0.9268839751951456 0.4391860718188436 2.028930781010796
Ni 3.758613603750177 4.611775144601423 4.539377174129188 -0.45162609735440934 0.01171883109882498 0.013498034486434819
Ni 3.7826472217741567 2.803584884797292 2.518719523313066 0.3180876271429102 0.2819975662885724 -0.42170154188083503
Ni 5.308540445296624 4.6893261706788 2.531791733526109 0.3228770781117536 0.18709943415709068 -0.7224943864990396
Ni 5.836833455823732 3.2035072051963165 0.2524359266518693 -0.2835407424059762 -0.6337319349516506 0.20463564326864114
Ni 5.766664769753721 8.316789314298122 12.44450260181657 -0.15686043276689113 -2.0879676804692946 1.1437701536963656
Ni 2.048772518044174 7.2429596052267025 13.543484216713084 1.5743597420954498 -0.2675222554905328 -0.7427667635948304
Ni 0.9833459169811387 0.5065132847053764 0.11978530211951643 -0.577625835986702 0.04645829146253934 0.37994785498281664
Ni 8.47879066445976 -0.3312556215305121 6.818909792603604 -2.1568436775054014 1.7617486824685014 -0.3400679880687434
Ni 9.035309733015028 2.9101731149036407 1.456087274652819 -0.251968881136966 -1.3662425680361114 -0.24195469143407364
Ni 7.151701123135648 0.8812399520792619 4.795437738584673 -0.6989209700544737 -0.8153549193752022 -0.11556671622442678
Ni 1.1836169531809604 7.7556221057382135 2.2894841950843454 -0.7075413647336329 -0.877597984475824 1.5298608883521265
Ni 7.559461483542494 3.8840678138753497 3.588407830780353 1.4765704044591021 0.6211690106849754 1.1093250846446183
Ni 7.84986997983225 4.315497232305811 12.48275952825474 0.6206673884582085 -1.0702998524213567 -0.9507348136708144
Ni 8.183797826165428 7.341345235324868 9.106552959686113 0.9794612350712293 0.924696994846156 0.22335558827564758
Ni 7.062566203046713 1.1262534371237254 0.3232863399225607 0.9355989864706403 -0.6028475866679682 0.07364230807649898
Ni 1.915106593910808 6.674018154659038 9.178037707357436 1.3358030205993319 -0.2990385809312592 -0.67931090913303
Ni 0.3515315373507425 5.140086383128549 0.7690274725673013 1.1383620953069171 -0.19798625627292354 0.676499407826164
Ni 6.625659270610787 2.283512702278387 6.659731959644784 0.6244690215924859 -0.013337854759486706 0.5484389300101007
Ni 3.8375226158289086 4.2924296982827945 13.355400421325422 -1.0314003471426816 1.861311567065504 1.128119334532986
Ni 6.326665386312464 5.9613853799480045 4.64180942023139 -0.681814135170858 -0.019620859554721048 0.3216498905728718
Ni 5.8238642338107915 3.0370855650302686 9.09650842027609 -1.1281352753725862 0.6718670512604751 0.009448032786777277
P 0.6103928340090227 5.949537179936183 12.04681959121978 -0.32991727278798666 -0.04690334941975793 1.7913335952144698
P 3.9689464959600373 6.594817494580015 12.733844760105262 1.0010543878609728 -0.844462892484752 -1.4002438646822206
P 2.690598626684559 9.105350823084914 1.4772700334739541 1.0036548015982973 -0.5625596856821989 -1.2573134117328604
P 6.418780584404374 8.074211090056087 5.82513472541206 3.535714990049117 -0.47162593751510395 -0.26435568483709315
P 4.9848476209736585 1.0977357310952718 12.487414959459386 0.4401654050129774 2.573185754846536 0.7771025607622231
P 4.1810930741717085 6.3520569903377995 8.021604170603599 -0.43616271161148756 0.3372945390886643 0.7351781526142951
P 4.992302872981097 1.1883926891857253 3.79731347058879 -1.0781018649642786 -1.712696662136857 -0.39514641710012594
P 0.684019371682484 5.934918323921597 3.6476871096394996 0.1072643670063185 0.3929126426736007 -0.39613834869975
Ni 0.614021117412643 0.21554427741506046 4.710986503100412 0.6599325046064183 -0.11145243694573707 0.6912750234734417
Ni 2.4165406464111165 6.384001560369672 5.102480196291027 -1.1063006959959978 1.3641332350025925 -1.131449941568116
Ni 6.336134832321912 6.055296036041704 9.330972450310028 -2.178890887113428 0.11077058038736406 -0.6086361683252872
Ni 8.611171514591843 2.733361514727226 10.131634616908894 0.35908643815277513 -1.2687442792776213 0.11113567703626666
Ni 2.171629238166755 5.136331415124802 7.134209534318196 1.5627257574009474 0.29181455237899423 -1.1296082603736868
Ni 0.8380268324361458 -0.17639417897599824 8.819331629199535 -0.8431454592249092 1.591895436986368 -0.686024830818096
Ni 1.394040985390912 1.4778259874745088 11.232470930807258 -0.25781119885035597 -0.5703670975417596 -1.034496212459186
Ni 4.708192150697624 7.326380047309935 1.2419638698391762 -0.7073418471283173 -0.2628495326052118 0.7164417525470564
Ni 5.6483012516356235 8.328601058309907 8.24669080602818 1.5074357265793912 -1.4885190921805462 -0.23364000092079118
Ni 5.3840772773719925 3.0938202150868754 4.493156434483072 1.0250252968542735 0.03958676115368666 1.4863359684862985
Ni 0.8854706708834832 7.24830952323204 7.087429195071521 0.5336144634027584 -0.617367377550698 -1.209701466281852
Ni 5.601892763589319 4.893716734882732 7.107037966091085 -1.1019228786432762 -0.6020065788239116 0.16708159627426708
Ni 0.8077838462059708 7.772373637754927 10.958695484534097 -0.47373989853431314 0.489755300125963 1.0269487391292311
Ni 4.7794909727687624 0.7424027443407364 10.323333936100163 0.26561346850359413 -0.43269069390248704 -0.8918460097544061
Ni 8.277535316258955 7.454860105438128 4.377117897767293 0.04957446849401785 0.01896008604227057 1.247632694109987
Ni 7.55859565354163 6.26658589825252 7.071328402655456 -0.3459553000874558 0.6473492686247689 -1.4428997516795343
Ni 2.8081327708018295 5.699449019686656 2.165575719360715 -1.0895317040677752 -0.26063632700397693 0.07144478620454792
Ni 2.6877550586817223 5.702073851689274 11.21095459958579 -0.5080132178948864 -1.048980265007974 0.6588197311582138
Ni 1.2501035832472978 3.7204532857121024 3.4876562062798278 0.22550323074626968 0.20605900597872898 0.4393755621218304
Ni 1.485937447482602 1.1703287411677017 2.7338017209276657 -1.498142217092607 1.035281427364643 -1.3061499736195894
Ni 1.156894705154298 3.4619529034541823 8.315507885896842 0.47319816709823026 -1.0732147120753066 0.802743915479411
Ni 4.002522471993538 2.776397822770166 6.890608719275142 0.09793820450938616 0.5573999958581303 0.18296587160469135
Ni 4.504485136494375 7.419124111402471 5.9762421113628275 -2.247780253885974 -2.4045255012312396 0.07512480615929643
Ni 8.868787838848881 7.278048505261712 0.24877301004821462 -1.4305029206770783 1.583583317576247 -0.1828799967591044
P 0.20692425620645977 5.517251045504867 8.102212943684027 1.104033497228376 0.7274100786331021 -0.029238842260459325
P 8.836132376816298 1.7502161057462877 7.7513904755339915 -0.20899520578891748 -0.2472133687298517 0.6266092078639401
P 2.1601820541553334 3.59278437358472 10.498077569674512 -0.5736105441797218 -0.37192472756802397 -1.1876961656553544
P 4.357403404347623 6.487108242472547 3.3995903583919596 0.4353584705426373 0.4589185172507645 1.51120470670352
P 7.110979771095018 4.333843714324116 10.144094366321326 0.15645574112930474 -0.19843799909836146 2.3425760561116364
P 6.554661210539948 8.28393334426534 10.473907241650398 0.06654734890293056 -0.495667808955656 -2.301405238300281
P 2.343993206338732 8.467744496448738 6.023743368010223 0.641552973657966 0.593283597128617 -0.6389409899564157
P 7.278294583261958 4.259163598249604 1.488794686485453 -0.2457573530096155 0.0840503907837004 -1.4354456093943342
Ni 3.197491965190315 1.8827063238784805 0.29410695749344684 -0.37760763688541416 -0.6988888312649577 1.1727302883741415
Ni 1.7731013597691214 1.3949797273918485 6.978340994762677 0.430555135616723 -0.6387257886218161 -0.6684989061191906
Ni 7.299712483283328 0.8709046760689498 9.126881736706395 0.11111999330698283 -0.1973339674009053 0.008259154684998679
Ni 2.8355659108292013 1.818078949813998 9.158603013738045 0.4201750779339796 0.32943827626903915 0.14306235054153424
Ni 6.460231056445731 2.0792406200745734 2.530030908724352 0.3634714545943482 -0.17785349007879045 -0.953175819012139
Ni 4.365760942355962 7.37529488535874 10.364391594741127 -0.13761572560466623 -0.44214978243285785 0.07833097180141993
Ni 7.523315359506428 6.6040135205891906 11.487837919862052 0.4551251116466033 -0.5162767434552592 -0.1608764959048197
Ni 7.95564706393779 3.92488941991608 8.054085555236007 -1.1826413768402664 -0.4676638675435624 -0.8021466482150443
Ni 3.093765531086821 9.122476029102 12.063133651236058 0.6692257569828862 -0.9364554209336646 1.1491987809111048
Ni 9.311226969290328 4.942977904931883 10.225663755002712 0.39519089718481615 0.8068566520962038 0.144197492587242
Ni 9.13605588911555 2.5349497345292598 5.641279826028617 -0.5756386303533441 -0.3210747347956922 -0.4772918775516296
Ni 3.8405120078318915 2.776188200769957 11.571114360745144 0.46581421592933325 -0.20288755022928284 -1.4968931751768544
Ni 1.566213559562698 3.228370197221124 12.711314952082782 -1.5358361320989549 1.328363533602151 -0.12333221910245855
Ni 3.3873456993797424 8.701719104682187 8.10758929228939 -0.9819225521275283 -0.2842020301390589 -0.7126540033698501
Ni 5.975420939962008 8.057878802039793 3.2338632050266045 -0.2598254010669074 0.4977331761251169 0.3101830275838529
Ni 3.2063507731991536 8.749913936730273 3.6760735740678223 1.0384464553561858 -1.73913994393005 -0.02818031908895792
Ni 3.5918638595838015 4.350978034341212 8.939878861719812 0.3653020800451838 0.36960173586180217 0.6723756154657775
Ni 5.225931149214201 4.744721062734071 11.490065381464275 0.5385111293734275 0.40569796736372715 -1.613111923162983
Ni 8.254358414235831 -0.13609845073579296 2.4910530648854614 -0.5901532790297513 0.4627674586832095 -0.6776638604479103
Ni 4.927812208916751 0.6255403020241362 1.298693051495778 -0.44376880609351954 -0.43858623345131564 1.2034747686458498
Ni 6.162695412148862 5.7109417736981225 0.06216932826202978 -0.2569131125161188 1.0638792936069936 1.26864940557097
Ni 8.084974724066827 0.047309862647203674 11.771936793945514 0.5049101534895304 -0.20479222345116344 -0.6094787188312407
Ni 0.12413359152385496 4.90892800089791 5.578385023365864 0.47212704552123846 1.0391997885824427 0.08869740263740852
Ni 7.82092391580337 6.107327862093619 2.457158098851643 0.05209440670239415 0.548431730921249 -0.1787433488829115
P 8.449434470430468 1.863958825859775 3.4115688886039113 2.059958596850878 -0.2834862350189569 0.02517624215531148
P 2.1249108741201415 3.712715499704382 1.4099594978067946 -0.163370465971267 -0.13997291298293313 0.08531125977399501
P 5.254740503242946 1.3135461373105977 8.104227137686037 -1.303990504074425 -0.5219899917899526 -0.051864550079775196
P 8.674358876654889 2.0729975300683443 12.376525832748746 -0.11308508745315363 0.27947582830798323 0.5361693686141282
P 6.928043562912493 7.671691279654472 1.0696163068672153 -0.6263538973200246 1.116171932363123 0.3617372455120609
P 2.2320824002270725 3.309366315301938 5.718273986705439 -1.1902780674499178 1.2960612219250194 0.5881876706629483
P 7.152566953136512 4.179944710170562 5.782035530769058 -0.06892227689301034 0.5651037922602913 -0.05802337059231943
P 2.4724459224668967 8.87442940485451 10.107371326084685 1.1914895712595157 -0.09497912188106222 -0.4294750151786668
