# total energy = -340891.9715366121 ev
CRYSTAL
PRIMVEC
9.05866960543465 0.00000000000000 0.00000000000000

0.00000000000000 9.05866960543465 0.00000000000000

0.00000000000000 0.00000000000000 13.25827863191374

PRIMCOORD
 96 1
Ni 6.479594016668846 1.9596620312067958 11.282729006864518 0.048187358338504106 0.6863552175743212 1.57804696113905
Ni 4.589475393281467 0.47327201383444406 6.074347177600474 0.08364235671200435 -0.9389524763239054 -0.914112277351774
Ni 2.7484185253649716 1.5955125651480802 4.7711904971209815 1.9540682273739507 -0.1128104936355283 0.4604732633323941
Ni 3.557466439806525 4.3206321918662445 5.007134421667824 -0.4039316194919237 -0.04855734008341315 -0.12816152217030186
Ni 5.051222967435325 4.3758810187896025 2.6107675088845808 0.3302096072174248 0.4049505476747413 0.09120757065377194
Ni 7.280108664187657 5.838964890579332 2.608154988523096 -0.7568366114243352 0.40305924418929945 -0.12714542220096164
Ni 4.937645365867022 4.39247650180708 11.531944788490456 1.0329113844705695 0.713365684724894 -0.13885859687283184
Ni 5.336734121226181 7.825965987150072 12.72450054628786 -0.13618979179141708 0.31838047579298073 -0.6507274410683824
Ni 1.8575164708874325 6.268744419117098 0.3588827554548068 -0.2707495041785789 0.7098957238984226 -0.08971864481307129
Ni 2.6360276095364563 1.3929788264446106 0.517502780717324 -1.2232380673157062 2.0096287382480744 -0.9370534595289798
Ni 0.8311048694629815 9.330067515655486 4.956939426608794 -1.1503262096473286 -0.36226123633633095 -0.6555832264987871
Ni 8.755258684110181 2.125209221241947 1.0892443466787227 0.09319606183871046 0.7472088585265841 2.1763205552830907
Ni 7.017760528997068 0.7000567173774813 4.606337201190164 -1.0672158141793942 -0.4834152168405481 1.028037601318036
Ni 0.9616412067065124 6.888656367444075 2.5442107444881232 -0.3336978228763414 0.9290789259639355 -0.627436588861242
Ni 7.7842870475412225 3.600105598410928 4.015865929613625 -0.5737740663407797 0.7346443915980122 -1.488205160484553
Ni 7.576988448539067 3.7858083286829163 12.711082844625475 -0.7749443767686396 0.30843236344133335 -1.1047816882483101
Ni 8.07632950223579 -0.007761468258392191 6.961431908637202 -0.986286485523179 -0.47979896024419955 -0.7338537773759168
Ni 6.8722420578219845 0.6784191787663755 0.2948180311119015 -1.1147341714753318 -0.5409521347147522 1.2565271683861392
Ni 1.765743087453993 6.792299297107336 9.24249191979317 0.8589299757526756 -1.0233476520415343 -0.8307576270835176
Ni 0.09123167498123183 4.910415004540311 1.394214429001152 0.14161816189583998 -1.1936284719793895 -0.3943576026502434
Ni 6.268825947145023 1.812839111584923 7.094823538592037 2.6205200211561257 1.0756989119497409 -1.3704658620888397
Ni 3.0498004685917555 4.093377343362176 0.2341204143222693 0.760521002254458 -0.5184326134559974 0.6633255894483673
Ni 6.207199816704031 5.383150745124408 4.756421241929008 -0.2642109317291127 0.5577995452893942 0.675961790155139
Ni 5.390868731767908 2.9020445059836377 9.220668678451792 -0.02291778513843795 0.3013425464740875 0.12338441249663265
P 0.05444441704783934 5.469742569449772 12.193850918134256 0.5724957138489883 0.9722834863758675 1.3469659791946869
P 3.9843743700274037 5.951074987644996 12.726528782449222 0.13080821576452958 1.0741814468639501 0.0041088799620509885
P 2.3414577859762353 8.274669076836043 1.4520467885427342 -0.2128821995481495 0.14192360895140074 0.07494045806263223
P 6.370853744757385 7.834789131505434 5.761080259636283 0.6499435117145065 -0.07473399847878097 0.44796741755589947
P 4.750946181920404 1.0002854919426247 12.66364530864424 0.030619781768385975 0.28228552984263644 0.35218225483377413
P 4.067360843784559 6.28342852281324 8.25753460296729 -1.18699913958833 2.111196826200564 0.19790166697891723
P 4.908684798614362 0.9265116853409137 3.7456757040036974 -0.6430812373770344 0.025046401445666545 0.44653351332285035
P -0.08988827425443496 5.500143465195761 3.8409230872936893 1.1292956142292745 -0.4707455917926796 -0.06187231202476441
Ni 1.6068902543784027 0.8915787371093103 2.7127636011527496 -0.6876813925849125 0.6130795488086216 -0.6800357031141966
Ni 1.8408213425024924 6.51379955371797 4.725767609296453 0.6571076335631135 -0.44066548457784754 0.2592330188985471
Ni 5.860234647197802 5.6274630688041904 9.283022220075265 1.1525340159319248 0.6497743331264939 -0.5435155245665543
Ni 8.589910784809955 2.8219477478829096 10.086381289901658 1.5562761451208615 -1.9270096805942618 2.228349398854872
Ni 2.4168259184573544 5.590268170731177 7.05425247429598 -0.4295261801315764 -0.5990449250924264 -0.4123607240958833
Ni 0.5570320979899034 9.077602389183275 8.99864611760651 0.6389147647041706 0.24105737643078481 0.9569242303109776
Ni 1.4458995752372428 1.143548354345137 11.395927956036461 -0.510455765898108 0.19453326472731658 -0.40637596726735814
Ni 4.0937940421715675 6.901093921037413 1.5577678058200655 0.24729538692069666 -0.5018723951044711 0.39218733447180204
Ni 5.6811175698481415 8.03466867996648 7.936763482966155 -0.3975694247193217 -0.08623042915415471 0.037000745594065305
Ni 5.551216245355443 2.912172098785788 4.723885217718379 -0.9049336961762996 -0.584682228612851 0.6965856370530779
Ni 0.9672304059542107 7.780228763484547 6.775762695443359 0.3412998035933154 -0.4740787699309706 0.7522577338044012
Ni 5.017497539883977 4.8448392940798755 7.111740604386326 1.0851109492922602 -0.6952010980007253 -1.1726102178565097
Ni 7.919043819030301 7.417492449909852 8.985971226865214 0.5719840643198923 -0.28781160186718824 0.7771632387968294
Ni 4.538982367987025 0.7048532830203603 10.436452677271802 -0.013739461073279563 -1.8361489517569474 0.2524440210011717
Ni 8.35236528744789 7.316261815237194 4.869208927493421 -0.44581668976148375 -0.3428440081519838 0.8507587527957928
Ni 7.2560850719593 6.169660689179781 7.108160618093472 -0.18096838155868833 -0.5216462352972887 -0.9920629829956398
Ni 2.4904366690032167 4.956269990912838 2.5870220178181436 0.13806643998883966 -0.09406869425165089 0.552852485696764
Ni 2.3792414975842577 5.38768913867886 11.430333689687487 -0.9427957613293956 -0.7325103759741449 -1.3317378493910226
Ni 1.044500859086897 3.091606229577376 4.055376223679689 0.8016969622721354 0.7580193188785268 -1.255579202650573
Ni 3.7029124416234547 2.4294084107670026 2.549249176613844 -0.6583916424818597 0.7980963894050707 0.29066886881032516
Ni 1.063080190783865 3.6227794488436493 8.206489904683893 0.49189831461089484 0.23127792844651782 -0.5344847818228536
Ni 3.9597438469245 2.8476290766790604 7.009254438083635 -1.2115207788787778 -1.067653415937445 -0.19230926049280428
Ni 4.321139477373329 6.7929062279818835 5.849194846349876 0.1360938896435011 0.9631833238468122 0.06623418853788593
Ni 0.6280221753714884 7.532619084008715 11.199307716958433 0.45747150039159273 -0.990909329007171 0.7155086992098257
P 0.31725001506178085 5.970279367556051 7.740236548186752 -0.4389045360226828 -0.615991580249094 1.361702514073913
P 8.640385692764859 1.7496639486133694 8.010294517218048 0.05005680744707509 0.594903392120227 0.5681901444950989
P 1.9347597480108105 3.4376655321066694 10.26478454407349 -1.1356853198057022 0.4825289575808528 1.2791222800778357
P 4.182415008525268 6.040167004826705 3.7817645384978715 -1.0306408432688379 -0.5870057345397051 -0.8040662338352604
P 6.77383772811737 4.083385630606567 10.365004231199888 1.1720620586625234 -0.24340556494798726 1.5981622438316863
P 6.256814151030844 8.072715092997814 10.203955576572202 -0.6493675846063783 -0.9164147002327055 0.7780453842914665
P 2.728525686551445 8.409398672315813 5.72252474936391 -0.803697537641932 0.5385275844336597 0.3402870460580849
P 7.070038112236077 3.933093240463027 1.5380262467916879 -0.4815557950343061 -0.42872322461430684 0.6522994135411928
Ni 5.365549749762532 2.8245204100974095 0.5871458339042045 -0.8570106472427756 0.18570306803019632 -1.2699881789870517
Ni 1.5675122168909719 1.2543268269547054 7.140550797720815 0.03613711204218938 0.6126332052998223 -0.532285974399322
Ni 7.029355626301857 0.8486053135904184 9.327093554370203 0.07199268828821795 -0.27180879868102864 -0.8131674248055801
Ni 2.8443860729016275 1.8613120535207965 9.222352685161917 -0.28367212577751794 -0.8012560180799749 -0.47353523872267483
Ni 6.347482376752422 2.0528123324451792 2.588718706665946 1.5520585074950883 -0.2681619459570607 -0.5865527061626866
Ni 4.218713098291115 6.928740981173517 10.401941863051452 -0.34413264505642027 1.0165573685925784 0.7892227410645246
Ni 8.091865120890251 7.026049211836038 0.19379483997696273 -0.03860511396670771 -0.6611692052269967 0.5039159078970612
Ni 7.678028851146568 3.809840979581043 8.33247063690041 -1.2728917257870915 0.8134700436476635 -2.3345943234577406
Ni 2.7717808347001647 8.470916098719574 12.55655824396569 1.0038203806418842 -0.9252510675774129 -0.7354509466597076
Ni -0.17100141510328576 5.205926929756546 10.08913965484643 0.4271661645398321 0.5798922634233754 -0.7579990071635526
Ni 8.584928516436804 2.289778074942006 5.690757806216699 -0.12299823280180752 -0.5697292068474445 2.201804815597124
Ni 3.5354810482762757 2.6279110414231046 11.665985925067755 -0.7633103920741371 -0.7986399206133665 -0.20750139485221036
Ni 0.820549707447717 3.3653411126680566 12.468416481242787 1.3204285950257904 0.013474894557983244 -0.5576488786441429
Ni 3.1208294982533484 8.666710187114635 8.025607292596183 0.45787747758075986 -0.7634379187909367 0.4306685212661357
Ni 5.7023239157782255 7.589380708783558 3.601439034600978 -0.0731478849385837 0.9026533847825551 0.1503372869363927
Ni 3.219342531995196 8.339492917705622 3.5506470732041473 0.567628615564674 -0.48763131180442476 0.43528622254380517
Ni 3.6277979518958774 4.364023220061504 9.131798598679435 -1.4692877547547598 0.3820384189632582 0.6259180953341865
Ni 6.967267503702627 6.288256793800311 11.419700623112204 -0.010579061067426941 -0.6071300160934059 -0.418030520787151
Ni 0.41162142498507465 8.794872247011616 0.6596387446005272 0.322234045211116 0.6533623075880683 -0.5148760064529907
Ni 4.323594376880826 0.3635171709088141 1.5913120599760253 1.957069990314752 -1.1568596398904722 0.11275804313103806
Ni 5.9504680567704495 5.573065756839151 0.45570544141769087 -0.1396965193930949 -0.31843575451094835 -0.14472611139720234
Ni 7.82243310594002 8.708941705579416 11.6256150573736 -0.8938296158433381 -0.4773564122409779 -0.9632370599028829
Ni 0.07433272652648086 4.844024013800632 5.886542835941992 0.15875764978960402 -0.7721683566853992 0.46917901863650807
Ni 8.030284283798107 8.367411737934805 2.8442456635202022 -0.06462339240734032 0.19774637234797557 -1.6800953311620679
P 8.61483118534548 1.3511549481194511 3.2960739942766044 -0.4251856437746936 0.738290987211664 0.41767750832310646
P 1.6279878962712546 3.1608959946432513 1.6277985700730748 0.5726877752551363 -0.39145996938747424 0.06999519824221494
P 4.764796887997764 1.1269981646765066 8.260279379907406 -1.3872587652764625 -1.2258315390744954 0.22173759305625038
P 8.526853384545404 1.4453741723906195 12.376589651657708 0.5063417437297344 1.5248644635787996 -1.1628053159509457
P 6.308937736883773 7.595033318719643 1.4486389169754987 0.6503268631958542 0.44614527674549614 -0.000962621023585439
P 1.8967676869980925 3.165923556365249 6.096249229368844 0.09292969555120124 0.9893509833811154 0.029839194848619573
P 6.804573794644826 3.8666569563745017 6.277265003902165 0.801506186417568 0.2958254733106002 -0.722621141884891
P 2.4489932548083706 8.520294907632383 10.326687869809426 -0.242303333022744 0.7941327767716323 -0.3338945122681798
