# total energy = -381173.5615292764 ev
CRYSTAL
PRIMVEC
9.23106743602786 0.00000000000000 0.00000000000000
0.00000000000000 9.23106743602786 0.00000000000000
0.00000000000000 0.00000000000000 13.51060028322222
PRIMCOORD
 96 1
Ni 4.573135326686184 3.5440190268351874 6.206526518939192 -0.5246040323740321 0.8140955930468045 0.6642900102441657
Ni 8.67921557544853 3.1970878268665817 8.15384969200194 0.8881395074370961 1.2287754521941678 1.0879329921220877
Ni 2.8970227552602843 8.929395959706017 7.597064025000732 0.6139997466300458 0.16112717846304508 0.17839984950056373
Ni 3.980786973154389 2.2963387480134685 10.496668709767208 -0.06891610624542324 1.672905498281848 -1.0818669884336658
Ni 8.18529809186499 2.3763813320255958 1.4594012676496446 0.020436156367164802 0.7519250330553309 0.44754138576207436
Ni 7.743757683784253 7.476195199919474 8.148431978640536 1.0296548252064848 -0.004497630760037415 -0.7144550611343309
Ni 4.578950899045501 4.062057289109038 8.563910314591018 -0.08359839084794633 0.06841525534960476 0.4810886255899005
Ni 1.8986736025102477 0.21423460843656417 5.446852148242432 -0.5161137355148337 0.1852176437533455 -0.40539252030816636
Ni 5.728938793297926 1.3323476275195887 11.379897223004473 0.38191140646709065 -0.4810873400383199 0.5198837440802272
Ni 6.5046069110895335 0.14007867600147925 3.7239805288341747 -0.12115115229073974 0.1324254396529784 -0.27576649777719603
Ni 6.855673629180319 2.6434176450578657 12.808386415797537 0.7361744550892935 1.607472979709651 0.30177629157739644
Ni 3.7863345418067405 6.595034445743298 8.91667185662652 -0.4544589388175141 -0.26433280201895765 -0.8733122126162766
Ni 5.615885912846245 5.885008447074081 7.269122053445383 0.3061592511364405 -0.625277119316078 0.6095661363387244
Ni 8.810905980651738 2.150561734206582 10.953935163992918 -0.6964971911043295 0.3339665031566958 -0.4304738887568264
Ni 2.6744986484448834 9.313500667438069 3.105883959458184 1.2526278333317329 -0.7919162287362878 -0.12041247435250228
Ni 6.943599544612854 4.985376327356645 9.148689192988464 0.3625363443745886 1.1337207398801634 0.09409106284915408
Ni 6.934783875401509 7.229384155203495 5.753380813128086 -0.5689411637285104 -0.14918646116140113 -0.2518637230176694
Ni 2.7669385557563175 6.8791666952985135 3.6550226103602514 -1.1364021433670686 1.037850987864032 0.6018790521071118
Ni 5.234808995167934 4.488338743046995 13.122926723938193 -0.9305233717199457 1.2142332927139345 1.659513650355974
Ni 1.8834331105019415 2.0470076219417863 9.572908426505672 -0.7802339073023531 0.18231281140172473 0.07872100815098701
Ni 0.9932720657696803 1.6334188854547205 7.216456968644785 0.5775078223515989 -0.3417602881695017 -0.1817911345702998
Ni 0.6012498716684448 3.313186959506476 3.017376486789717 -0.6191046719567789 0.7207822889039392 0.06624164473705366
Ni 7.683488045793804 0.5628698634171218 -0.21624421177406158 1.2520043408151211 0.20385094258381664 -1.0821063581379815
Ni 4.571815284071291 2.330955250152262 13.381816620133801 -0.8226414257342866 -0.6996254523206661 -0.36079107954870765
P 6.519865865232314 4.452559126436339 11.569207949901106 1.6419532728747077 -0.555317916518121 -3.0135740745035973
Ni 5.083391799279235 8.227631766213925 7.167954172061354 0.14112142476507952 -0.2194860780179123 1.0457242199645216
P 5.995670481111375 6.675326268570825 3.860059383401857 -1.3981622995628438 0.3038370307611671 0.596918622778043
Ni 3.4211719840450376 0.4124893163791376 11.747885410447426 -0.5019292164843356 0.4067688318304027 0.6936808047014569
P 7.61894442367262 3.7726541001614895 3.3372800449950764 -0.33693638441829715 -0.7179347921528151 1.3238463624580878
P 4.423305874362248 1.3880386561604794 2.973980316601802 0.6014113684420739 -1.2792662618548678 -0.6410418383495025
P 8.254909569899294 -0.1968340466947974 11.3795593659436 -0.5226751907824353 -0.3423842949067458 -1.483520096304058
Ni 8.57428603416542 8.895850261366718 5.484952455156474 0.17847723970571844 1.0223809172528908 0.034394932540102056
Ni 7.710885853353255 5.578657018679378 13.08128722584548 0.8583903011991216 -0.5231670428171893 -1.0658963240370223
Ni 2.877508279121242 2.9530553333889444 3.2841026359628236 0.7581933825625458 -1.3561067651536902 -0.09862777437724304
Ni 0.6581335541963573 7.527058380395407 1.6889197541105287 -0.7450658440416523 0.3666339114827299 -0.23592879695496788
Ni 4.001630722975561 1.5381450405015242 5.277226672228727 -1.1305654820806335 -0.47135211502842694 0.264607395836583
Ni 7.695728440950082 2.0239668781182054 4.792669490823515 0.5896678547529005 0.19924866792511492 -1.103497679329564
Ni 0.9021789711681265 0.6204246445331651 12.238671716024172 0.21630202386297587 0.5791183613718285 -1.1630202601752295
Ni 3.833837613808402 5.042821258772568 2.837860845338277 0.6485566586693088 -0.40068740152301313 -0.4431599688649271
Ni 4.2075019844953925 8.497935877048096 4.997570567176738 0.768712794036631 -0.9727866512645311 -0.410222594706958
Ni 7.3168392862069425 7.72013538272474 0.8637675772881978 0.05628504774497403 -0.4996144523082298 0.3592520171963619
Ni 1.1805704200086449 0.5364182402494652 1.0209514208798596 -0.7498385828399473 0.41421526080611887 0.3700110554850789
Ni 1.4327724079910373 6.464941015172094 8.222618373597504 0.43638305515240977 -1.208177573438158 0.5070212862952622
Ni 8.92318345145551 3.8293697772656885 5.643229257108997 0.32804859501036404 0.48089862106628145 -0.15172722530538385
Ni 4.250435678214734 4.770689396625468 10.89481294766003 1.5845924755670517 -0.23313015116390817 -0.3196827395441721
Ni 6.837146877235637 6.811881446207936 11.469202259882218 0.33859885972238457 1.2710135349277725 -0.8069283858744039
Ni 6.778778839096013 2.853627508179093 6.8786516017466885 -0.6907623455030814 -0.2544433108193876 0.6537708558803966
Ni 6.565799655803683 9.206152586538861 9.81316725969682 3.4212052543342955 -0.5101950560375536 0.992865167181961
Ni 2.252721955318589 5.77464180718837 10.63970594281815 -0.7814204714112866 0.5883277957852383 -1.3673625405731675
Ni 2.3084776014301385 7.128839370857966 6.008839521631695 1.7916608966469014 -0.3929416961393232 0.6451689731439985
Ni 0.1771081791160274 6.462587093026657 6.105278327270202 -1.6302398410925214 -1.2598922282036302 0.7759131684398121
Ni 2.160808218839665 4.68447122863178 4.623354178668974 -0.317677279078369 0.7173251835932742 0.695530456315686
Ni 7.937757792837288 7.411356183646704 3.3834861520499375 0.6729885664594281 0.6018867654165957 -0.4620483211289978
Ni 2.300778891354471 3.567973646315232 11.890827563505825 -0.2127744703256916 -0.1286412900201978 -2.311083127709678
Ni 4.369239513555072 5.846681055906008 5.295709115050671 0.25785567893504624 0.537436665362326 -1.3844367224466352
Ni 4.483907830773229 7.394075625779019 11.313992941572554 -1.0735625823330284 -0.5423107056251758 0.37177688913625
P 3.283629082213565 5.205564974161082 7.1198021560329305 0.5328531597567017 1.1958452771250503 0.3753275826019859
Ni 5.34756648146803 2.9433257885211344 4.107667992327113 1.3317771872693902 0.7621929906402422 -0.7955574250333007
P 5.902704402967431 0.9454366753474864 8.13046278315697 -1.6229492209683791 1.487725135524341 -0.40787414907943953
Ni 7.612814995027244 5.007678585801266 1.6162731011686955 3.019265725571736 0.02103676606564119 1.530283577711842
P 1.1684315665919744 4.157368058331183 9.449516750748538 0.2851502529849412 -0.2894038860549726 -0.19035882163465281
P 1.6174583702019278 2.5015269105577613 5.192178080453967 -0.2185064877134624 -0.7602158123092133 -1.2519696309224437
P 8.1173112816644 0.30251684306444787 1.9160464710503033 0.7273905382490763 -1.2296120891628501 1.529367750765792
Ni 8.83696528346182 4.770800169432311 10.807020882702432 -0.639415615599989 -0.6983437573947651 0.3671972401853676
Ni 4.819798674326369 8.104886265163382 2.380243610557561 -0.3609890544921267 1.278428853555237 0.8514097561162305
Ni 1.71691388861349 3.7896115706758797 6.882515726492101 0.3322405216045246 1.021819388322466 1.8699599867691215
Ni 2.1658114572821248 7.94905661913539 12.81095357559615 1.6157629876325852 0.23109280901890525 0.2296329366439271
Ni 2.9153833479947004 7.044125866823911 1.4087504017201622 0.5644137081718021 0.17224411431181302 -0.2595610916619272
Ni 0.0016791311304124017 6.960963182085673 10.175751580379224 -0.3535423684060944 0.8459839571149689 0.123211120143562
Ni 0.6818943212644251 8.600280719504845 7.527890099553462 -0.4176908780595452 -1.4502163399456056 -0.6644417053306815
Ni 2.759479853428812 3.9150433122923927 0.5552653102272717 -0.16351419063798292 0.5019711254658645 2.3893775898462075
Ni 6.646506876656874 2.8405193927025367 9.520919978933545 -0.6513239370018008 -2.022383981031214 0.5913539842060719
Ni 6.049819921523684 1.1317565364593276 1.3923080247575974 -0.8696501903836571 0.3660710970007244 0.8771513838567088
Ni 5.421775030986367 8.959618473839992 -0.45088778676493463 -0.16172830238215374 -1.0399973447830733 0.2279439789772784
Ni 3.6630074835202664 1.926163720742068 7.8649255954439905 0.7672043278119046 -0.3702118586419753 0.1394437799523405
Ni 4.360913090907287 9.117497416794603 9.710243629324312 -0.4686532280400252 0.6865843028659917 -1.6600206718993797
Ni 0.3503116167907989 5.632021818376542 3.0641096877838123 0.30379409333837354 0.28644326076475185 1.354440433194861
Ni 2.259239088787919 8.235930495659998 9.799035418863678 -0.7632486855982662 -0.06217210265337034 1.0634350069807235
Ni 6.457925404071966 0.6014788021359225 6.121423463867735 -0.9383608654864937 -0.4298701937345565 -1.053730892319082
Ni 5.9121016294147095 7.094093633777854 9.376356850468328 -0.7041315677211356 -0.28715108546505386 0.21676867908674924
Ni 5.864229314723568 3.683528145988143 1.7866961413916789 -1.3317311645228032 -1.7555309836935638 0.04055632415580757
Ni 0.7374801157388139 1.0806902725041796 3.333065139694657 -2.148060789106449 -0.6175607245084267 0.8497907324555688
Ni 1.1308057365339155 5.603534744883124 12.594581051987495 -1.5708134195050882 -0.18122214944070725 1.0829327106940188
Ni 3.5351848954893668 0.4607714904556029 0.9262674411231082 0.4056406317632305 -0.4228004313719686 -0.10741040566587953
Ni 8.094473621320033 0.7851484238440178 7.8544012556870735 -0.47025014021349976 0.4796174403610128 -0.05041830455155187
Ni -0.07585260259324765 3.515393487333214 12.988847318534047 0.4314046281012119 -0.49926195406481755 0.44140596228829787
Ni 6.676895550001117 4.617462911558313 5.313732773830936 -0.0666692191927755 1.0001156780967873 -0.7844021797474298
Ni 9.29956175591018 7.603842397672869 12.61390167571456 -2.8649077475117237 0.1991514802256183 0.34125506639830905
P 0.7220817724807549 4.91688180845802 1.0990480959184246 -0.10870675587979989 -0.27890015831017123 -0.16806298635092992
Ni 0.23452172490334444 0.19096585725222912 9.607941249776854 -0.21233044080973754 -0.011912692277185936 0.8062138763058825
P 5.474502887044177 6.724010917178824 13.29544337021053 -0.28759614342227247 1.3139221613658403 -1.2890004584234962
Ni 3.2712594521159697 5.952653707786902 12.959894076145162 2.43107522669531 -0.6356849449129632 -0.6536816386006999
P 0.7559136339044022 7.645705287592717 4.503880167847228 0.9022396942839042 0.3940426425129859 -2.391097657861108
P 7.879611300311352 5.401152826778883 7.166968294080442 -0.7327276341912736 -1.031670827195249 -0.049013710894541394
P 2.34411875203224 1.9289422719804086 13.217406697109006 0.16920121372043118 -0.6287972166541945 0.3017004440341385
Ni 5.700931735300833 6.1373304389305545 1.7722125968968079 -0.9886770972425426 -1.2540175145904082 0.29502457467585963
