# total energy = -340887.20435590495 ev
CRYSTAL
PRIMVEC
9.09372843792027 0.00000000000000 0.00000000000000

0.00000000000000 9.09372843792027 0.00000000000000

0.00000000000000 0.00000000000000 13.30959077705837

PRIMCOORD
 96 1
Ni 6.267597598522666 2.4057640062046315 11.014617430571116 1.0965194482395182 -0.4527658673858074 -0.5923081205892251
Ni 5.04444567506507 0.3444331432860307 6.016773475493784 -0.8892093434625074 0.3886636375892597 -0.4681824590511937
Ni 2.9918729818612166 2.171091253989125 4.58427574247725 0.7918434665168232 -0.3782758665970324 -0.3697104935255246
Ni 3.7249911690312434 4.731966983612337 4.867956415185659 -0.13628672238059755 -0.9295527802765604 -0.037002545366278214
Ni 3.9367204447746222 2.904345847083481 2.2392987630177386 -0.06497717620233326 -0.059778405610213185 1.1789320463094792
Ni 5.430892752417243 4.565069788331735 3.1114891556509208 -0.0727539919342747 0.2339639599191132 -0.5576956727216783
Ni 5.394581495360879 2.987880835142523 -0.094041881723686 1.1091911301699156 0.6897174491783348 1.8143567955825204
Ni 6.127226808659899 7.924156612214745 12.17714419564713 -1.2894015505166567 1.1242837628369797 0.3333494383979872
Ni 2.2489608493243716 6.4890116948934 0.31949904969152954 0.24105300555541065 1.6543115373297443 0.5613942046191881
Ni 0.5312028629957005 0.4819203119084838 0.2241231180279065 0.9661658035139037 -2.956405338602089 1.7421378502161096
Ni 8.640651464073219 0.26901521709738924 6.67338885469034 -0.7330037706707957 -0.10509589860008998 0.06808255460053436
Ni 8.65643817638222 2.435318623142568 0.8913908905417237 0.20344316562243672 1.0112074171345746 2.26651948216669
Ni 6.803845661972881 1.0899833663993972 4.617602437909296 2.39683224635204 0.3309822237173913 0.09582372926954465
Ni 0.7704443043033978 7.250875157183678 2.064198115447995 0.15469864922888196 0.10474031503288414 0.5042342104684284
Ni 7.670878091920771 3.9650110334804447 3.761090542218483 0.5224607607787841 -0.015044553037948284 -0.4491904913297232
Ni 7.653081665659989 3.962874007332624 12.524191785816132 -0.09194573437137712 0.3492997910796565 -0.28743982035006627
Ni 8.54510366094494 7.552150375384862 9.168923418441505 0.686269085618418 -0.9292018246950449 -0.9871578323845385
Ni 6.9871115681729545 0.9298337175089342 0.286011395268775 -0.3431725951359961 -0.8834675558827235 -1.7302071602167945
Ni 2.156659507195123 6.624135403533647 9.099248181667111 0.03014129947007067 1.1335369060041316 -0.10265052238339094
Ni 0.1347763282196226 4.731457734828175 1.318904335472367 0.7640030472657875 0.724964445306087 0.15638709267489842
Ni 6.8289716332342705 2.1586328462337483 7.135338429904238 -0.148346481758609 -0.8085918896197558 -0.2510072885546451
Ni 3.661335071011072 4.599489549904071 0.33043698607705274 -0.07087837217811664 -0.7356820888339073 -0.22657486654389367
Ni 6.852406171033982 6.166375308942305 4.601271920648636 0.4698835009027004 -1.1026391879840107 1.0757079108108054
Ni 5.517583264192428 3.2801896372511505 8.793567052110104 1.1143598188550485 0.4826230599565559 0.9401112725186971
P 0.6421372543882824 5.726593515177517 12.595904017727172 -2.1194238420960465 -0.12928483714146766 -1.2563649317766623
P 4.206658675293304 6.570127751227676 12.614869897445868 -0.34291214238575785 -0.893553736474132 -0.22143677398637993
P 2.3946241890511013 8.81492367299587 1.3000739523051714 0.5165258833515878 -0.8584417232623474 0.02350528221079178
P 6.826234421019404 8.274610713000655 5.619788585800786 0.5680549044688152 -1.9761738010237382 1.5602870660524677
P 4.879376319170476 1.1780561248744488 12.119952829067321 0.04933741278254729 -1.1958941280851145 1.036041959679751
P 4.233930766430803 6.624517340121768 8.082075569556014 -0.24049867571383743 -1.264245362966003 0.023021400595837772
P 5.049256257329738 1.1222479143673356 3.545195429546098 -1.9093683133634152 1.4628959922958031 -0.7803722326524303
P 0.11034602717230964 5.814502586543374 3.60405094840272 -0.1965227843535196 -0.00873660854204947 -0.5775119361166571
Ni 1.2104025163969845 0.5721910245108891 4.793768870434463 -0.7938574116230586 -0.1743832721420029 -0.3710137857179804
Ni 1.9968554199796267 6.556705408273709 4.536986536630894 -0.37753770287942723 0.7750387362546588 0.08311605189488912
Ni 6.18188011567436 5.851168499002993 9.046941056551107 -0.10952642356761781 -0.5596733652733393 1.3092311836480743
Ni 9.169115296108393 2.0264736930155838 10.155470172422266 -0.35692619727666275 2.23587604624922 1.3005966479015278
Ni 2.6115005150058255 5.482399629443851 6.928027796736289 -0.4886237576246811 1.6483879727564579 -0.3962779596014078
Ni 0.9772847917188278 0.26227858318119734 9.080787913241261 0.7829808739198709 -0.9646755921216223 -0.9815165749383612
Ni 1.7322915828795051 1.0731235941523403 11.735439078349303 -0.08479961024489911 1.6140110379384849 -2.1994717965885733
Ni 4.291821440716005 7.218092266703291 1.553814433996206 0.4190936719443427 0.42680132500124557 -1.1450433639818343
Ni 5.958238055872921 8.131011649595436 7.943602640787078 0.22981059987237198 -0.1658793484360498 -1.5127370841876464
Ni 5.1843617785134075 2.714814362092564 5.437420230582797 0.3613369247498487 0.860540514772905 -0.6261579792591345
Ni 1.2471320849546235 7.677280076635942 6.667173291405085 -0.11511008830298239 0.10221446328723686 0.39508831016868085
Ni 5.3542053417595135 5.0092711340447815 6.939634122151024 -2.149912240492891 0.19998965985619752 0.06759944431652873
Ni 1.1179647683434069 7.641914567321593 11.374416246546387 0.9976278786779269 -1.4303154872566206 0.27036949513134084
Ni 4.767377961568129 0.4085448370934609 9.982192817374386 0.7419712642767287 0.11491879822778273 0.8908311953366466
Ni 8.575422151059119 8.007764350100095 4.419582866933805 0.6240463322327704 -0.7140436846285251 -0.1057625856498114
Ni 7.332236744181746 6.200049384794976 7.040107997893233 1.7152618517608718 1.413792807011249 -0.609775167025737
Ni 2.3923234757940866 5.355169276958105 2.486910071842259 0.18491913867632023 -1.040840409509659 -0.30043546127878584
Ni 2.4108474003179565 5.55960538261403 11.297114099856348 0.9841689249595438 -1.2508576288051876 0.6308384154539394
Ni 0.9863603325508465 3.444158652022824 3.8075012939121606 0.7521530899057369 0.8228111185429313 -0.8432351907252381
Ni 1.6752920939665858 1.3439439163150158 2.4387560524356573 -0.40981764595905557 1.2832890098610155 0.13379480919667927
Ni 1.3006759571178763 3.8729461282866993 8.182376664460742 0.5725437934781042 -1.3348134029925527 -0.3934813706928772
Ni 3.6379369081245145 3.441967063505272 7.191810482576419 0.09817654577243737 -1.2394936099426201 -0.5328135647680178
Ni 4.226237472298651 7.041392032327583 5.539784692436207 0.874862587822532 0.5357173686783742 0.8315839796395549
Ni 8.265607921994945 7.323097547251708 0.13667055182213714 0.7197821297741991 -0.13097250925653572 -0.36394530890697324
P 0.4371764406101052 5.8984195111905375 7.859087348818525 -0.6392130126708798 0.5742090969956692 0.41825729208597645
P 9.026307387064282 1.9512139976991638 8.022515286757027 -0.7696761863911648 0.12256525902944698 -1.4401525279517002
P 2.120066344561813 3.4647559465964934 10.200603255291398 -1.1284096120798954 1.34341734261148 1.4790227226543367
P 4.124669621043323 6.36861073235239 3.4688390305980734 0.2923917650387029 -0.34375854954645313 0.5126234629733881
P 7.2904328752390715 4.227983468130062 10.389267198603582 -0.6771982336654014 0.8117522896256084 -1.6474371788074145
P 6.581403974305535 7.780148331036539 9.89931439649778 -0.0738528814254083 1.1370780863881707 2.44377261965732
P 2.930208410336247 8.835093562339976 5.774431982212505 -0.7145741032106984 -0.29222361489195475 -0.639655499524937
P 7.00054300485521 4.117994824479494 1.3060603536375541 -0.6395665393555566 -1.251047890439123 0.5439983777402437
Ni 3.240431857173409 1.8567847231503836 0.2794666390194725 -2.0215447729593703 -0.3188551014365541 -0.4617660140018886
Ni 2.191606705008197 1.4108555690625046 7.014327278195064 -1.5302439827231582 0.5221164900654879 -0.6868319001004235
Ni 7.1968493174211305 0.741673566743938 9.14871988230273 0.5592812720412432 0.3027291424089689 0.31279989638140965
Ni 3.1343898916000916 2.03880478857492 9.055992044316747 -0.2610145362790021 -0.911890844220423 1.2678099403888101
Ni 6.617860731014516 2.1818855094676883 2.2531139550337733 -0.24268128518745302 0.1004054351029561 0.942934343789789
Ni 4.237295445897584 7.180516981414812 10.571674656853212 0.17430356794400303 -0.11616784014353541 -1.0622782676684608
Ni 7.558425047903993 6.33318156694002 11.30636424027151 0.6378274451772628 -1.200855842965764 -0.45020684840937947
Ni 8.027443178116616 4.046963712817271 8.077963385623912 -0.6449386023007474 0.11605522582507109 0.3907066361612174
Ni 3.2058665959484562 8.633340106529188 12.554603941331683 1.6781646897982583 -0.7648913634080118 0.31184910243236613
Ni 0.3235384837973238 5.105928372024268 10.134308157321875 -0.5886874931175022 -0.5088387991199753 0.20054990323504168
Ni 8.570220538478043 2.6031524724368946 5.6582932501203596 1.1155078164165626 0.23112469069810518 0.2630408226804115
Ni 3.793057725271384 2.9865986194538308 11.519530325084485 -0.9512613755982455 0.6169238622553762 -1.3456238633444955
Ni 0.8744383622661233 3.471121556398511 12.497705392802766 1.6315914700244094 0.1640564362946981 -1.8610143475400596
Ni 3.6626900365260724 8.741264473858244 7.942790570850907 -1.9181419457909867 -0.46431629122756807 0.19279828431408086
Ni 6.001778826918718 7.9499100507280485 3.539312696716205 -1.1957218641733085 1.2006498976025453 -1.5698189168023027
Ni 3.444949806383932 8.642561147013824 3.3729292970839095 -0.5339402221732933 0.16824579178569735 0.7578262290311143
Ni 3.8271683000819072 4.730712049108511 9.388531500374123 -0.7298747381235107 0.563559844811939 -0.31172568948062446
Ni 5.257357135485967 4.953853953854078 11.341607893626792 0.38803397442506077 -0.24611319368713744 -0.04693574531959013
Ni 8.374068819293027 9.114189177245276 2.2224217126869332 -0.6009154026422618 0.5267743005524735 0.5199729613599239
Ni 4.897027245778642 0.6104847143341665 1.215846022150538 -0.19943944377968234 -1.1726724385530127 1.072769654118088
Ni 5.912751226973365 5.702749759604819 0.26000060424490407 0.7367388122331957 0.3681233515440628 0.21099886648250757
Ni 8.430304435029706 8.82225321799648 11.32636862376076 -2.307602368249929 0.8442793157190362 -0.7114697532537618
Ni 0.17080204220772427 5.166610820894068 5.7240818274242065 -0.03349196110985845 -0.4372235487758341 0.12064670185049545
Ni 7.402731325874942 5.9980049296789515 2.13267570820678 -0.07271388272495864 2.047246291490532 1.6647530443780423
P 8.673934509609479 1.7980028634928995 3.5372229579554855 -0.21721862213997428 -0.42023112798289564 -0.447220769197862
P 1.8945600704612109 3.4182415264003256 1.1297602433065446 0.702898466644983 -0.26138657490644013 1.5252678696648052
P 4.910385932634589 1.4403374361741328 7.969090542434355 1.011678186123406 -0.05971284247960039 -0.5327863110745081
P 8.518258975037005 1.6022694558091604 12.225723801537637 -0.5699726903168184 2.0437115388643967 -1.5402026365977668
P 6.60332895320934 8.063772622629557 1.2501939432693938 -0.5563301598327193 -0.49346951575275655 0.5709250269277587
P 1.9296527679269027 3.68135946070256 5.778811521756293 0.33375490136652197 -0.5957060905271805 0.35097897855429233
P 6.861254368658786 4.21776211753368 5.847954775425802 1.7672307886289953 -0.7207123548979523 -0.8745882511152229
P 2.641091506856917 8.766208570553863 10.2703985292792 0.5841165859173683 -0.26074894132244125 -0.46104970466115436
