# total energy = -381162.5084783514 ev
CRYSTAL
PRIMVEC
9.31413638089150 0.00000000000000 0.00000000000000
0.00000000000000 9.31413638089150 0.00000000000000
0.00000000000000 0.00000000000000 13.63218008076851
PRIMCOORD
 96 1
Ni 5.743217598387391 2.0666392164378484 6.879983731306135 0.23771082855605516 0.13240975592369453 0.15048512536816663
Ni 6.598422975907381 4.687367094176168 2.8418734186829835 -1.387723620728023 -1.2315285894592727 0.2660508131513289
Ni 8.571212953809306 1.9754817633263875 11.016369360090485 -0.6188696731278374 -0.6444212963446966 0.48837693172119756
Ni 1.9027756144566554 6.1526484069981615 13.947492696746762 0.49444987738815493 -0.49039679036470385 -0.6079921069833851
Ni 8.542888664965743 2.8429818009165855 1.5483568897645756 0.7106647408539631 -0.23755527681479732 -1.8868387648023313
Ni 7.178758873630464 5.275117044487043 8.537874865332567 -4.5122755065337845 -1.4243348441931534 0.6633302174340576
Ni 1.1689520627207224 7.672333590630826 11.86220471637515 2.8965055769226633 0.04375091983370529 -0.6455651801411527
Ni 8.286116552226725 0.9474525845922195 9.224037049609967 0.44933601576865195 -3.588796443255129 -2.2180629293271994
Ni 9.144833359175859 7.257454012216213 -0.030026912980558748 -1.2666670850336186 -1.3242356274767066 0.2516806604725859
Ni 2.5262918486081363 8.53726292656998 0.10621654887018298 -0.5490611369751318 0.08742136413846234 -0.1287490192426557
Ni 2.493375690511079 6.735964828374628 8.16547147463324 0.15961845512800252 -0.7857540657896338 -0.11967636751742615
Ni 6.561538995696756 2.243859290040768 9.54484385021465 -0.5809764976264897 1.0874208283723596 -1.8903277517921961
Ni 8.463858217468987 8.424179996333315 11.45176704961772 -1.5016805692631685 1.3595607851405618 0.044276196209556
Ni 6.912486341746285 3.1223686368756525 4.755626674320508 0.7900578353713104 -0.7708488665430273 1.115727902847169
Ni 0.13797030274242097 2.852994497564672 5.596719272341725 1.4120084614173165 -2.1295663298466874 -0.5826790821398933
Ni 2.695334110437084 2.064329310606476 11.315459320225703 -0.5369707814695011 -0.007833380001489735 0.10784440787950461
Ni 2.5967998612834977 3.859591848403727 1.090146085911612 -1.0346818461074312 0.004662952693308099 -1.2577978075684466
Ni 8.22773554516607 6.118195416392328 4.101527473244384 1.627925334026732 0.5992423858152132 0.2106499677835211
Ni 6.6292061967649865 2.8851096399298823 11.705952626673785 -2.030939841021025 1.310440116354511 0.7739385612119446
Ni 0.5221970582092642 8.17077960097719 4.078829854210224 -0.4403762354722029 0.23602624176478057 1.0420922796388892
Ni 1.7716977726626846 4.339735580691029 3.7472410092894233 -0.11840932787954446 0.6796155848576425 -0.021329100495079394
Ni 4.552423885769215 3.252999400121616 10.17451393429673 2.925628205320232 -1.5917190593095039 1.2341457153671456
Ni 1.9085596931715036 4.7747523220388155 11.736965906700885 1.480909141043772 2.613390609200196 1.8259663547969907
Ni 2.627536511459019 3.8968390799346078 9.835618149356929 -3.23784317573245 1.3252638116309048 -2.630690533931224
P 8.639755683700717 4.099924510367049 9.925794823903699 -0.6766631870975378 -1.077456518070796 0.9133052080694464
Ni 4.064242053754194 8.422233341822198 3.9212970707515473 0.06324091023751689 0.3535467392814685 0.3820075657253227
P 5.796680741419964 2.7332612739263933 2.94377379673761 0.2320117212887488 -1.1649876683142453 -0.46403192721792985
Ni 6.6817844968379605 3.554730849344645 0.38652641574815727 -0.28553463290755343 0.9881248242834981 -0.4295043257547055
P 8.314021704931532 7.966539217629061 8.337046250153922 -1.0687595045174303 0.25529177486261195 0.7457939804569286
P 0.5882603649865169 0.42371310539232904 5.840420857447013 -0.574550539495488 0.2339253933716939 -0.6084826734665585
P 4.445171604929482 1.7138849279234551 12.395345884874182 0.5145808438100751 2.434690454850394 -1.7383801829458898
Ni 4.499845585696241 5.078821619502468 8.76322853311035 0.21518642220129391 0.7517723095275505 -0.03559898015053224
Ni 4.817411066827871 2.374620451196567 0.8897412639399332 -0.8269567652801886 0.30282555877751716 -0.09530410932064877
Ni 0.38658043773937484 -0.29442637203131344 1.277955401206819 1.770359564065964 3.9322667721372015 -1.5440130114827926
Ni 5.90445461389904 0.6016596816357606 11.079963489303637 -0.08183101453487843 -1.1782049383354678 0.8924227081934824
Ni 7.101172117278315 6.768731960289017 10.290033442620036 0.6392446372397637 1.1804196865985992 -0.47821336092463446
Ni 1.3942423943708726 4.3897338649765425 7.115084642844127 0.29926869466419426 -0.003952299779528677 -0.6211055044368916
Ni 1.1228098309117738 1.7992862447293188 9.19273782559487 0.24246968339727917 0.249521448037738 1.516867304305936
Ni 5.9801133440129055 4.560983577136277 6.689038346279383 0.40786155067394914 0.5192268272225188 0.9798615558334415
Ni 8.113339321694632 5.261825771820235 1.4455427949274586 0.0853724520292336 1.7782405094759375 -0.6248613719348981
Ni 4.054518095335029 4.756720153935843 12.841909361137906 -0.4652511443370116 -0.8161681593051169 -0.3579713507117254
Ni 4.721671058599333 4.04131996403239 4.920658269008371 -0.6903589394170756 -1.5341870265313062 -2.033816648348188
Ni 5.751972886619206 8.681259475574088 6.13992063958457 -2.129755048818726 0.452789264424575 1.6996431713870084
Ni 7.424791787080882 8.655580401472902 4.802030633362769 3.3937998657381483 -1.7890216592518415 -0.7536422728567537
Ni 4.812763312755876 9.582756111085695 13.693116179894153 0.1728130994414056 -3.583489943440551 0.6516029016948003
Ni 5.583154164064262 7.051555712585892 7.997836578816875 -0.18636641264580805 0.08953506804735548 -0.8491165892066795
Ni 5.996431711015181 0.7866309795647614 4.240589392774857 -1.5649446194291372 2.0441172589432473 -1.4171414117685077
Ni 6.0185155284594725 0.02387865153181291 8.636504118677603 0.24928516365721587 -0.2322354072637807 -0.36388745908584424
Ni 6.9640959716319095 8.444866693315083 0.3243107787246948 0.13030325110365298 -0.2505198073952653 0.11256443906299322
Ni 4.701636351166743 7.443503887142283 10.094343436502554 -0.8190061429745442 0.5504662448527745 0.13641887708308764
Ni 3.781837437596076 1.2196768496467485 5.742883220890027 1.0485061535850329 -0.9690644652179374 -0.9116190786162752
Ni 7.534381916161239 1.4406361078630754 13.263811798410805 1.216973060242601 -0.7707051418763115 -0.9452110556391077
Ni 2.200772094976538 1.5103896754886739 0.4199818623437491 -0.014713652061090791 0.5479787025442304 -2.958730644301156
Ni 0.6435928551979461 7.798540139078798 6.915918601015885 -0.2268633443185899 0.130499169164543 -0.8528539447619247
Ni 8.78296984524581 3.774963604920459 3.4533716226158355 0.7557384932641501 0.8027295173017078 1.2622869536880517
Ni 8.727420335655868 0.943019055657811 3.4911329944769256 0.6590377607062908 0.8622808945027794 0.9132846392441563
P 3.436115322076385 1.940050788396787 8.793397020964445 0.3765164607037645 -0.16941718638597922 0.6630803062067806
Ni 7.760268352542066 5.061199273401836 12.106003168499171 0.8166888076952774 -0.36228309071320186 -0.23583957967527125
P 3.573089012222206 8.019303800430372 6.020311293960636 0.059540064347161976 -0.23906451437047213 0.924917081276762
Ni 0.6484129207936528 6.069100603339246 2.472850128089323 0.270201859205225 -0.014530332405691106 0.5655781607935485
P 0.03050752241966689 4.437524698931268 13.69829577115555 1.5341512881973642 -0.2839469767054594 -1.3830534689458633
P 0.483401817205907 0.5580359923139215 12.698075809521095 -0.13240564215863646 0.0010518383032820594 0.3062554103946726
P 2.772520358923308 5.678558863381795 2.3064288642480695 -0.9269161139846618 -0.2747650530958752 -1.6306517318189593
Ni 1.842885717296474 6.522605905474429 5.255164301454922 -0.3702686800218397 0.17135194151484684 -0.4699112688168423
Ni 1.0598835252797076 8.47980401901459 9.161506594775616 -0.847123984256683 -0.018223207876246036 1.1335243075986412
Ni 6.354038664602741 6.996760648045713 2.913278382695285 -1.5816971562971276 1.1667851265343 -0.11013268969304904
Ni 4.650240946418706 4.741780279123256 1.3588207335776892 0.9592461935759351 0.49946121455981723 1.7615278247069468
Ni 4.191277560343263 7.193968858399138 1.5663238589126298 0.8063501447734306 0.321122300204176 -1.0774192370749573
Ni 0.6742810718640994 3.107894468883907 12.027059342471093 -0.170988387527841 -0.4413828223598463 2.387469059969585
Ni 3.2827114952912857 9.033026465628296 8.332792484052359 0.9928299430686515 0.5332424247753205 -0.9805701518646921
Ni 5.360881612613163 5.397011147774026 11.093009800182681 0.6079203732051852 -0.6520489880932835 0.1882363759750113
Ni 3.075332247970689 0.5970277615956738 2.26739983842065 1.78661099292782 -1.1663657796086946 -1.017420487923822
Ni 2.089281882067149 1.851864544802293 7.177152185098562 -1.4208872519641853 -0.08385987203944913 -1.7404188106424736
Ni 3.9561328723641123 7.219014571223979 12.44931571692783 0.3189854563668313 -0.3394532373028799 -0.168864913426935
Ni 7.315564909320781 0.9879411355961554 1.8039740495879064 -2.52718152020228 -0.905788330867111 0.9500892096670155
Ni 8.009151391736033 1.050364477861713 6.836715841995418 -0.41958912352352257 -1.055350430200376 -1.148282182634106
Ni 6.1795010622878666 6.004190386650396 0.02618017464041024 -0.4510087754853846 0.7506253404073008 -0.20355577994090104
Ni -0.17117985613660863 5.501077993959205 8.355980958075685 4.160884894363369 1.7811288867673263 -2.2295832712619728
Ni 1.7834894693663845 1.1348064386166439 4.083137642303006 0.1239881075189026 -0.6636238374150765 2.0715126202370646
Ni 8.446962374008868 3.0433475035153137 7.956981050838116 0.2231499000227447 0.3225315218468768 0.6614281153153383
Ni 8.4489183426564 4.6561181664977225 6.26205132193654 -1.0264131783407355 1.1682725097131041 -0.815826459694982
Ni 1.3524219218593307 2.352368979296773 2.27662828478244 -1.6342124525870243 0.11855536653910549 0.6369535272127417
Ni 7.422006860292251 6.8228005221886825 6.448456996873731 0.32482905963180186 0.20410008248014525 0.216490228614382
Ni 8.349853187727055 7.825187883367333 2.2194692924196713 -1.8616242132099166 -1.463975084292595 1.8230823483809764
Ni 0.36465775485509505 5.980094715740071 10.399949566474984 -0.04684832781210642 0.8395574847633348 1.4757484227784392
Ni 2.964484710474061 9.100991719061865 10.686580006325414 -0.09049486085746349 -0.287599228746066 0.4586884035178294
Ni 2.075590101534417 7.912275058864641 2.3915479627205034 0.00741506151714852 -0.7750137965539944 0.6455816352013849
Ni 3.673877282388663 2.6024349138156766 2.978821960660479 -0.333581094792819 1.4842322918797342 1.5552019382200766
P 5.393294807343712 9.003007003956872 2.126388470138136 0.453194984503426 0.016792646077306565 0.868636147296846
Ni 3.6366114225849486 3.7380237398913336 6.973350497575667 0.24081492140267555 -3.4664587268554556 1.5634893750398493
P 2.634475543089553 3.0362967022477774 5.0605239985116155 0.39009317094693463 -1.3004318401888895 1.5414539925063646
Ni 3.6901956493909402 5.697289591716029 6.263904835083489 0.9107258773780443 2.8719790525362088 0.4526583952736656
P 6.334451035718158 5.6010373059845655 4.729888921159897 -1.0335191932578973 0.29383955322882294 1.7397608653435006
P 2.6187812232272036 6.26235030571552 10.287865111662201 0.8395723971616702 0.6522441348232251 0.07522662184448334
P 6.206232633804153 7.703983026175195 12.102663119180098 -0.5071896935523266 -0.24890078373460361 -0.8128799754721484
Ni 3.9478991757716395 6.004702664153322 3.8856621162344185 1.3254026512016142 0.6731394902149955 1.050389743760991
