# total energy = -381174.2540509684 ev
CRYSTAL
PRIMVEC
9.17781518050587 0.00000000000000 0.00000000000000
0.00000000000000 9.17781518050587 0.00000000000000
0.00000000000000 0.00000000000000 13.43266022444951
PRIMCOORD
 96 1
Ni 3.7122518198285728 8.161647390945813 1.6489532546366483 0.32951103848850344 -0.08893471545919523 -0.36683420041899406
Ni 1.7622047393321933 2.9230515014278105 0.43472923783947315 0.2206741847887425 0.2979432909845514 0.382487847795851
Ni 5.981182085146845 1.9884654144052716 5.004350515328648 -0.3591327180096783 -0.661191830934816 -0.7734482518390873
Ni 8.37359067450005 1.9720921923093655 5.819445121185346 -1.6974780454148894 1.8947443928026528 -1.22290176702221
Ni 3.4711689734074636 0.7966031440412101 10.574593177094988 -0.954235627735221 -1.6694982723725118 -3.3891374272654726
Ni 0.9561814858967913 3.2018276343667935 9.625414364101323 0.615741669021817 0.6748788415036054 -1.030019407634755
Ni 5.9483071515439665 4.362490840160887 2.09595139566996 0.8596817663170356 -0.029659988958277952 -0.19128210477987057
Ni 6.632898733706424 1.7479240590736564 7.2403250822713705 -0.7705421339358859 -0.44633733815164417 1.2149380320904433
Ni 2.9846438184040576 5.172157686181532 5.990845406640555 -0.09822771072534696 1.1209377291828824 -0.13234033613833981
Ni 0.6658651682810186 2.7939288211210265 3.0729224682773153 -0.7869791964459866 -0.8039127389765317 -0.2854469582897536
Ni 1.7562299817175997 7.7639543080647595 9.632909885674037 -1.252687997145707 0.6794700604187137 0.7655829901583977
Ni 7.240286535448051 1.564468713515884 11.65611057679813 -0.9709040895298376 -1.1394686981075344 0.16590197414386912
Ni 0.878450898890588 0.6942604103452136 5.59941801811201 2.2411174971538177 -0.7616412319018302 0.5224473910423454
Ni 7.367298318287313 2.251189548776015 2.316986222838661 -0.4659648825745846 0.19391928529240152 0.23813506057766728
Ni 3.8263504168556493 3.00429352048216 5.664042685189428 0.26279682499040546 -0.8787750355030608 0.29749334793132637
Ni 6.531281965182953 2.8996388951684735 0.06392807091313542 -0.7635839574504978 1.6521986047517998 0.32426264560537055
Ni 9.051803675184562 2.454836087501385 12.741160517524094 0.19087355648754226 0.12721715597916156 -0.909115338357815
Ni 5.624743281033223 6.446800177406711 9.036244525285912 0.04140067443397386 0.33005456969679936 -0.464102118334233
Ni 0.2348841501186576 1.382656196856748 1.3095971177243204 -0.21368901172016103 -1.908812697970261 0.022063921778574903
Ni 5.28677941866795 6.258765102125925 11.44109364297488 -0.3569434236678433 0.7675167168460008 0.9234932043460418
Ni 0.19179981502503574 6.471506855591789 0.4515631862522035 -0.8468247078487092 0.906060096471259 0.03757770114345787
Ni 8.86964240155253 7.274216917784691 8.233105859128955 -2.5924952538084254 -0.8836351918088394 0.8714569045750926
Ni 4.8100745257960575 1.7958689650316233 11.842380758239768 1.3369440761823104 0.5146183819162299 1.8643094733515633
Ni 2.3024476459764833 2.7603013066819013 7.633794534654367 0.25014159812024017 1.0476106383539572 -0.8024155856057148
P 7.050406719336952 5.752700378825331 10.508800174158372 1.8111035787525454 -1.1249291097304626 -0.346135534419062
Ni 1.1874532480014643 3.4659743300743453 5.298069048993161 0.3003344169245472 0.24061488957672755 0.6902848916460306
P 7.419097906577276 3.3832822162379586 4.265138084521809 0.643536322636582 0.650276469573893 -0.4633354153715375
Ni 0.039660092288698885 0.08481218911898418 12.41797018408695 -0.5260999001932681 -0.680676422021989 0.41743248219183593
P 2.718505536824975 1.680338628852663 4.247084404485455 -0.18429847437318583 0.3186368147781609 -0.10242452241551392
P 6.846842780947268 8.336686680078728 4.099460166766598 0.7359561684309002 -0.8715067839764216 -1.4087189920327674
P 1.7187569627615547 5.500402242381129 4.197867453357929 0.014569156063426522 -0.19504105760167054 0.7306360417695675
Ni 5.3069430783903195 6.523177954470686 0.5855390951712716 0.9224166834524115 -0.5235691633516144 -0.09974106204607983
Ni 2.1512064313361043 7.097094264629482 2.8139814292809735 -0.5283077064778644 -0.5535173729742725 -0.3529510146789986
Ni 8.222202614818451 8.772100582922885 9.93174596902503 0.07328569606802862 -1.2583109997594393 3.275951038347764
Ni 2.859394176059422 1.2015503719584777 1.5818973843455506 -3.968992666803326 0.5233657890915567 2.4452723441312987
Ni 6.264996838562651 6.583255931959363 6.441403622141918 0.396402143884098 -0.2592150211764181 0.9607451467189647
Ni 1.3803525652726265 0.23411504921527368 3.3374381121509296 0.9834225337118224 0.42088778773028807 -0.9220143058076702
Ni 4.72118738678325 2.2219031408679233 2.9250293205767273 0.3635804693683867 0.6073321048018832 -0.2842886763155943
Ni 4.330203286722884 8.23261025711484 12.77736149131058 -0.49372765451014966 0.45458055199704295 -0.88652742575497
Ni 3.211005449442974 6.649813446891825 8.065426259905628 0.24028630259271522 -0.27240658016602765 0.4203208594832245
Ni 1.8690436846340106 0.6866703572772123 8.495418827384285 -0.6443786160322192 -0.1736592494917848 -0.4692751778947402
Ni 1.0717118220757518 1.3108765051459401 10.631305649795229 -0.5041933299281639 -1.5607421513120154 0.7657637387106361
Ni 7.04623081347729 7.9662792414191586 12.768750865206108 -1.0463960492205655 0.8442595182246944 0.366654223197704
Ni 2.493529755862562 6.2511291599825425 0.4557583655235256 2.254577993534098 0.5765904527436522 -0.9228494001144558
Ni 8.02204364582203 8.659947682691959 6.237925955213949 0.7794926582609543 -0.031185938684501126 -0.270180004828354
Ni 0.8809839758516138 4.7296860435437935 12.579027989732813 0.8866143290418214 0.9142673148723997 -0.5052827063376008
Ni 8.065372110796678 1.8137289931698706 9.638537721878752 -0.010405254493724016 2.280791161594356 -1.461421978853438
Ni 2.808356346420782 3.6655092076455857 3.280564109905346 0.2548289762935805 -0.1587622777752943 0.599910101306199
Ni 4.630639063241652 4.455654840999196 7.88065940457347 -1.5669912175455207 -0.08263499849341252 -0.33512401379990675
Ni 0.9186901113105939 5.402612622744424 7.681789000813745 1.3520729614039488 -1.0558726212524332 -1.2314404006208404
Ni 8.991872542737104 6.317934475922061 5.716510418416936 -0.05376742352944289 -0.0731849088241062 -0.08069638670980296
Ni 6.087580495325006 3.815254438428547 11.291614568829129 0.8390684609420582 0.20568362491718123 0.05559624920806554
Ni 4.7560722618878115 7.122663657431722 4.13222221324404 0.5021253916555417 -1.4194541190620844 -0.2229403551150999
Ni 8.988072927295564 5.024936354544521 3.4021297772784025 -1.4693726011590822 -0.040667910033007376 0.4328750419991513
Ni 5.914404302652556 8.722522025881357 2.01605392652427 0.7982681390962445 0.6381665736842363 0.5288324686330828
Ni 0.6710533871435834 5.558038921059542 9.963232299206883 0.3689283639438614 0.5487770300758097 0.49870942399545726
P 2.539106785530874 4.5677618521547405 8.926163975699188 0.6276556468505835 0.060038344139819184 0.2977319463046937
Ni 6.223705848534915 4.1688756533137825 6.126999211077201 0.718680154959272 -0.6019016778149312 0.368683594922907
P 7.335350344007129 5.965763355818862 1.5935027315093808 0.6927179265675554 0.5870378733292213 -0.2772862768558321
Ni 4.772711640620928 4.590164898755697 4.118346274630364 0.07919511957392812 -0.14474513756059587 0.829832544166087
P 3.8350326299177158 7.783191008464433 10.009279233007094 0.4471649762592621 -0.08376834076690734 -0.138593001916271
P 4.133825577537849 7.320775973666154 6.23560213243666 -0.5393163988835421 0.1950415718223028 0.163870288425821
P 4.4077558241166095 2.182704692677556 7.758207160264055 0.736429508522893 -0.16664348029558398 -0.16579861579678543
Ni 8.188676056345166 8.172431323660325 1.4894666909318288 -0.10907879450723794 0.9722354067467514 -0.018416811944290862
Ni 4.5917434829488 1.114443729070448 0.6183708930432921 3.90600141068277 0.3354927099932351 -1.642047889471043
Ni 5.63820713574998 8.583891129155651 10.72349404889094 0.8924234795244307 0.6114674671264952 -0.11249244817447722
Ni 1.7742735661573705 7.555636261465613 12.2000255272544 -0.10419781226585278 0.7620790907701972 -0.5976660424670287
Ni 8.576686544320848 3.968331216084162 11.060049116642018 -2.096698375474073 -0.11031446668655194 -0.6617811277793828
Ni 2.3608185498609915 3.2287828772455356 11.545237063988823 0.6372317205747928 -0.2126978514514853 0.346185670930707
Ni 8.61313164798836 6.953957060701371 11.421790862306658 0.9258696749980183 -0.31150945970476024 -0.3823551788727286
Ni 6.8251280704770245 5.6103432891786955 4.337365653608336 0.6905114058345398 0.6139658080683168 -0.9535864241869966
Ni 4.319657977200352 9.1710418486543 8.080282389169442 -0.2179400736870311 -1.0296280857336073 0.5608388463363503
Ni 3.2238085014742457 0.4453562299161826 6.060467394026953 0.18522484284219715 0.7327032087112414 0.3638321803678766
Ni 5.704883962278431 8.805526185430333 5.7586485207762035 -0.6750477629813019 1.173653314409043 1.671435855714857
Ni 8.379895833457386 0.7957092248527902 3.976269108343551 -1.2851941973035284 -1.1446391865648802 -1.657503819014797
Ni 2.4583420128604856 0.8278903156359095 12.461210542036868 -0.704076031892852 0.22304294213123524 2.5033026567021532
Ni 4.29943007277245 0.1079558853965886 3.878801630016021 -0.8144005258817328 1.0920045910882998 -0.6386545690642486
Ni 3.936456664324587 5.750176479679382 2.2851107532975785 0.19181792267868253 -0.6900810031653406 0.31680258978289955
Ni -0.020314175889617963 7.601167402058545 3.5078187423511746 -1.8360895592739217 -0.7493976386477869 1.5153891770985128
Ni 3.0267057448981927 5.841798607584892 10.735341690372781 -0.4609656295877803 -0.5059077415161093 -0.05261531220287067
Ni 4.274980373409505 3.2935874294984466 10.148657203880001 -1.94182180590643 1.1315167902503094 -1.6476174131390207
Ni 1.3550676847377492 7.927934330030876 7.042971771343738 0.9658672984368784 0.7401087571466931 -0.10144956009675433
Ni 8.7603805130706 4.1254737658185245 1.0087272305524477 -1.6488888236522763 -0.7350488261252824 0.840217744055153
Ni 6.688709027184677 3.800863624389096 8.69083745489386 0.8277766900783228 0.22947532802014026 0.8135083530847667
Ni 5.601312319143734 1.5480863136049017 9.556746869482847 0.974769743132831 -0.23013121643658432 -0.30583169259369264
Ni 9.01182511271272 3.05665295549177 7.535144953745025 -0.11462594957771226 1.1305017187222337 1.3145320270356973
Ni 2.271077874046098 7.689733317543687 4.97643802633746 0.1459962363588776 -0.7600882855924136 0.34602034899743633
Ni 1.517900479819344 4.915426665055534 1.8306565552963778 0.574666496248062 -1.0013253821341723 0.803983444313467
P 1.4959104348968153 8.406621630959224 1.1869034968784011 -0.868166406749279 0.8817875970771395 -1.1477790177454428
Ni 3.8400712503945393 3.603705800922586 1.0316589193017924 0.967099885292399 0.38608507822880606 -0.9544336026786401
P 3.9226807638952397 5.160024614650821 12.635096179814706 -0.502379930868509 -1.4371355955022476 1.1108713460858157
Ni 7.398190843833737 5.314689154314616 12.811574550351567 -0.47598627136632865 0.21954418494935737 0.3155882577598242
P 7.956119400129827 5.185612363083212 7.5817829388361435 -0.6573367188547842 0.24690586479176185 -1.2000330899541525
P 6.999552445999836 0.9395237515335237 0.37258074526960916 0.9961649209791553 -2.3690391353991713 0.7504389354281076
P 8.744787405256172 0.4526525929017461 8.168588572487929 1.0199100871148952 0.22460411597076804 -2.4806730922280953
Ni 6.607540430650937 8.616004304107205 8.239176983801848 0.10590091099988858 -0.08948518864602653 0.016805501593112993
