# total energy = -340891.448791506 ev
CRYSTAL
PRIMVEC
9.06537553219441 0.00000000000000 0.00000000000000

0.00000000000000 9.06537553219441 0.00000000000000

0.00000000000000 0.00000000000000 13.26809343356909

PRIMCOORD
 96 1
Ni 6.44038724156448 1.9906295451906824 11.512645236437269 0.4121136410820837 0.001000159129740213 -0.7095337125733135
Ni 4.571541950880422 0.35652580739265116 5.943310039298998 -1.3227284468035605 -0.42478403746090065 0.6814094435332716
Ni 2.8364925372443968 1.7980084465040098 4.778238858110524 0.2860092585511268 -1.2129125170199822 -0.6734076562747177
Ni 3.4053629808054877 4.527874037082714 5.251617355736195 0.19453943537490367 -0.9428698091004406 -1.0837464648445658
Ni 4.75308516070249 4.261868723699665 2.6537517913183897 1.7036417510234403 1.532563374884954 0.007345641731793801
Ni 7.306946485891428 6.01489477695804 2.500876018449299 -0.5914311173009105 -0.29758436498323587 0.13406631769051106
Ni 5.074942252559211 4.768741064196084 11.306658148109046 0.7907759444842575 0.26594616925266457 1.3416404532167152
Ni 5.728211342052763 7.789868104309055 12.43656836387178 0.02393439932841039 0.468906738811728 -0.41147086529176236
Ni 1.7012899552630412 6.493446884383244 0.570149568044557 0.3039833265310442 -0.40289597913855774 -0.7452867018032068
Ni 2.7063862680260646 1.898643179962253 0.1820662819885881 0.2743814445042113 -0.5513496758989924 0.39600567977662765
Ni 0.25965683091833336 8.852765251278885 4.76636321620166 0.5912364847916011 -1.2012430511018537 0.8330880749889072
Ni 8.672309886517171 2.3137739203688223 1.7180454888051429 -0.4092854276046693 0.2634694255773979 -0.6863192221300631
Ni 6.610816301019932 0.6212538093673347 4.9283134299492035 1.6496550123943394 0.6077067145324824 -1.5346855634342795
Ni 0.4526142550361651 7.187773059529653 2.599152847739225 0.963304937026341 0.9891200983172321 -0.2861969490819007
Ni 7.568899576424659 3.6856281298546762 3.804957480675102 0.6780222722285937 -0.27284109660028494 -0.18058168764323093
Ni 7.58045793019092 3.962022363564105 12.55683054183146 0.5031846861579915 -0.42451407162896565 -0.3185062027375676
Ni 7.845121567999532 8.777558896106415 7.157698676298619 0.4808754811378299 -0.9411397137832114 -0.5425192220915559
Ni 6.694689155173221 0.6553187708947681 0.46457057878700525 0.407683116114556 1.0097639998198287 -1.4588236219986424
Ni 2.064050021389071 6.592767138393559 9.15352540126514 -0.7257391186885823 0.11167175204539477 -0.0040962815565606875
Ni -0.12620725121451348 4.7577356983355035 1.3312277291693855 0.7625349473606932 0.1840436780499024 0.02410229236484236
Ni 6.4540215663209155 1.8658355860170786 7.046392182798303 -0.656740994252314 0.17016512029559727 -0.7829986145316837
Ni 3.249302541522211 4.376409743179432 0.30335738006785207 0.3645706011957979 0.8225568364402801 0.10825141350993615
Ni 6.125256658330948 5.262958140490385 4.9365529497438345 -1.3635308255319034 1.3675710570395478 -0.8377589981020153
Ni 5.333686200164398 2.9787373442611784 8.981490863808117 -0.007345641731793801 0.2601017946567456 1.0762894943458885
P 0.23588016404919726 5.550539047570454 12.384769714785477 -0.9453290692742107 1.0554051946977114 -0.04632407987752022
P 4.0932436739693 6.410127018135634 12.589178521238635 -0.5284087508321029 -1.8520427401690684 0.47169792840361985
P 2.1814738302787764 8.3232566681516 1.5349194644202597 0.4673923590497306 0.6155994870169978 0.8774208354680115
P 6.197625550970994 7.791191649132485 5.8499684004328785 0.37923951606188233 -0.4531487046465228 0.2116771234964548
P 4.670998185523281 1.0527076649045148 12.737874249463315 0.6211080755400529 0.1517853322368289 -0.47999050742971533
P 4.056782733696437 6.0472581675035695 8.211092590128706 -0.32052374738822864 -0.5184261856980943 -0.22085184801718738
P 4.655741158551818 1.2500427588527208 3.6923383208019596 0.4075463334263755 -1.9533799430576744 0.7775792432883253
P 0.28782748529374913 5.455588304552561 3.676363316090662 -1.1212776290208042 -0.5853370885880307 0.5877384989406716
Ni 1.5731961994063637 1.0808193943391613 2.595795939190482 -0.6717436383087335 -0.36439525196019823 0.2478162924211732
Ni 2.103874215973528 6.660984089053255 4.921932312132677 -1.1758588067007942 -0.4002623981704526 -1.0106394604462468
Ni 6.138392387434721 5.595231348799995 9.151190160535583 -0.3772134867707891 -0.1394923738020888 -0.5186347021644746
Ni 8.6674871067496 2.357387441913513 10.118911743175044 -0.45808393716461104 0.3613117279388681 1.0188230246983034
Ni 2.300339033873451 5.013125457004598 7.318096897760057 0.8046799561598594 -0.1479854988747645 -0.2707744438792433
Ni 0.618612158945775 0.14478401869515772 9.373868418239834 -0.3967415295013877 -1.0023610224875381 -0.7785305514580012
Ni 1.4995672195714076 1.2009446851287462 11.355298420370124 -0.4548348340996941 -0.6257244912661417 1.529418144387753
Ni 4.005998500128913 6.953315252896869 1.7373774020651829 0.4394084722422949 -0.6871975109699585 -0.7311713454477473
Ni 5.480146406790051 7.686477496697915 7.940317076156005 0.48545487297839623 1.403215288605719 0.7158717389761994
Ni 5.310977434529509 2.911789546171896 4.8577014070816285 -0.29390614480070026 0.11564976285653632 0.6149137738038829
Ni 1.1621720741026307 7.441286285469638 7.024182012816077 -1.098802844957056 -0.07593881742015954 0.07305044012877096
Ni 5.154862602993215 4.526124419610645 7.124780484772307 -0.5470461634276321 -0.5117258908597832 -0.3918767452099186
Ni 8.49457413440634 7.053732417343041 9.199140557720883 -0.004517942475011574 0.8481994767090489 -0.46323899900298926
Ni 4.973355654673159 0.20107456134317273 10.480626571505585 -1.0966742286498274 0.6227582095489662 0.6379482870258433
Ni 7.835784231231494 6.848156897062654 4.646472718637602 1.2606861848598354 0.7839800046083466 0.4426251794073796
Ni 7.326128820455669 6.219600021190144 7.0698370569240305 0.3397489141664278 -0.5830590911871313 -0.34160036555286977
Ni 2.2351227225052317 5.397424855325635 2.7717050181374674 0.9320747753674659 -0.7755835530145352 -0.8977376926484926
Ni 2.234397492464996 5.794515498481335 11.444911470291878 0.7747803403869495 -0.33956867983482164 0.5677129477483642
Ni 1.1224475986487057 3.3982285302846664 3.781698446747184 -0.5664374234700503 -0.44121698620594335 0.7181965304546342
Ni 3.5042571621671645 2.4903039775377587 2.3947848354758308 -0.09921604278054524 -0.22783470709292378 -0.45536885222629314
Ni 1.088080760117024 3.1679136002567296 8.40325407427738 0.7771064174169648 -0.2790739648838742 -0.4680603316510326
Ni 3.4694007933583237 2.588491059610206 7.274696412539686 0.983615623559235 0.07306303853426127 0.33489107185349426
Ni 4.109280323234018 6.6967288646613845 6.081669426375215 0.9673531389537856 0.9489864635211398 0.11099838012745399
Ni 0.6208721570586604 7.737633410661059 11.634101324350686 2.566790392843154 -1.7432794200197204 -0.7908242812236896
P 0.28551218839029585 5.531519889765265 7.9171903967104305 -0.11792724603680337 0.3358128123368152 0.6576761044720738
P 8.556916721740125 1.5225660772223903 8.04774902816636 0.32647482276534096 0.7729070346236366 -0.5574586170102077
P 1.8096483886497972 3.1992616687459297 10.672270422713039 0.8135898570549794 0.8631195883539908 -1.6343425504069853
P 4.1621223970407115 6.039289702436477 3.790189983980797 -0.4051711483259796 0.3550058403254983 0.29126227941995
P 6.92630043389808 3.8296497504700358 10.249443178504466 0.05515710478811791 0.7010945806670248 0.6042606649654109
P 6.646751449513624 7.793992850162897 10.115780562476326 -1.060073546707658 0.39181555295468 -0.4278896729694179
P 2.3199111795843192 8.711517635567427 5.615097212677159 0.7133147768823005 -0.499800600177107 0.4747768244392598
P 6.829980819179241 3.93120915222958 1.603276928400251 -0.12959928305809293 -0.221514935522483 0.08335130783414678
Ni 5.3540379681685195 3.071358285774814 0.11966930240178626 -0.23977208196045802 0.2422884206244085 0.8791589012050408
Ni 1.4061847865155241 1.077302028644017 6.872686896636085 -0.7865112556706325 0.23128512753536942 0.7537356039015083
Ni 6.791924372817858 0.9148958265086755 9.139858441156894 0.3558501906036646 -1.355036414907647 1.4553001822264162
Ni 2.6483950609336966 1.344558363846473 9.370524201216796 1.3251519686433888 1.5256864452594627 0.30476854143650095
Ni 6.243541677893433 1.9181428026690976 2.4862816704271 0.744247204795099 0.7887807684310996 -0.019133378395341242
Ni 4.259983125595052 7.0243424699624795 10.082583157384526 0.7452406790566197 -0.4165019999577666 1.5822347739681524
Ni 8.261358284217462 7.316800549063135 0.19548575734560433 -0.5203820238728845 -0.5239324602283041 0.3241608299201837
Ni 7.833481625853746 3.8465748065340426 8.08493882462966 -0.09451760886361141 -0.13466744160961971 0.8601615341669314
Ni 3.0583404065525785 8.510356953156977 12.678458871879434 0.5016229980978265 -0.28520244637911524 -0.13196212686331465
Ni 0.3285283016893418 4.953185194179095 10.072499740212594 -0.060604243945618204 -1.180912567074618 0.616787336677512
Ni 8.549202087187115 2.248929289396224 5.741104119093057 0.5523143538051069 0.28725752913593106 0.22331650750759605
Ni 3.864315746393315 2.69177288271531 11.377283769039877 -0.05943516333818151 -0.6761307116328354 0.02359964169681097
Ni 1.0142704727720087 3.4837422174039894 12.69630497009454 0.10350952794957657 0.6558043413706576 -0.01668208864137127
Ni 2.991193170202231 8.698780782985784 7.967091662703967 0.8834657561105107 -1.407134678264783 -0.9018000356433243
Ni 5.783337890486199 7.664774987743853 3.5478480202730975 -0.8660177358373925 0.007402977332290475 0.32077571549803463
Ni 3.2249257467947796 8.47198321865299 3.671427219129306 0.5421474405744341 0.14485826609969243 -0.5468129643709034
Ni 3.4910307793083613 4.393298537741428 9.715030227230086 -1.222185714791792 0.14792610639173878 -1.3808148094233317
Ni 7.370857383187222 6.011431803515913 11.07280772163496 0.6044424419589138 -0.2082220750683188 2.4295924715021964
Ni 0.6863305139528083 0.3169717609981817 0.30123517566261154 -0.6285830437608594 -0.27287734915485906 0.18031994934141204
Ni 4.561751345337237 0.2567550042198392 1.6089953672675117 -0.6637935302237213 0.03585094826033826 0.03526730784272636
Ni 6.164500668883216 5.641455698489535 0.35739970959113554 -0.9276342230976088 0.5667878648309336 -0.13523359852573483
Ni 7.951621599408183 -0.09953510340973529 11.504193586855868 -1.7168253395932496 1.6604577594367982 -0.34227862256681696
Ni 0.4198093807036415 5.011203597397973 5.796299564380316 -0.630325737483579 -1.0928736239568144 -0.33099173679908805
Ni 8.066751868295643 8.883841358502996 2.181685960065545 0.2767831119671684 0.7855949145039502 1.2268113864892614
P 8.574857099860463 1.341648378310026 3.7017581524870744 -1.0187867721437294 1.9774521535155298 -0.8450591313078543
P 1.6759069038547825 3.3381704175776252 1.6477906417323842 0.14216349287634872 0.016608812201274623 -0.6975657415781599
P 4.701530370217216 1.011306094982544 8.335520308131992 0.004935232518088275 -0.3016798752088482 -0.6324039601688463
P 8.640662660636375 1.8934396544235599 12.43106205479129 -1.5793739074805897 -1.265468436739827 0.5448255016272293
P 6.3917515019911555 7.798534603289874 1.4019866111201083 -0.7994120228927007 -1.1389570485784384 -0.21312671145878778
P 1.8209166503999634 3.0576242418878454 6.045009954378838 -1.7610655403585476 2.2679610997092228 0.23407271758283557
P 6.972225626196022 3.7930346988136225 6.171878978005067 0.0883472183868414 0.04935412495309564 -1.7052252934604764
P 2.50035747897053 8.234878322373346 10.47932569012091 -0.8547748159337215 1.5144273274058757 -0.0064578398102017815
