# total energy = -381175.9333743123 ev
CRYSTAL
PRIMVEC
9.16699674099581 0.00000000000000 0.00000000000000

0.00000000000000 9.16699674099581 0.00000000000000

0.00000000000000 0.00000000000000 13.41682634467808

PRIMCOORD
 96 1
Ni 2.084428349740273 5.608891024817201 7.926567185570106 -0.5657062017309805 -0.02642888361548997 0.36319557522514223
Ni 2.1874928922592276 5.02152488612117 10.364297083598737 0.2151727953545391 0.21870112022277174 -1.1641399756019692
Ni 3.656696600704955 5.495935292991304 5.929861492876963 0.6412331284247021 -0.571947554655002 0.6051507808798482
Ni 3.1869155271063736 3.8745044393823855 12.282782627896813 -0.7293674594697891 -0.4496548325606514 -2.0953778568904364
Ni 5.20424146190057 6.73176560257129 7.375913951466636 0.1544381964786437 -0.09335804133787147 0.020997171076957387
Ni 5.872213001501089 4.272012911965274 6.977272438106789 0.051739594466136705 -0.46401135839263963 -0.26329021968705624
Ni 8.608827322735715 6.404696331688627 13.034124334569546 -0.7840833629554304 0.622639681693231 -0.1771109554858111
Ni 7.5508000787696785 8.258134701673265 8.171705507843198 1.4178762330520034 0.3271921605473397 0.0093924969584935
Ni 2.633091428886804 1.9131338516962297 1.590296066433665 -1.90711525566318 -1.9232327300503331 -1.9044045416002362
Ni 7.490838754157344 8.605527203967874 13.214205398832963 0.4080412707849231 0.926256883134108 -0.8083792593883175
Ni 7.242651488822632 2.0423335014571604 0.8021974535848014 -0.02568840590503963 -0.3236358106546491 -1.1229277630297176
Ni 5.717464932279132 4.244878602096368 4.077454410007275 0.03281087588243382 -0.508074410150125 0.42253072265034974
Ni 9.050859897694709 2.4205087782584536 7.94865139702456 0.6440860244924649 0.3231542430325402 1.4748521362164149
Ni 4.921384615510385 0.5624474918998666 3.6033300134303534 -0.880002994372891 -0.8853136079525269 0.6787861469778116
Ni 4.915123556848066 8.64342356781857 11.264955414021356 1.1465387175804385 -1.049506055604457 -2.0244472913181455
Ni 5.257410042049101 7.477784951031222 3.014278064063751 -0.8479991877727847 0.03662253631904015 1.1202065074438126
Ni 1.0442125801239952 1.970042566448313 6.053591195780198 0.7671055974505111 0.5285087667450769 -1.7837221014157991
Ni 5.158974832801699 8.893490067451635 13.51584267111113 -1.1012582484760842 -1.5278430865911494 0.7015206124608498
Ni 2.4897287694138943 3.3106058119243276 7.308399938374237 0.23301625129386322 -0.0988234353278169 0.5439721524879987
Ni 5.755627139030569 1.9611139117819907 5.318335734701372 -1.09480786486505 0.23331012838519818 1.5267521675198157
Ni 8.488657164603456 7.053573017418563 5.893944283587315 -0.7638179278381748 -0.3057039087665767 0.4412267563979563
Ni 5.033817828531372 1.5477465351203161 1.4276707970528053 -1.3523588680754839 0.9144694035808767 -0.16233354006632042
Ni 7.444151240588988 6.343469961548621 3.4101685617507402 0.4862084633149691 -1.4255604890701383 -1.3657849116734027
Ni 0.8469589811722604 7.790058689438069 7.850493947773451 -1.7407756797612601 0.22373379755067277 -0.18082799932608212
P 6.022670916324855 3.365754463333562 2.0640712004409902 0.20786366328763559 1.440129902243881 0.5188540172641323
Ni 2.531255263909213 7.172551465995767 1.6209000845070909 0.6279510666038153 -0.6749750007618376 -1.0614719697170816
P 1.8711031723891582 2.079634010530328 12.84997862402374 0.9030506202209738 0.20713346998983034 -0.9236263874897964
Ni 3.806732833686163 3.2211359253295573 2.725963187911422 1.585920707460172 1.7240205717901085 2.461553340679509
P 3.614968432284935 8.988542654962 1.8238702225244505 1.5096808138598259 0.17567319459802005 -0.40273425674971286
P 7.818036362992088 4.975900744155783 5.265903264378 0.2528569401688742 0.3074111212656706 -0.3786581896371156
P 4.180333779195367 7.636869009634258 9.451871996369453 -0.5974307865277712 -0.43261921723460334 -0.7879652145083397
Ni 3.89703691696947 0.40630145569986603 6.3235244103956605 1.2409213435280821 0.5696852409833866 -0.2701794906077218
Ni 5.516130186451169 1.6128230438228028 10.057548294029049 0.3035117862112644 -0.7785688608951044 0.35281217510828916
Ni 1.7851534124800847 8.883938057018053 5.673734691806623 -1.0551941071281696 0.7820498774651693 -0.9402498549790904
Ni 5.188107547924464 3.6263171740476734 -0.0036246304466774444 1.150006878634697 -0.27945551659300905 0.45974615535838237
Ni 4.199043619209704 1.6264452007367196 11.948421927936542 -2.0601923101282384 1.089499308167943 1.2360131075931875
Ni 6.126065470720594 6.649647647231541 9.398969259121666 0.21261506192969187 -1.1099524338159723 1.7071381942124726
Ni 8.442721344754442 0.3678550720545317 6.389750460468943 1.19652867634532 -0.08055523314624836 -0.4503600861577921
Ni 3.180736971413251 6.177959838344874 3.563388492643256 -0.36845270985902345 -0.4384929024065609 1.5386059815346083
Ni 7.985407386501033 2.950837864250319 5.676941307209374 -0.3974056454479478 -1.5271290912432605 -0.6880320910561118
Ni 6.868784700412686 1.749585465760033 3.324502062035906 1.667548861955625 1.569341205834936 0.8721341331477754
Ni 1.8395870381562875 0.7489051189824764 7.9869831932126765 -2.4946321255113486 1.1171201552090049 -2.394715457119353
Ni 1.8628620424661362 7.507779363832255 10.086005401504064 0.5541915162231618 -0.10227334154963032 0.13576478843885653
Ni 6.3270977056615045 6.544832208366317 12.072084711764763 0.34560434450594024 -0.39063310261080464 -0.288317080748697
Ni 5.462109075620945 4.079680156776251 10.976533284009072 -0.18046855910413437 0.2631783766995403 -0.11793701622881624
Ni 3.020727046155905 8.493203994905814 12.435050107844944 -0.849433606226466 -0.5567888446366926 1.165077142704258
Ni 8.134059402999064 3.973654674362819 3.2117599212302617 -0.05660257898539284 -0.11780151909221646 0.31263714555130023
Ni 5.475657896562244 9.048577315546954 8.138015878721841 -1.8446325637479264 0.23611957280953527 1.9467395549230213
Ni 4.893186934038509 5.424258546753138 2.057269288980609 -0.027011752702153478 -1.0417624071032963 -1.0019452751063584
Ni 6.633403729296507 9.159690481060805 2.022144108195242 -0.726876060506503 -1.9955810019057565 -0.877597984475824
Ni 4.180306278205635 6.175970600087594 11.11453875068219 -0.918200845598851 0.2255752216347857 -0.054869655454686146
Ni 0.36076165010299144 4.514681645360431 6.5440704309507405 0.5017633803304326 0.5442133219645272 0.4867352823527167
Ni 3.297442004839277 0.48795556101280146 9.34684571658295 3.1923390206530633 -1.5817375226167598 2.0923817503765902
Ni 2.797932361340405 4.387480400853359 1.0073355862927003 -0.08875036736253102 0.5560121143716682 0.9279946917608212
Ni 2.0534347343123107 4.080129339608541 4.74613547514288 0.5385034160639436 -0.12152653335228748 0.618012981554497
Ni 7.370732765001128 8.288724969251826 10.473308256797406 -0.15502877887479105 0.7276751593690307 0.5358587793522449
P 4.050694113598725 3.3229079213311077 5.764901389467857 0.417866484405461 -0.7461513637963472 -0.353209667657024
Ni 3.01909532076514 1.6620498154430807 4.472579463480057 -0.22778174236780127 0.6671328790095995 0.1709739893501378
P 0.598439870561449 4.345761399429917 8.869555039388217 0.5663404928808699 0.26505913866202097 -0.39196493404835075
Ni 7.992071793012754 4.1792337396060875 9.989967361861636 -1.6850997263551948 -1.099344833503455 -0.7174650516052483
P -0.17878851774601298 1.099003718666714 4.434636347946818 -0.13975925431023029 -0.04262966174506852 -0.8653878155628772
P 0.913196948341095 5.138504929444516 3.300257189488176 0.33813760381524993 -0.32350005640773316 -0.3583235918448216
P 6.191371154337514 1.0814489202211215 12.200846179089297 2.576969904479317 0.8374725772098479 -0.21723353453830974
Ni 7.573552564274619 4.547004475292107 0.8740511228569102 -0.3375408507715154 -0.0011107165656755065 -0.11465166060932512
Ni 6.382044683146038 8.517579038804943 6.197271950034342 -1.0619211414393581 0.059765550094406754 -1.7844970319086104
Ni 3.043296191729299 7.587990583883919 7.397756154211447 0.7477212793866285 0.872789250233271 0.9898240663627922
Ni 8.835398810141076 0.6687644848044587 2.1514555953144163 0.715988981280354 1.7389106015280633 1.0256516175843629
Ni 6.398526942992082 6.859553534859311 0.9708362727203914 0.5436083413906767 -0.2583634718094002 0.41591116045130305
Ni 8.870196729148631 1.4802774403111458 12.34828356854083 0.1549012521579913 -1.1972519276645897 -0.8997477810999859
Ni 1.7383375609596454 0.6761585842437353 11.140674774623823 0.37237672750377804 0.550253100400704 -0.19265147432357144
Ni 3.310468306975667 2.674196241539565 9.879667308944192 -0.15694090829583937 1.1338675498706732 0.8036458584683902
Ni 4.205240508895981 4.670172241305153 8.81187629692364 0.37310126437462837 0.4520924954678666 -0.05610404208241951
Ni 1.8692789400702692 6.422581142011005 12.775246517826348 1.5744774986202368 1.1687911012207355 -0.6763091461922288
Ni 6.91369381664504 1.7337448956744015 7.474593919522651 -0.845602405405834 0.2224958113785136 0.7789349859852714
Ni 1.526433268078017 6.679733729998348 5.65862656474752 0.9359933936955817 -1.848275302706836 -0.5094473792382518
Ni 8.26551413391802 6.119153555301284 8.341643290393796 0.5511247043723798 -1.3626358245214596 -0.692379312281214
Ni 0.10498594500156323 8.341664374485923 11.715559130780155 1.0703988398930662 -1.1240834739007155 -0.2897065048970559
Ni 6.166180247743002 6.156811577240968 5.408349224193176 -1.3073419370451613 1.600229153663044 -0.26183728929061356
Ni 7.507201843047883 3.327537254602661 12.075344495747663 -0.4603287673347298 0.13331709822931234 0.7597990364867688
Ni 7.853475971760058 1.7269063162277112 10.102481244452504 0.8273416594234333 -0.6718325984781139 -0.2376468080873391
Ni 0.8421802258564969 4.620477952859431 12.147876522766495 -2.0754014137685095 -2.29193689379853 1.3341924815791022
Ni 8.852339419815987 6.022175898509679 10.66633678702665 0.7270210707247995 2.3361441844433637 0.7051666938538693
Ni 0.9671089719120478 8.61794848433016 0.581130747624129 -0.2034174545908239 0.07503815998276109 -1.0330147428176533
Ni 1.810986008835009 -0.09518642566039431 2.8830745088510157 0.5787429803102807 2.0553658352738733 1.1182509263793385
Ni 0.3214169007930785 2.579647838840953 0.7503021692608619 0.7980351971498321 2.004777323693044 1.7565254863963493
Ni 0.9880188911049442 2.5952409000189967 3.245342296491663 -0.23504125214369198 -0.43301105335638335 0.029280494131672153
Ni 4.597991310255233 2.1564992768312647 8.000520097058423 -0.7875006161670953 0.6147649069308444 -1.8328358282233146
Ni 0.6495394595824759 7.281510387313946 3.3710979056384893 -1.1554380769525971 -1.1166313884980446 0.4150680957247174
P 8.356377403992543 7.837534564712075 1.7497147204117731 -0.2009221989727959 -2.022792272213226 -0.2773166158731353
Ni 0.777169719529367 5.410013034071962 1.143312396623253 -0.9564393202547594 -0.5750740160991257 1.4380344531674332
P 3.9067722673345977 7.607039602771616 5.339078814556561 0.3556229050842069 0.007314788493858369 -0.8998848208984825
Ni 7.496036441216692 8.435891932304328 4.105159823762948 0.46574711013682374 2.0685522520571604 0.5147299677934296
P 6.17914238090335 3.372858885680995 9.03668863768581 0.33989289594345984 0.496885483412841 -0.7971584509718335
P 4.339573676740218 5.630085120903994 13.27864663467264 0.19642971041908106 0.7334747967699432 -0.20854114897063442
P 0.28169997142212577 9.34016114267876 9.467421972663585 -0.6714011673676502 -0.20134000323650486 0.2332689907346176
Ni 1.0879758217841826 2.8404488914660755 10.521555076483569 -1.2957925416446652 0.21499050414040394 -0.4071791798949439
