# total energy = -340888.32743434416 ev
CRYSTAL
PRIMVEC
9.09159717043455 0.00000000000000 0.00000000000000
0.00000000000000 9.09159717043455 0.00000000000000
0.00000000000000 0.00000000000000 13.30647145165744
PRIMCOORD
 96 1
Ni 6.718290368490816 2.0189073694484874 11.353214851892753 -0.06307764518677525 0.5028082766551792 0.2420001999600284
Ni 4.758678396580609 0.5353468874616387 5.758787737608158 -0.5548849427457605 -1.2929183054206637 0.49991424293683584
Ni 2.907456447585363 1.6774178835645055 4.45919845430367 -0.06780924633448968 0.3404109732304589 0.2713912515276358
Ni 3.4149948664100287 4.432535526925486 4.628563092776739 -0.17725262326999797 -0.23550199383019443 -0.8371892416414742
Ni 3.7547296740166587 2.4935705724653614 2.3248405274832726 0.05635189642716747 1.1192526281709758 0.14926410847687197
Ni 5.177791940143498 4.556226708082846 2.4891347821466048 0.2087247257363502 -0.536355002262373 0.6120433942346234
Ni 5.0299716597732305 4.707592711396986 11.276037191640883 0.5268396065727701 -1.0818849861557949 -0.22755419973802743
Ni 5.807175945875252 7.989732066579342 12.449960598856192 0.038519239121120756 -0.16042886684443983 0.015478298141257214
Ni 1.9509385880936605 6.378310087757304 0.02877763290829763 0.8633077931053972 0.5831907316689892 0.3710297265575804
Ni 2.747662533581559 1.7568966270909763 0.2648364107958577 1.5383640407271313 -0.38142032576328505 -0.24708044269641316
Ni 8.075738576961452 0.24212378244103847 6.56824719258266 -0.43379215449678193 -0.6583019109815308 0.42973623925985344
Ni 8.798366004519732 2.7007953495414134 0.8413200485245088 0.5885370835825671 -0.6907633739443458 1.9336467262948054
Ni 6.924624169032255 1.205054854662502 4.685208289704407 0.01985714393524322 -0.29530148248633015 -1.706596719886706
Ni 0.7842248175308876 7.444863549273814 2.1109652469881386 -0.36743326745557364 0.4648803912611542 0.3226040269560251
Ni 7.725693898025719 3.918087494158917 3.6272372960315233 0.06240658726167961 0.20033084524570013 0.27516588807871967
Ni 7.80604543489222 4.067689727598413 12.625725721822814 -0.1798242406519161 0.02728274697535301 -2.4747245879541446
Ni 8.38751672289525 7.695582527794689 8.59343958323909 -0.7210910783936098 -1.0725518816803268 0.5287743617016376
Ni 7.549853314801575 0.653614021674604 0.43696034904704156 -1.7207575847681202 -0.33427863508047595 -0.410780266982641
Ni 2.0318265292003876 6.513320307543175 9.063476981553807 -0.4634081775910019 0.9104335429486062 -0.4287350516888488
Ni 0.10514614100118273 5.361560396206248 1.0740667575186014 0.3604756051908179 -1.9686155290605065 1.2082084266760935
Ni 6.340925439692691 1.9980967032471497 6.823399233943103 1.1508597135532954 0.32144677342313027 1.3302514946534831
Ni 3.678596638293636 4.542834785271762 0.6907877446820433 -0.5187488591448356 -0.09560055751514504 -1.1188368807897957
Ni 6.036302380827679 5.74318019253702 4.772139415531112 0.41520847795732363 -0.21034837738270223 0.010740269235639567
Ni 5.388789730095722 3.2499096427822938 8.914218410491946 0.10927471256812792 -0.9800181360159639 0.8641631991271568
P 0.08633835368326807 5.858061615918452 12.233716957266498 0.24353309166478707 0.026680337504663726 -0.09722755159560674
P 4.091355155349432 6.206960753595396 12.631327964074131 -0.5306350690594603 0.5725697616200334 0.6011123491444164
P 2.3657608977347357 8.858816034914092 1.288836651187266 0.9743146578732833 -1.1523789784112992 -0.4338798291145818
P 6.403657461007338 7.982049666867621 5.799372627919547 -0.24333331694915508 -0.06565980409165466 0.3550960860464594
P 5.2751902219324585 0.9594817202088871 12.742556383663647 -0.6431619700162988 0.809893639150315 -0.6393004301783635
P 4.163369697499189 6.357263040026375 8.04832650196641 0.5060293546956381 0.6187354615428183 0.29498806501096936
P 4.977349494647262 1.1706613421069496 3.5825811884527865 -0.07600000967539815 0.8246646268119023 0.30223034839567947
P 0.22309597846865795 5.795420510576725 3.611150623783098 -1.1784281100898673 0.9622348438906138 -0.8440895683057335
Ni 0.7825619643861847 0.38242622101057056 4.610266253226634 -2.4577470795595415 0.5754918203628347 -0.7612558235379535
Ni 1.9869594965644768 6.597172109367087 4.643040552304485 -0.6183112295212062 0.08438411997403532 0.5396825239737093
Ni 6.343871117215291 5.615161411068679 9.035400310796721 -1.2653799907910788 1.6315631878896353 -0.10359026058884095
Ni 8.891327586830204 2.550302139567303 10.129737693637516 0.6788913050971083 -0.03945640622340947 1.547448776637219
Ni 2.684721405529196 5.023762098822808 6.7801259583124756 -0.8431251475099351 0.43377261411275614 0.595452836865794
Ni 0.7783643739164786 0.17069110251796818 9.343778199343317 0.8867778512028792 -0.11527026802993051 0.35080311509806034
Ni 1.8290657263946968 1.1882808576588029 11.499638662918974 0.235901029040826 -0.27107012074279124 -2.5571703532548864
Ni 4.365666828842989 6.910959498302413 1.7394353053320035 0.6440713692044456 0.8544243745728383 -0.8911047607130073
Ni 5.735388693657795 8.07605678286667 8.106581820774487 -0.4653133650335147 -0.06198955432891904 -0.6495997552218425
Ni 5.069601932368962 2.9979178406405427 5.005375252459513 1.1084339402889167 -0.5185629683862746 -1.3650549754859136
Ni 0.7892479250347054 7.93796451159882 6.881202700365769 0.4341099428475169 -1.081325771218215 -0.7578779082046561
Ni 5.264180297611873 4.74438640563762 6.808282635125731 -0.6008387837680556 -0.45783839681270827 1.0033830359941496
Ni 1.2241744837675315 7.412488371317082 11.228666333110759 -0.3338505464041218 0.6704362323512195 -0.21686046746960716
Ni 5.128324559277847 0.15427076864892691 10.306527439618943 -1.5312225445863437 0.43928403084928863 0.26010950796622945
Ni 8.128851688341188 7.52234214139605 4.578850238784203 0.5329470050220886 -0.19772271819889176 -0.16258525106581032
Ni 7.169715448829395 6.258337369892363 6.98933088527872 1.3862614343601998 -0.16048825932746552 -1.171781551307627
Ni 2.5325280668614862 5.662092236289869 2.4040937993969025 -1.2537524338544794 -0.31393992352312383 0.2463098830789758
Ni 2.497216302979444 5.108313953638204 11.259710501223948 0.1003936080284142 0.9512400354420069 0.2881016223037812
Ni 1.2838608199893664 3.941734738715352 3.514837878710801 -0.5464468392807362 -1.7527991865846975 0.1496672574525616
Ni 1.401660646101524 1.4606923873183364 2.184563545386158 -0.3504233631611385 0.32240965155703183 1.4443776217766415
Ni 1.2957980872337334 3.209542950805912 8.157266566517535 -0.18976001170838933 0.970545420638838 -0.6296415669323607
Ni 3.821907486407083 2.709632382109216 7.05108555988448 -0.134350167479517 0.627850536470209 -0.1366865289221775
Ni 4.002521158209516 6.851800474723513 5.921366407862495 0.9953455104016536 1.466494508280339 0.03480888014906908
Ni 0.7584701407221726 9.099052401757318 13.155123977176311 0.3054115743371385 -1.5620143331562195 1.717871521469577
P 0.310118929428012 5.8830271420822235 7.718298792788425 -0.03601189931823476 0.11310385650623102 1.2254523013582057
P 8.848242507263523 1.5919114110334533 8.13629497904413 0.09638191576585982 -0.0539474007507329 -1.5059884526099032
P 1.9861412528081988 3.3768828905620576 10.205305232008977 0.07587042607606932 -1.1668733153727324 0.45567558483343457
P 4.084236434669814 6.265119701472179 3.840739821037686 0.15350334336920016 -0.06224203665935732 -1.567881333459958
P 7.015340126811611 4.099819432428264 10.278051647740737 0.10498328428162566 -1.5777458849588633 1.134867194779781
P 6.830953442133008 7.8423299996845035 10.081342212092588 -1.1904475031482467 -1.2398551070470971 0.5292556722134304
P 2.365706348150984 8.62185264309598 5.548306350382119 2.09753604088402 -0.5058460350402385 0.8956748965821929
P 7.278005464174144 4.242975723387747 1.3319644612612214 -2.3455335960780634 -0.2707435906413079 1.368701056878933
Ni 5.246878987965238 3.0823060467046814 -0.09206515081748495 1.2461178001273572 -0.43827384441721945 0.6768488207457828
Ni 1.9542933874944004 1.2375118569948629 6.8323544572757005 -1.5024246465180446 0.5481054579300818 -0.3113464517643348
Ni 7.222373980344532 0.7462319416074411 9.341981699718424 0.10623798262433316 0.7994960979660747 -1.2055715032738785
Ni 2.992908370532663 1.5823925086687527 9.126749043747598 0.20369667639413952 -0.4181066254407251 0.6346729587086811
Ni 6.37406431182195 2.1959662267097566 2.0195101423489454 0.5932386028232944 0.43767940536633004 0.8547516760052698
Ni 4.229020121544561 6.822989202905235 10.624765165428691 -0.2490365379815195 1.394211542445212 -1.8118234876377055
Ni 7.958629712243486 7.18077083113644 0.30516491806361323 0.16397956031017566 1.1184090492237577 0.07189112971334716
Ni 7.779870726288616 3.5043289014010033 8.281215949037987 -0.08642480455314792 1.0751067868916966 -1.4151434075018723
Ni 3.3245061985629727 8.43572946333461 12.584276220608958 0.25560596366892113 0.17574235727305865 0.02612780743530339
Ni 9.096234006596804 5.094685649297529 10.127914828380476 0.7014432222556952 0.033604832538638905 -0.5400548197114634
Ni 8.752971659240886 2.4221651673341666 5.879277767359012 0.7237138607284375 1.04953973705587 -0.19818963053298125
Ni 3.903104541821738 2.5984966968120777 11.394385241069747 -0.45120906442164876 -0.47063117770200236 -0.7001841530376134
Ni 1.3314916982020386 3.325169885165287 12.41918281454366 -0.8265996390510861 0.9908630491502678 -0.08555988544969136
Ni 3.0191830867064793 8.415173361857446 7.623769819104814 1.7267626533116198 -0.5603660204649898 1.566591925224573
Ni 5.425610699128232 8.016834118106727 3.744241607380633 0.498768816478483 0.5932103206885203 0.42072889355492055
Ni 2.7347251906350745 8.492361022866339 3.4366355954441237 1.3543270475454483 -0.04694371573939012 -1.3948244934388623
Ni 3.4176132464301183 4.62142255226362 8.992646165371465 0.7314022305116307 -1.351905325477833 0.8584481510202505
Ni 7.114329438126666 6.039948111341762 11.364644808008228 0.20473745895382803 1.206619999143051 -0.08836315922644136
Ni 8.19353840307361 9.289430449051334 2.6482140966032595 -0.17203482651448437 -1.107200582102448 0.05273563983081886
Ni 4.683918192048675 0.3459870990643231 1.5444823662806633 -0.26131638379013705 -0.39452600990730763 -0.6831572794623139
Ni 5.991662638124067 5.748398769382614 0.20863124717712114 0.022670959234954505 -0.7696183365700359 0.7290771819228798
Ni 8.085866616344715 8.74283452826033 11.587182562403157 0.1702481669277068 -0.42433717973146917 -0.7861230190932784
Ni 0.45410982901889946 5.093194627341644 5.7542901244278175 -1.0055764441010422 -1.1890832758108683 -0.25837786998710344
Ni 7.006703109384231 6.0564402688294106 2.61053033498774 1.467458929076137 1.0176153775434476 -0.5107452721140687
P 8.758999388245467 2.056046544386217 3.3819460010939597 -0.16969923640277226 0.0792884506186828 0.7943598051807738
P 1.8694596931629546 3.52642148282051 1.3232838041668409 -0.2646955846750151 0.39317540941668416 0.31098341199796115
P 4.9338552932024395 1.134758624400929 8.13850423718608 -0.4063641401928163 -0.6575449782108481 0.9924231945485359
P 8.824358881177496 1.6174587994239114 12.19495584137188 -0.410500530958693 1.1001462463588279 -0.357974436035519
P 6.495800799561534 8.05320050727464 1.77278146587952 0.3689484185485194 -0.1940810076812464 -0.9247147354579687
P 1.9450654162430427 3.229662655613059 5.765986464343946 -0.49678263928638955 -0.35874242454979505 0.3706013807709101
P 6.994993132072165 3.787395783086735 5.7644563485197065 -0.036220158674298904 1.3097225214621961 0.25962048414495287
P 2.7767556449158888 8.60654239325629 10.145452519556699 0.4022555173410814 0.2550665462256833 0.18988213910855042
