# total energy = -340876.5727582947 ev
CRYSTAL
PRIMVEC
9.20429247411389 0.00000000000000 0.00000000000000
0.00000000000000 9.20429247411389 0.00000000000000
0.00000000000000 0.00000000000000 13.47141242000355
PRIMCOORD
 96 1
Ni 6.282399021364182 7.819543474694237 1.2679741246941376 0.24638650195318212 1.4792723767712976 -0.8545614143713347
Ni 2.5939905176271654 8.766039276714777 4.0092001861932625 1.8139793576384435 -0.6691118571128412 0.6434172805602145
Ni 2.098974464954197 7.241955714382341 6.089240501132519 1.1222453922507123 -0.044242257647827035 0.2310388158525182
Ni 0.5209150907907272 4.832428421901955 3.033882983199612 -1.2348818222022215 -1.567083777259327 -1.442485032739619
Ni 2.3428698065009947 8.188506742157628 0.8573098898214363 1.0508491998959129 -0.1778151806416873 0.3477746126843817
Ni 8.59252915959278 6.962706685505132 1.3304178855863478 -1.0255870828950144 -0.5909117544623307 0.3675548806351025
Ni 0.32062968690898846 7.968082346378222 12.809818148813505 1.9483997162342637 -3.4136660085344563 0.385239185288743
Ni 5.294769236349732 0.6459379156742769 11.988371864124643 -0.027563768550881558 -0.2584305776019098 -1.0166974937148685
Ni 3.4930658049051173 2.9319905452625146 6.465658325057482 0.0637831558942321 0.8201019471418842 0.27361062777645784
Ni 7.837298554845335 0.11972667500333144 12.62858655074866 -2.9180125977565035 1.4294937626862738 -0.029066064128020912
Ni 3.7972584663429654 6.079720501443415 4.636913602801094 -2.6956859649660023 -2.1463983138023615 -0.9056438348694468
Ni 8.672634116853018 4.242930307149665 7.27561305061278 0.19751677283567276 2.3837281048699137 -1.2701221334617545
Ni 7.207181897476771 8.439378937387438 5.813830582639458 -0.9331294418842252 0.28700427547454443 -0.10336554617254458
Ni 1.9908976629147037 1.6322892244663387 4.932260939186997 -1.1667576157304747 1.071865911356896 0.18298849731251066
Ni 2.531097587263014 9.227671360643303 11.869001395239428 0.6571857950992166 -0.9960649050661813 1.046759088986939
Ni 7.643041962523455 4.197553145332709 4.212066473680169 0.12183429440069339 -0.8156110012500664 0.9232381509124423
Ni 4.561122697415828 7.891640697516189 5.451193425382313 -0.10301716169419033 2.347080114629577 2.5683741923905057
Ni 2.7570169456397275 1.5991629759107149 1.642017241164988 -0.37989411892674574 -0.5713451451843129 -0.36916079166964166
Ni 6.533924721358496 1.836615312737052 3.2694576443645573 -0.20212856057607126 0.3712313010454252 1.7190496009380782
Ni 7.14738160937844 2.24839694871413 5.945702321540857 1.0638317281985097 0.00047899651894756215 -0.459343520603325
Ni 5.053635182540274 1.121018391312895 6.213971549945156 -0.5015445794514072 -0.37514143473310874 0.3146444057893162
Ni 6.043022987414165 5.953557264724344 5.077469697859748 1.3599402799671674 -1.3222095981856132 1.9093315465882086
Ni 0.7693472280899744 0.07620693940435916 6.454881019018643 -0.28762314000546596 -1.243891739010316 -1.6425752227294226
Ni 3.040076551594466 7.823860287856945 8.500731069194153 -0.4650207734937604 0.594033587920764 -1.7810453259145842
P 5.483668930461171 5.463870497384442 11.568373556270485 -1.6234225610603716 2.390256392906735 -1.9772966017742721
P 2.3975709165777026 4.893949912689894 6.540936551352849 0.0880199169544097 0.39888788642042916 -1.189626549908848
P 2.1413510274299106 6.815530049104902 12.413138915901184 0.7110915439787366 0.07008647240444059 -0.04912992475743152
P 4.072061821963056 8.897246465700723 10.010310507471587 0.5118786143875635 0.11775061124962302 1.986928211326765
P 6.714356466408759 5.967271660486466 7.221700748399705 0.2987984398959951 0.24414218600369567 0.906778205584206
P 3.3669946111106235 6.718848161128165 2.5075419620050114 -0.5913724961488331 0.4607059481684905 0.5294600749147527
P 4.747528028271204 3.682526960856482 0.9264654207738746 1.6652760067610481 -0.732938464650499 -0.7300197483418072
P 2.947886358337136 0.2155258713333647 6.45062403375691 1.0240364505784427 -0.47218798066616097 -0.2800651251525499
Ni 4.411644987901148 5.9196394470173495 7.170374852367273 -0.9997269272988006 -0.13115891423572895 -1.1498446420252197
Ni 4.800498731365845 6.006215021875421 1.1798448652691895 0.08700433120570177 -0.5711492271234228 -1.2473745553525937
Ni 5.937311688536327 3.685352678641027 7.510527764008501 -0.6666317710034648 0.23240072919705138 -0.641093003302412
Ni 0.6165550528612406 0.6525318707910452 0.40827572097990206 0.6636243516357088 1.7920694449392298 0.8262839075828802
Ni 5.364307665868415 5.3233209515538285 9.203197146998011 -0.2754746775683901 0.8244465972638254 1.3115372060734316
Ni 8.922208506846278 7.035678316110575 6.811267541267695 -0.6221524576441673 -0.7607837689975414 1.282479369475527
Ni 0.8639563094052141 9.258321654527778 2.6906052142689596 -1.2273055525168606 1.0506712795571518 -0.5993853391509807
Ni 2.3047548314332427 4.2020264314672 4.301206364416983 0.9266890855755202 -0.8733273821249283 1.0114886958204192
Ni 8.623897388288963 0.794783290297106 4.451291557233878 0.11212118087798753 0.5217341670254048 0.2490072274054808
Ni 8.136603736988091 4.957146584705152 11.443385707698276 -0.34336748475562157 0.4749136071274402 0.29455483412829275
Ni 0.1453551069228311 8.949213900917465 10.796367208089451 0.704163963620968 1.335423525772726 -2.5493035489123
Ni 6.012529166501472 3.8233618397532876 12.609942335946139 0.32663500249228905 -1.3404127514572013 1.1397934284368048
Ni 2.9716334328782614 4.099435387732555 10.748395356228642 0.23229608529838705 0.4536811801112251 -2.089828387827117
Ni 1.060536985572688 3.417047553496143 0.6561077384109006 0.8335660430665903 -0.9481781086872315 1.4417455834704334
Ni 1.346983771151897 5.880696085628395 0.9243622399472671 0.9096742961850786 -0.5570438980702922 -1.2421786129739512
Ni 3.103549352383458 4.922538445063822 12.946727396977057 1.249024689361507 0.260030575099178 0.11268579513220593
Ni 8.18623328192055 6.167391387103965 9.177009094097079 -1.4935779947606922 -0.1121458634683359 -0.8539188956913293
Ni 8.893509522962855 2.343449676925836 10.499363099061146 1.813318327015677 0.3138147107991692 0.5674519807774937
Ni 6.216349018687005 7.6382925476152295 10.451929698309117 -2.0102694571558666 0.19297543332189343 -0.823890210539723
Ni 7.998612984460746 8.556512763205406 8.334264076660865 -0.28006461093191765 0.12326022821394256 0.14840793112416378
Ni 3.3904287397081836 2.4073274665829714 12.62948949183877 -0.16897084287717995 -0.044020885665640316 0.4851265431047
Ni 5.159079556936837 4.579789002520247 2.9496057201682535 -0.6136891573681625 -0.5909217817646597 2.57390540662138
Ni 6.323100402612575 1.5211289844534823 0.9709414823592122 -0.7428207567612175 -0.016177123980494718 -1.3212112388280857
Ni 3.033062880741622 4.122897129207489 1.8634062467939718 -1.847651553079908 0.7720966229071993 0.9300376903327788
P 8.570374427646854 4.807217864860039 0.31843630401629464 -0.16159614767966363 1.185909763178893 -0.08039248231613896
P 4.216652052182645 0.5398400365132108 0.3502785537740554 -0.08907021259579499 -0.8642508737449568 -0.342164722696772
P 6.988699607405961 5.862029780523976 3.027983031734162 0.8080159625116278 -0.09112478113197854 -0.732044749191636
P 0.8608176456771041 7.869927771608237 8.753184561868213 -0.6093607051961376 0.4104275116289125 -0.21065973797553397
P 1.1402001367949512 1.9109583829187065 12.29072366707093 0.8478708897250367 0.3703614968459622 -1.5421368775060023
P 1.4236463230329173 2.7093203021234054 2.8776419595869402 -0.6770506523439436 0.07562925659954071 0.6620001857687243
P 5.6059387514705925 9.400620015925375 4.349178216277793 1.3547096276958475 -0.6050255681558935 -0.21128374471277805
P 0.11628887177034294 4.315506153179422 9.56090356478551 0.49213151366762337 0.2714311036266358 0.13329498674212528
Ni 4.678026415922353 7.493739134565473 12.657375736698167 -0.6568731489548042 0.016957196679628857 0.3031495177758392
Ni 6.926984826476408 6.346405671115727 12.969562326135616 -0.05955317697328454 -0.24302889833485886 0.5296050851330492
Ni 8.00491792479434 2.4544258310895364 8.237499350052008 -0.8196221792919884 -2.4957981207949915 0.6720308305318491
Ni 8.51394291058808 2.0891258720243506 2.007133114381018 1.8383161346115953 -0.2478317190401409 1.8500293092834654
Ni 5.35821442426135 8.066439415582277 7.826244199603516 0.8473263300754762 0.022951723700166925 0.45964716788667287
Ni 7.745412103239112 7.922208152768544 3.314843090044726 0.2932230026907466 0.5498517511972273 1.0582035833784549
Ni 1.7494782760390546 5.711843340490045 8.44959294072786 0.1673855006679311 -0.31284206247325475 -1.1313252430647935
Ni 6.863622477196909 3.735921061404183 9.91916224012048 0.9351719262355507 0.004456235999140712 -0.44115579395070476
Ni 0.5906541738849899 5.514917503355404 5.35075066350732 -0.009591757453493157 -0.7876186298021984 -0.8641058635266602
Ni 1.5731332368400552 3.172526320062215 8.199779239130695 0.950008477027751 1.0341493706427287 0.2067246645871859
Ni 8.194949746878088 2.70402783396017 13.278448256297697 -0.2422637380340602 -0.37484267254576736 -1.5579519901613876
Ni 7.062830978861086 3.8516466304761083 1.8963843062410253 0.1414438411015048 0.998413607804016 -1.949159477218424
Ni 0.947324188341742 6.45272445329578 10.430792961109024 -0.16549059763806337 0.14704267534552096 2.6791170048637283
Ni 1.2756044831416542 6.974432954096369 3.0205192709801314 0.007246140039452037 0.19692876154268665 0.8264119485203122
Ni 3.4175353809964064 6.716795603910076 10.520230150492226 0.7307442852126577 -0.40658294107184173 0.991205520091351
Ni 3.961555086714704 2.226223808183289 3.712775027160552 0.43722509143773086 0.4559000421394149 0.8285433930410182
Ni 7.1026211351561575 0.8229373800670262 9.996299733492322 -0.8942355930325051 -1.4523791519248794 -0.7949948676616114
Ni 4.632520394010986 0.2295513721805611 2.484909527280526 -0.7850472695305964 -0.27573435898768 -0.8963811786205982
Ni 3.900484606257198 1.2455340596820201 8.495140381955284 0.8570399578188144 -0.7364919863297122 -1.7414277115229622
Ni 1.0212346567778798 4.154541486677407 11.990055329215174 0.31629171158475206 -0.1786227641446472 -0.9917174267307631
Ni 0.6871805093191894 1.0328320652747085 8.426301478663396 0.07034666804436272 -0.8937812791039058 2.3980499208092247
Ni 2.4296478757931377 1.58323954995872 10.162927801143622 -0.8765250631266195 0.955968808376244 1.0315726110544878
Ni 5.374570451958862 7.289762809408157 3.374723455487439 -0.4697122654321588 0.7107166771378212 -1.3907477522663272
Ni 4.922004596101269 2.7578361276684715 10.601880508456128 -0.6397190057730209 -1.1511661890501206 0.07808594567014938
P 6.481414232886745 0.8104858132301137 7.857767060412991 0.13756816019618243 0.6257733422262061 -0.5866527220756605
P 0.3774376595292873 2.2187499227075547 6.496992497871572 -0.8845775011174507 0.3222013922009677 -0.45409975570588246
P 7.964704371046209 0.03799900098278354 1.5241958547004215 -0.09840768794663698 -0.16138068923474788 -0.49431977956819384
P 0.20980448314159592 7.769665413865416 4.816204936015835 -0.09710773818829083 0.5824600241505518 -0.009146442385958442
P 8.019865695745807 7.343221340003061 11.350190405704554 1.2276433954722534 -0.8856720197332101 -0.12007617405900611
P 7.005699935575517 2.1385345139378233 11.517707608007276 -1.2971806802414434 0.575510589415912 1.8962682856463473
P 5.3397506135910024 3.2718498399743403 5.131557802058768 0.680386401585396 0.49184972076114647 -0.35718742135784937
P 3.9075166856949575 3.4233156766599047 8.751029837003841 0.03706373762151681 0.6880138362236667 0.20273302692928954
