# total energy = -381168.1697428179 ev
CRYSTAL
PRIMVEC
9.29382319263243 0.00000000000000 0.00000000000000

0.00000000000000 9.29382319263243 0.00000000000000

0.00000000000000 0.00000000000000 13.60244967645961

PRIMCOORD
 96 1
Ni 7.54387968529648 0.300272265031319 9.2772241236435 1.2912031225017697 -0.45804177107276595 -1.5985083143171952
Ni 3.711943568973276 6.941249621377027 10.013225192964944 -0.735233945552895 -0.028945736500072733 -1.0968740033654594
Ni 3.1462378634010677 9.276108864896539 1.3886058776921435 -0.025330508344988636 -1.4638046201530015 -0.7990117021304886
Ni 7.859841782132937 4.743121100234726 13.423019144682852 0.10853809151241953 1.6897459668779544 -0.46822616780493553
Ni 1.1850088877587013 3.7312654267643452 8.766778559600834 0.8600944283744218 1.1030492789382358 0.0578621624241068
Ni 5.415426954370459 0.2094939205579894 7.385749006329701 0.2303705861409 -1.2597227925053014 0.9967128230628255
Ni 4.977260380335937 7.9485048525162005 11.598590595089378 1.1700226596349914 0.4004182070220266 0.3168892359594349
Ni 0.24846013179445783 8.041108503805388 9.983857642010637 -1.107866754931537 0.41388358849831297 -3.524427847171072
Ni 9.239110155966165 2.7426907796367406 13.34071119039268 0.5867185423165896 -0.5930033468840369 -0.8871478329477882
Ni 6.226712636023103 0.5345379411238524 10.967709168344872 0.0013346596510235079 -1.2155635814895838 0.8354282930863096
Ni 3.3417241340972486 5.169921328873154 1.294250340787942 0.6066990992035745 1.6038086434841863 0.5827636714338996
Ni 0.011537351737293845 7.382418100205449 6.811440008906991 0.821317050495908 -0.20397898352124869 0.11339567671503696
Ni 0.31625764040440213 3.9874589485866765 1.6223092774997516 -0.4197634443178577 1.3948064957167334 0.892927672854359
Ni 8.903844788984419 1.4321781075535536 5.038537342805326 -0.7161661302881666 -0.17770950830175847 -2.488749955698959
Ni 2.2339933836799344 4.044281381744253 3.1009091010131966 0.36318914746723907 0.2909120951693829 -0.3759153367846558
Ni 1.2481232390137056 0.08133674979803007 6.023776436897234 1.4200950950801932 0.259420709429321 -0.02989575911816787
Ni 6.856006677817772 4.502773546442108 11.080078922159332 -1.355888478495297 0.9487164976892049 0.23330164374476595
Ni 2.575680782279587 6.722026927016397 6.597922792419346 -0.687688334563448 0.372538707002939 -0.6670878847042769
Ni 2.316838520933227 -0.2022112809403452 10.334950389376313 0.12097734571703682 0.30708639093640017 0.5477771280563857
Ni 4.640331419056645 7.234116568328537 2.9372718319833053 1.5244780267736584 -0.06793317350686365 -2.570933982697882
Ni 6.021439969822354 2.6070660221835995 9.71914075521467 -1.3562389198561804 0.5561113589536939 0.6440086342873101
Ni 8.876409423809221 5.906187272147003 11.479066456413173 -1.5692489032314458 1.7304007642848391 -0.4738273160417969
Ni 4.474985015997039 9.319566780736386 9.654229907994774 0.4041262520012331 -0.21104231812593333 -1.0158228044193989
Ni 4.224869654345635 3.9992342221899886 11.343272551383413 -0.21924645120328046 0.6466908091051636 -1.002648214710654
P 5.931633759223457 7.1414013911646546 8.895648566576558 -0.16795859956258172 0.13362460216740213 0.4410025562022921
Ni 4.663510213347615 3.498594570679964 7.603809972828915 1.0733101000025902 -0.528365042078361 -1.1815771972418103
P 4.2121371169845165 7.309712523726595 0.5023441386282943 0.7231865274700577 0.46176138601619826 1.1078091622207245
Ni 7.03557262990111 7.204320572138942 6.191820836742193 0.6397681138434014 0.625293060155678 -0.7067870030661118
P 8.179763047521101 3.8749665163100495 8.489234338450256 0.19166674181279894 -0.5693743946111872 -0.8331076153729329
P 1.562793494468269 0.52266694114476 3.477928826098808 -0.7700201999941448 -0.2331887723159855 0.8120356251939821
P 8.38566769367846 5.651573700216197 5.3114708984195165 -0.3988380070191002 -0.14740108712620423 -0.8816065914145849
Ni 3.6747403959392924 4.541742545825444 5.142188561365433 -1.150627028717199 0.719102072988039 0.995882613852046
Ni 8.010503945024247 0.7881124636554078 0.6271248635318344 -0.2289071142214961 -0.41177451257511016 -2.1353310002446064
Ni 2.8638636424938673 1.8775473943288545 13.234557145327937 1.032312831654622 -0.16658614469508728 0.34101492536304495
Ni 0.7876226791890348 8.760450395594129 1.698565094323093 -0.6112532942331602 -0.558646723781038 1.387295532051669
Ni 0.9232195551735017 1.534661092576221 9.56337907170289 -1.3083294977694113 -0.7500956931560759 -0.3403734351243041
Ni 5.812505537402423 6.002192462614415 12.556040229353929 0.5293490032581851 0.012913622737874535 -1.9182622734189354
Ni 8.440928764590293 1.8497960391753507 2.4413543718843647 -0.47538900410196194 1.140419749166894 1.8397621230295025
Ni 6.999317426802041 2.3037621121251295 11.987552882590347 1.3718588857816245 1.5592455121618307 -0.6747649416335605
Ni 9.177473522550882 6.439745644338109 2.471537920488528 0.2682761029374218 -0.581244920796528 -0.7504849581746946
Ni 7.283866402265812 4.325568225373168 2.297072418407952 1.2195673033323384 0.3608191045731657 1.018654103220607
Ni 5.5526967184753655 0.15769108114401956 1.8882510901527962 0.2451891392109713 0.3851543388844206 -0.35704343958081736
Ni 8.926410190964562 9.003511745671014 11.714878624634824 -1.6933892200574965 -0.03574681858230618 2.2014572024497183
Ni 0.6181163610032707 4.949778546046281 6.680992840186609 -0.30362002965435453 -1.1232375809606527 1.9798635911704998
Ni 6.945097264054037 2.100422561085777 7.7623737439424305 0.807024545132636 0.8758966855140012 -0.8154191969542345
Ni 1.4472433944603955 1.90538239388838 1.75438937090214 -0.09961636354275748 -0.040645541435504196 0.11012651904546195
Ni 8.872524605840646 3.82616465230769 10.49476603843329 1.002002353596539 -1.5067117039291729 0.48662755313025874
Ni 5.157439724730102 5.069668861344406 9.394884850829992 1.1918286997664895 0.05839489499912524 0.11882276126787922
Ni 7.805788908196978 0.08500130416408047 6.693316449340508 0.6594828186635093 0.047331695206428166 0.6356255524299376
Ni 7.816049288669003 8.542092026762392 2.243724016247154 -0.888492777011457 -0.9335451892654052 1.73282942833099
Ni 6.995125912678053 2.8623394555396895 0.5317432885804303 -1.9505527580215245 -0.9822349411616245 1.9086003248491388
Ni 6.211173364148803 1.4472991573977434 5.563129964053169 0.7619893592698683 -0.906764321627135 -0.3835918794933071
Ni 6.914009426482548 6.264631433419718 3.553367715890002 1.077000404369984 1.5959580370915158 -0.7340211561917165
Ni 2.688749431575476 8.636582324098518 7.966627807154289 -0.06239244619429255 0.5016708206166264 0.13587586009542404
Ni 2.121017672612959 2.4519892934189103 4.781982291272523 -0.2203157730080593 -0.8526271734630992 0.5387155320747496
Ni 4.936664961946619 6.7792954636727565 6.9813617609759975 -1.0953087157608685 0.28215903156710115 0.497043349146944
P 6.05355012791189 2.6759518374541185 2.769254384224732 -0.5727505101722716 -0.7674879204905943 -0.4705396464294606
Ni 1.5085268626058081 7.2335124698406 11.604616709852115 -0.8829111691586213 -1.4826713751505174 -0.3667125872394652
P 8.990007821009916 1.7499246183851467 11.436177322534277 0.9102486806313097 0.7014463075794888 -0.5096710652132835
Ni 5.986857654843725 5.308111181444302 5.295759690821727 -1.0822567676729167 -1.6846358993448987 0.23932419578976202
P 2.1347818243150143 3.8039059464829603 0.3803868771191395 1.2472673403507681 -3.110410304198056 1.3994509364672802
P 2.274096229456012 5.249123287553046 10.548468535246249 -0.21542579190560962 -0.5612142273978981 -0.36193213513168637
P 2.5416653904973288 3.422729094418058 6.795715789957153 -0.0686988480282946 -0.5515322242234437 0.6673339392768121
Ni 1.860474641677486 2.7877751144825695 11.37722474517001 -0.10500642421007722 1.0098347051567642 -0.6589811964367425
Ni 1.3622327964734238 5.63590431482142 4.728089271090293 0.5788725639096095 1.261823640898388 -1.871928680459718
Ni 3.023735983870481 8.417842908528236 12.561807046457998 0.2874148806494018 3.6042906822359857 1.7171120175957328
Ni 0.35020983419099944 2.2020505144024423 7.049550539529666 0.22495815687607712 0.5326474715037988 0.7344291902634126
Ni 2.391402861990347 7.387250888108939 3.025919102867654 -1.3115032675117024 -0.05422739388499693 -0.22373636865383403
Ni 5.768489992189096 5.607316515607697 1.0467260969586407 0.0025790735810858807 0.7619644195692039 1.4876001799107026
Ni 6.816099002322413 8.431077312325487 13.190744205453642 0.13373978758902774 -1.0485118100119877 -0.07642629857953934
Ni 3.6308084951319874 1.1552593606835622 6.308080984818964 -0.2028240439811991 0.511055604265636 -0.2229781503315708
Ni 7.727637151503806 3.4215580727337507 5.72338056402146 -1.1584956328319984 0.5060573797200961 1.4888780181818615
Ni 4.758112036558437 2.672773350025284 4.515346230049495 -0.7291298895376862 -0.10159199921188955 -1.2281324192935301
Ni 6.730335604681243 5.187068432107653 7.517501957166314 0.037941255130463696 -0.7528051216674391 0.1954740313740311
Ni 3.267392138612412 1.9580133129219672 8.75775983386709 -0.6302977124591209 -0.21352394689720644 -0.5200608930880398
Ni 7.237834097485068 7.48227093334987 10.705766487681963 -1.3710708426626903 0.712761989702624 0.4931774384336345
Ni 5.237004142502756 8.366745470271718 4.830365933244773 0.473421595962946 0.25701209998782837 1.4703066829375775
Ni 3.676032237321187 0.43924837501907255 3.6906848784916537 0.24222208616284732 0.21664552324532366 0.6223982551063861
Ni 1.7686237900424973 6.870979026495702 0.46661310714029697 -0.8715255530294991 0.4863565588570592 0.7658323871650423
Ni 4.948709756413779 4.731838399244654 3.0522131865917976 -0.26196738711057466 -0.8167823958503483 0.6466941515392733
Ni 3.194612211550427 5.151909900109762 8.25294632649657 -0.7534653809592572 -0.25382007541309193 -0.18033023375405718
Ni 8.188266895466667 6.197390624800965 9.088762124288582 0.3840325665751515 -0.8351655263432262 -0.5840895893341748
Ni 0.45112402190961065 7.99743683003904 4.317553232511687 -1.2351808414998793 0.2069162117727017 -0.3346496452666494
Ni 1.0433431454261977 4.9167482994905045 12.795552268468619 -0.07762031888764051 0.9286837474080458 -1.184956141016372
Ni 1.304620388370085 6.535750834805522 8.754795104364756 0.7835534585938893 -1.1388398062742837 -0.042281277266714275
Ni 4.672311463625702 3.692733237056902 -0.08816863900544486 0.4297670924977888 -0.47819947696756354 0.8373694759730804
Ni 5.2721905559693205 1.2489410954281426 12.902100371623952 -1.559515735104082 -0.5975498286041386 1.4824698006626726
Ni 9.28760532381311 3.7450853414037493 4.186969444594802 0.596492848094534 0.334814710089604 -1.5538006869971757
P 4.002700818128454 1.9300574936648542 10.789136725928616 0.30806135325515976 -0.6497488792051971 0.8931485306159134
Ni 3.7423250760050255 2.1262686825465584 2.0220858573170672 1.9292118304519033 1.4816210795091322 0.20693266683293396
P 3.6645636598732887 6.688866566940141 4.702420661646736 -0.38165969546760076 -0.34322530275080243 0.88955849927181
Ni 0.9171125841516105 0.5315527652111581 13.40959328813404 1.0718216883825218 0.0931297273771493 -1.4894914833961446
P 7.35834709891691 8.868175096727505 4.527072246391484 0.49812064137152284 0.32511959428902715 -0.46538098504665654
P 0.3785234656294284 0.0755634270179375 7.962574770991382 -0.11807637002015793 -0.4825235582642141 0.974025922988271
P 8.788982431870503 6.780308490367911 0.03697733313772436 0.14961043607269717 0.2779943586664503 0.36307344782498113
Ni 3.434615893896066 6.221006228767828 12.390308132644334 0.6147517943047219 -2.7551080156780614 -0.027173989311630616
