# total energy = -381162.98076756526 ev
CRYSTAL
PRIMVEC
9.27334139724870 0.00000000000000 0.00000000000000

0.00000000000000 9.27334139724870 0.00000000000000

0.00000000000000 0.00000000000000 13.57247249859174

PRIMCOORD
 96 1
Ni 2.6961127949431267 6.48755560827911 9.787612395355985 1.7112884689354206 1.3813074327890338 -0.49852559011942527
Ni 5.755490201035491 9.122612722018179 7.793409028053276 0.2187368585567136 -0.7453784901860646 0.3118051365683082
Ni 3.8142830537378054 9.186357672291066 1.9752968784146727 1.7737498206944353 -0.7358265848315715 0.4738026334514486
Ni 3.71273996303543 3.172901654163459 4.961757072041115 -0.7664818478235832 -0.3057465890790541 0.7566730892632775
Ni 6.994529194461656 3.6484386122655423 11.67589658204742 -1.7224658257084786 -0.7356954585703458 -0.7102590207751123
Ni 8.513632378052426 0.26001058891858947 1.716972183001991 -0.5916010672198715 -0.025806162429826522 -0.4311768283611219
Ni 1.8367800473525309 4.51766601536111 3.563453073019705 2.3054500977936163 0.5870286173578406 -0.10328918440865437
Ni 6.165696467448239 0.5428781102539109 5.578463036907704 -0.6592771304106065 1.6792455815672627 0.8380179081903567
Ni 8.297034937912208 2.064116017084835 10.181906534888714 0.4383581766009096 -0.28705492620682177 0.6401686917159297
Ni 1.610371411781892 8.174302261615775 5.864163564106914 0.8920491269041476 0.6889859703289489 0.9611236131043062
Ni 7.104260645811538 8.939445678406004 13.022842033193308 -0.6319424471513955 0.5926210238439535 -0.6017109019603637
Ni 4.909297778515696 7.552877093200471 13.690146131922852 -0.7387244752046568 2.1757453995059106 -2.8654880454952263
Ni 3.32156259362006 4.496884456798186 0.6817695843173656 -1.6806386052600475 -0.7993477453136686 0.44950725123919355
Ni 7.604307045806442 2.5175175087479627 0.4212257782558184 -0.5364835574204374 -0.5535371704686145 0.3912987612192616
Ni 8.678772045561823 6.44422128290448 9.03353949378772 1.541321066472926 -1.0523000734098265 0.4467854814326564
Ni 5.98788941529049 5.096980939495182 3.3015989437877242 1.76802808771931 -1.0101918313858667 -0.43743052258031756
Ni 9.000241706044797 0.3336705960480058 7.169319628591507 0.8548185246874633 0.38624962883112834 1.7987748819838634
Ni 8.641196465331136 8.917977892563446 10.133995815426264 -0.34796358876673616 0.23334303850566263 0.10280684545559714
Ni 5.082468159865117 7.0494181034906385 3.658080105544379 2.3094548480776353 4.8117799713578675 -0.6884429533412852
Ni 0.6307300393934565 6.984133778509385 4.3029352988883245 -0.5197166223747437 -0.9832731526181517 -1.7224475708760336
Ni 1.7496848228889044 4.710245500714191 8.40399366011871 -1.9591546407579226 -0.09147753648570697 -1.2670735764434178
Ni 9.169962404312821 6.702094366580431 6.450426075780185 -0.9244931063654659 0.9084748765603385 1.0720325188417472
Ni 0.8463417233198238 1.5613988947043351 13.986840205608607 -1.6862248410985734 0.7178355475707895 -3.0238217203735345
Ni 0.6008448413654615 7.626804172568447 1.6227244301494383 1.9024312199239495 0.04214372324758548 0.8360438151831214
P 2.5896362865006908 3.1156944097303123 7.012448999801681 -0.7595141582564984 -0.47973391133421894 0.21542964856035154
Ni 3.864090171560861 4.668932763811991 8.932410921455608 1.8735690442766184 0.47102249960315007 -1.219968395425499
P 8.525743362203778 1.2311566530520068 12.398955719912943 0.20927005671685897 0.31719931100068594 -0.9497367114236032
Ni 2.4136189892749567 8.965828335305389 0.17337903153579573 -2.4378871074108206 0.12301314520014299 3.3172555535235064
P 7.397066407357428 0.728449731347285 8.74551784918186 0.13288206757442275 -0.1669126747965706 -0.6730132490497763
P 3.0042844835478153 8.642921306871834 9.78250927546434 -0.07668238045440343 0.7635628744045754 -0.06623213165535691
P 2.1753590231182325 3.2474315007365173 12.476237894277824 -0.09332924498246507 0.0071898328802198755 0.35997886806005747
Ni 0.9096526812050527 5.793390348222761 13.084705422452176 -0.020831592033370573 0.26438628096471245 -1.4601780791440078
Ni 4.474990097241262 1.7072129182846232 7.105243620022903 0.33568888516444123 1.2812645232318192 -1.8977222444840542
Ni 8.938119590554821 4.758661617294748 4.194097797670288 -1.02344689662356 0.5702650247462565 1.3835862015208817
Ni 4.739224693266238 6.722644091602939 8.39661022552353 0.054783266388466936 0.7365439226135703 -1.0726182161418882
Ni 7.895860906234084 6.787882049876109 2.9221532788515847 0.3050559907699327 -0.544374787243056 1.1397016400539468
Ni 5.347231336362243 5.308218388180973 13.362859304243752 3.5235109917837577 -0.6894251147488966 -1.0684530290206051
Ni 9.366445966486515 8.435402468174322 12.730382167289717 -0.6928760494119744 -1.4696489947489206 1.8100375993818762
Ni 5.707129724504635 5.666364114757817 10.621070665167789 -1.8087438202711172 -0.5998255120121928 0.6170184788517116
Ni 7.812243184876703 5.83517602554741 11.647095437654412 1.123955947183916 1.228640212167884 -0.20574044629704566
Ni 6.3526563077816265 4.6046128663588695 8.676379523424727 -0.10845787309378742 0.8255100055313331 0.10107572169710334
Ni 5.9867395209300245 0.16319504777238486 10.58788601219259 -0.04867689638041294 0.0885235960637056 0.46604921475827477
Ni 3.304286358188231 8.3990324223538 12.080804061060409 1.6518641042305164 -2.044731752598795 -5.16381695886303
Ni 5.549000703257428 2.4210562092515144 3.7548112592818716 0.46133098334699907 -1.3225978347629672 -0.5731729424216709
Ni 6.735469123058773 2.8611319090115077 7.250021811344611 0.1546757664107465 -2.212343767455235 0.6759029118927457
Ni 0.2823092661699988 2.630958296744507 7.5522400146314075 0.7649864942249793 0.09992618147369242 0.1459684684447357
Ni 0.285671779840198 4.959030709605818 1.9150220125747366 -0.6828796003208949 0.7961966012791966 -0.9935313400110501
Ni 3.3919008897823906 8.95930917614888 7.506052282041331 -0.09727254590092924 -0.8061259445777665 0.18784891072860552
Ni 0.7549381043410991 7.281770951037553 10.79209704993544 0.8931909538180747 -0.24025005003814107 0.9672132709418115
Ni 1.2811399643657788 4.994093214258392 6.051286615252754 0.405249824082715 -1.4422508052416259 -0.9560791087018631
Ni 4.673764174794268 6.187034426508163 1.7229034123000038 -1.9956283102039245 -0.7234372100282831 0.8737184469157597
Ni 3.129261308515479 2.0598873733076406 0.6858220346038439 0.5578779639358133 0.44214232623369015 -0.4387091321824251
Ni 9.096786465615795 3.9093997186998393 12.406855679636172 1.352275307222742 -1.6171025323796149 0.20331152514057887
Ni 4.103611312177451 4.551179871963702 6.670164396725964 1.7023770253784036 0.774969059358988 0.5390428335071814
Ni 6.648077151663414 7.854362702499551 1.4407313915859314 -0.8685993805216397 1.039824566650635 1.6545431937245763
Ni 1.4078045375076735 5.023749360748456 10.713906088092125 -1.7640978994269683 -0.08085630932643494 1.90629173132062
P 5.196706455240694 2.9628604665462164 9.481688564759173 0.7997303254640679 -0.21197151480842205 0.08667137334631525
Ni 3.8376333279285437 5.720149496134418 4.577818473091706 -2.024797989789345 -1.8828702670728863 1.8088080978501493
P 7.3064102197130065 4.635910394315081 1.1315340713984408 0.4470929853707461 0.261582235857014 0.12383024178479965
Ni 3.420184581713189 1.7924349277416851 9.086091520729305 0.7611118417609214 0.11200908078015549 0.6705421618014645
P 6.150942580936141 7.384936876522843 11.749011316689776 -0.24240720559045995 0.7189673471823876 0.1364538440860811
P 5.836715400255775 0.8535016703820433 1.163749660174701 2.3669873950764653 0.09631943795904058 3.573980718398535
P 7.17334704085562 6.6422256731033045 7.34509674626937 -1.0812967177524926 0.05247415863931608 -0.09884914635942976
Ni 6.8568849848456415 6.052719346532527 5.195244049267747 2.4431810088199084 0.19491404510550303 0.15762199352326403
Ni 4.826904138251714 0.7021505345224506 13.095224173847948 -0.7566723179323291 -0.6936815760324053 -1.8502283126681487
Ni 1.5315758280651717 2.9016007718265913 10.052547128673018 -1.8223562688482293 -1.57539178290439 0.08267767880588987
Ni 0.9385456316800657 2.8627083770863395 5.008174783503283 0.28834150622872917 0.21752946851217375 -0.9949243637038347
Ni 5.387477638978527 7.458567208959086 5.866579269598052 -1.70856027137098 1.6543033097996283 2.1681328772659754
Ni 6.755165700652549 7.502578488271732 9.364897318436531 -0.6974603263485472 0.7261091004334914 0.320174591578926
Ni 6.0250476951484275 -0.041119851396572905 3.466192411475901 0.40365753989493064 0.015492439208644286 -2.1939220704149376
Ni 6.522070985776302 3.8209134929937143 5.235038740147299 0.2269008824247447 -0.2454886727292611 0.3742060674030329
Ni 0.7490699337660798 2.6715848063670737 2.4554371232952636 -0.7840388828707401 0.4465165440419859 1.176303607547697
Ni 3.293844575527877 1.3859565446588338 11.560679021797124 0.5557465194151074 1.7682309477587352 -0.3506642755273509
Ni 2.8128363458719674 6.47183729423888 6.687197670607436 1.11293517059338 0.9167296603699631 1.0932428343707754
Ni 2.040014602223148 1.2057662437056047 6.0049774018875 1.2356379836419558 -0.23916530161439453 1.3868131930986116
Ni 8.350922326046593 4.701862399892733 7.5004335643558 0.36607546787609857 -0.6399270080187689 -0.582378520180339
Ni 1.4106514533839867 7.869774996266432 8.253610661123897 -1.0654888041859585 -0.9201898510044216 0.20848972690740866
Ni 2.7609056328186976 7.59416201007782 3.500449062741987 -0.5700788768773795 -0.11599840444520668 -0.29743704077209415
Ni 8.0857325758351 8.724573079806483 5.482125072854757 -0.1749460866240084 -1.9012022326128548 -2.3097908912608154
Ni 3.879103711638226 0.12770689673960672 4.623340379753706 0.10464955509129074 -0.25958860246575294 1.0655985902909453
Ni 1.4205739289138077 0.7630272402333076 9.09720747532519 -1.19566529990376 -0.4188391327313754 -0.38801520537198336
Ni 7.671575865893659 3.3869118319926295 2.994535419506226 -0.334600794306585 0.13155563545351537 -1.5815770857794955
Ni 8.236554203888382 6.551300558552 0.5060212139985144 -1.3505207864254807 -0.847881688358314 -0.9817618581799481
Ni 0.7612653053261431 0.20806782052121817 4.275884961392541 1.1388866003518192 0.3262598785410575 -1.9760431889831451
Ni 3.5259284961679094 3.703893195133141 10.77327216645363 0.5982414553545246 -0.07833971355216832 2.9406161940886326
Ni 4.768361532625769 3.143811181512011 12.837441968919842 0.36262633298523356 -0.6923507730361237 -0.9154191690886557
Ni 3.2799067430780444 1.8552339971696747 3.205736702159712 -0.27410247981121183 1.3032410275029103 -0.1268479455652009
Ni 8.165807880694919 1.3003265081706388 3.7439939062860437 -1.2013921750852083 0.10816065356834277 1.3926130876098404
P 8.291025812544616 2.509486794907939 5.621379134575423 -1.5087022519966402 -0.1846959669219206 0.6985185924097325
Ni 3.5611486476279657 5.998794865031677 12.288584407991511 -1.6164569283758161 -0.0417832545843732 -1.1700308871651075
P 4.092436935529381 4.19178224426861 3.0063839680898266 -2.504505161650687 -0.4412648087247432 0.8155333539345955
Ni 5.401322738012193 3.5479341358242324 1.5727513195114446 1.0772893963653125 -1.5995017885787164 -1.7305547733642004
P 8.628148873676501 4.138451256631225 9.890559469979124 0.5064101350738246 1.6558937942151999 -0.24522487754491312
P 1.819744918802735 0.9185337604713235 2.1144146220135736 -0.6032201395160386 -2.877172166701374 0.7134196778912809
P 2.365082319253383 6.4458812110538615 0.7368958908917347 1.5454965380068544 1.82005436018793 1.2904685583285904
Ni 1.3317724095927166 0.42932975149461344 11.50503248075806 -0.7978675612237163 1.0712725007472712 -1.0452249117305998
