# total energy = -340897.6303561357 ev
CRYSTAL
PRIMVEC
9.02507131497290 0.00000000000000 0.00000000000000
0.00000000000000 9.02507131497290 0.00000000000000
0.00000000000000 0.00000000000000 13.20910413765772
PRIMCOORD
 96 1
Ni 6.4718785934126615 1.7330934572188355 11.389272597166404 -0.7431496008555459 1.2995964887717877 -0.7676061912360135
Ni 4.517472339000038 0.19088747699561084 6.056571889698995 0.12276837617918857 0.23789106288766126 -1.432795573365997
Ni 2.715977866777055 1.537475037873947 4.795605179769907 -0.12277866059183373 0.0718502491730827 0.22604007708634619
Ni 3.358869792203296 4.395218723846828 4.926691632155545 0.6982792227054168 -0.3797992452200943 -0.3894498809359809
Ni 5.124480581136071 4.539746214845168 2.645677976781896 -0.48378442725450876 -0.004529255328921232 0.18210506626629283
Ni 7.185626353223066 6.068394733036564 2.515225084398012 0.6166364129219445 -0.708996866233237 0.5620390372920384
Ni 5.119498741806042 4.726276387441254 11.403393223644235 -0.18832199371028213 -0.561532015748633 0.04750190223570529
Ni 5.514652461418342 7.733556478956254 12.42240950595204 -0.4127913838753988 -0.03437744903860531 0.14057583667425466
Ni 1.666524531678448 6.467582659497637 0.5057568702888182 1.3903790560729992 0.4381874553510002 -0.14798395621286772
Ni 2.876443633602989 1.8404196045244599 0.28246487496989375 -0.04756746536631808 -1.2346182841281899 0.41016423066519686
Ni 0.5778762146479879 -0.01090138356293844 4.859246372196778 -0.06340777483268435 -0.13646592827093917 -0.22123468527790285
Ni 8.66428500176042 2.196873818616534 1.4612041607397532 -0.6698135111655562 1.252497735511772 -0.2630876167579469
Ni 7.0732461660174115 0.5839771628130234 4.802697983265323 -1.5775921329898186 0.9550344694874326 -0.4543350116451401
Ni 0.647150856549141 7.382598533255462 2.641926254663249 0.2556044210070243 0.11246673714286436 -0.19348862551288615
Ni 7.596980075729209 3.862631219238728 3.771766801893199 0.34340348019987954 -0.6499746220627579 -0.5660257898539284
Ni 7.556295054533972 3.8479293781723922 12.652248287955752 0.4019351578871852 -0.039986567695266616 -0.7207673765056039
Ni 7.834700452455593 8.864758909437837 6.948833753821187 0.09533727655142936 -0.18241282731469874 0.16960461980643696
Ni 6.7913390404507705 0.6384200026218402 0.2774785231042397 0.6685490426308357 -0.38571483937358086 0.697907955408927
Ni 1.8936314246147696 6.325870990729313 9.14029072467344 0.2237836769520017 0.804261380565202 0.14314591139427604
Ni 9.092578783002912 4.859459363878279 1.4990877998189736 -0.10059749650910417 -0.6922862383467754 0.44407065360465464
Ni 6.259220839547674 2.0706852723983 7.038246939709707 0.8122027468994657 -0.6146990866899156 -0.9795293693050035
Ni 3.3554492901995263 4.242776245362189 0.4122968424517743 0.35950681351964536 1.2129932496592464 -0.12182940930468696
Ni 6.094260587239215 5.548514528748539 4.797837079890045 -1.0217160299753822 1.00606341103979 -0.5965483839228178
Ni 5.2626453969031255 2.616314004962725 9.185333952775329 0.8169430897979286 0.5044023606151765 0.6885285710765562
P 0.12116880158895511 5.6493877501103755 12.514450792588574 -0.558309137935961 -0.8090012092430326 -0.8483645415320034
P 3.7434461283105342 6.156389177724576 12.557446232023825 0.5516144995246048 -0.07526878793632844 0.2091798109958978
P 2.2742006290869843 8.44765621654541 1.4864599201259001 0.4234969432183609 -0.2640718350480871 -0.4248280033249586
P 6.250574821290123 7.8004322569191435 5.76790047323044 -0.06986587175320226 -0.6994555024017052 -0.21266134178659504
P 4.762286421728962 0.8060462609775656 12.62742753700386 -0.3241302337925644 1.674461272804742 -0.20893555619557563
P 4.228606883499608 5.9665287538372205 8.238122039840066 -0.9080902395274102 0.7853280339958089 0.26019384014991964
P 4.6684437308709175 0.9963227406495478 3.820680883054234 0.3083511165814367 0.019681794699643523 -0.003026702641465755
P 0.0380289427263463 5.62781782982275 3.774105197854088 0.8620178706493798 -1.2645932332237253 -0.4179832124889834
Ni 1.5346050652164303 1.1674741918355438 2.543954593708304 0.15812952928730187 0.317661338238769 0.4098091613186233
Ni 1.6433661988508133 6.4338649933074405 5.099137278558799 0.7754133459852581 0.12241330683261498 -1.3470557106950156
Ni 6.257244348943913 5.657726915945424 9.231050451192468 -0.6921965068464466 -0.11735620402468176 -0.2012991226962404
Ni 8.639772908245279 2.36965880769879 10.245285250751996 -0.002342789200563707 0.4516230120306157 -1.6793250286549464
Ni 2.4656043401580985 5.233846394544207 7.041191820458599 -0.583008440454854 -0.7812561779192804 0.5753660934182478
Ni 0.5251851411688062 0.13509538903491117 9.031975429558809 0.3053843206436289 0.22529420005925713 0.5815470254179791
Ni 1.4613666120222542 1.098766324408894 11.328127739447297 0.40281087562391915 0.3638519778622185 0.1423460412008
Ni 4.040154370727261 6.878042899950025 1.602053032696573 -0.28693871234393165 0.1532619167823554 -0.02091592421706075
Ni 5.663259284621707 7.761254422622665 7.934959968972426 -0.47613513823936715 0.0881574709735385 0.7412526409431492
Ni 5.4046187927377005 2.8799724364617596 4.66560083342715 -0.2998451359929546 -0.04022619450989847 0.4214313189385839
Ni 0.7223324075834535 7.5285158852263105 7.0981761203314315 0.12736576574188385 -0.7288619805882802 0.26506068132391764
Ni 5.15189874759373 4.519250278036298 7.000045618122486 0.02383695451859766 -0.6147862470870831 0.04269908153042324
Ni 8.138971704579863 7.245182798402163 9.041764021836617 -0.07936352683099235 0.09023415099690912 0.5062216732121024
Ni 4.6267479016956745 0.2723504776199599 10.464885991929648 -0.6601273942260437 -0.0941100890125476 -0.29443142117655097
Ni 8.003532460330325 7.286508599656153 4.552887621092369 -0.03827806964459214 0.12809107394368263 0.5266616862340091
Ni 7.1837130381180545 6.188978710008516 6.88573406566932 1.086000550986065 -0.7842923936424427 0.34304249731603503
Ni 2.3306704998985626 5.272509799779432 2.757730553901173 -0.4307960479829355 -0.07471394387412295 -0.22572974493477896
Ni 2.2060162157928374 5.201229787046517 11.257088696116757 0.3725389641132552 -0.42134055899699047 0.6866979456257206
Ni 0.9966386181432998 3.414843284096122 3.968490792466219 0.8240012821962907 0.2927854009326957 -0.9553306605716129
Ni 3.5941353495496653 2.684525493470622 2.787662202701972 0.06734619065514208 0.2689939549400529 -0.5305633352812604
Ni 1.0043460289908446 3.3439332992844593 8.227052789951875 0.4397229181589201 0.08643097520073502 -0.3034462230806516
Ni 3.8094284242196683 2.5471458589023226 6.859540601380292 -0.2680367332331061 -0.2427519905243884 0.6176417142580072
Ni 4.147173665610384 6.707821031102784 6.09347901606896 0.17550298756874289 0.5254807785520305 -0.7396115057953004
Ni 0.8347613301738577 7.371154742910394 11.266546970786814 0.13086940801976815 -0.2143410434818631 0.16736673161485371
P 0.11741527445605827 5.554768903124825 8.088343762388444 0.41452662139895063 0.16779816272531745 -0.6382007693562814
P 8.436591479192845 1.693166542008603 7.859905671442739 0.10060700959080093 0.02418456766600351 0.8787477818095513
P 1.7569196453189742 3.168260287402187 10.403384643896166 0.600963739381694 0.3936937438139994 0.08210535124218762
P 4.046255318892296 6.182471633637228 3.8363330641232 0.07750590479696329 0.0666818175982658 -0.4493028485378714
P 6.95276146482921 3.896511336711425 10.375368115214629 -1.2099063832038066 -0.2274179312704793 0.08715422652000475
P 6.2920089233991146 7.825043626218036 10.254267001660047 0.4543751208544562 -0.9243642940970854 0.03977702278762182
P 2.364848444722512 8.337090068661016 5.871816948617795 0.7367100158777893 0.22408783845598182 -0.08012354492546847
P 6.937039790711619 3.941077138544184 1.534355973249929 -0.3797411382886492 -0.3372107211256063 0.3046063048270238
Ni 5.278285845379466 2.892336784074331 0.17144657101587268 0.4874611047751476 -0.1531323331830266 0.230316592974513
Ni 1.6069049110006013 1.0050229093345986 7.004655624517012 -0.5280886484885228 1.2385083632112155 0.07860505139841302
Ni 6.869207355196225 0.6097518637960483 9.141162546556195 -0.19968806945537868 0.3873870848696812 -0.23143245174651111
Ni 2.8574639087641285 1.598665020949303 9.262976640739529 -0.20441864216182862 -0.37314034514267996 -0.7154824739575807
Ni 6.141389509306989 1.947989428753836 2.3759483798529515 1.1263779263618474 0.9507913779403627 0.7375042296443105
Ni 4.181044758011831 6.841184508964811 10.274530091630664 -0.3789078437540765 0.16588243375984332 0.23956125150123256
Ni 8.179232547426347 7.402155862654326 0.2477616709991918 -0.2986621714284469 -0.24460652723462392 0.3297995162631998
Ni 7.568487925792793 3.8591294915937073 8.065769351670687 0.5448131603320553 -0.01266114040743626 0.5094046989257743
Ni 3.010357640811268 8.324148116488441 12.462340933697899 0.02390174631826206 0.18648314072933042 0.10961589795763056
Ni -0.06187498598323507 4.8753886146346215 10.20823372324203 0.12111798505995915 -0.017323835990428228 0.17905985168206584
Ni 8.688715869634313 2.29062625876208 5.699438087741792 -0.13762241047288556 0.2805880875355555 1.4331889521496737
Ni 3.8212422424859867 2.622739855692762 11.347003675966782 -0.259852654760417 -0.026672367084863743 -0.0847543588292605
Ni 1.0410419686935581 3.4943992871653347 12.738872726828006 -0.1897985782558086 -0.30476262789923 -0.7972476682515303
Ni 3.177492935290991 8.365392692101182 7.959105644594817 -0.5714785854383836 -1.1468637050200248 1.0754721406509156
Ni 5.7013450852969285 7.938958075536199 3.465883672043669 -0.9952496082537375 0.06683968333236874 1.0135306659511125
Ni 2.9415234223871174 8.388099771366313 3.6636906711666954 0.8196828573265948 -0.9275655746432024 -0.11593412686617453
Ni 3.5485767898794003 4.152435282149164 9.227589336368073 -0.7320383214337327 0.3719928618017981 0.1908239341965294
Ni 7.1861227321418175 6.185269405724744 11.461500242380573 0.7122117736261089 -0.3331167535618908 0.11913900695671739
Ni 0.6030101355722591 0.2729172520944632 0.27552369267147836 0.20740395004239762 -0.3718254829859983 0.23572465136396176
Ni 4.6171452258856185 0.3527584474151778 1.6456955697404518 -1.2156443141288484 -0.8630385986044103 -0.5050708474371107
Ni 5.833778980820199 5.597854593272576 0.4732991040451293 -0.037560988972909506 -0.05394945763326192 -0.6358800916429049
Ni 8.06280010322942 8.832241577723897 11.167399343047986 -0.1678902082184915 -0.11416083701583565 0.41152768667162676
Ni 0.14251309509532933 4.73763895214507 5.988637470878475 -0.5848107837709154 -0.08707786475611456 0.17611670989334186
Ni 7.884852773392135 9.009114924082427 2.4394045583191954 0.005083842280810599 -0.3106219148934844 -0.2507985149779487
P 8.658680432514137 1.5830245724729621 3.6956962813407563 0.0019748643381836957 0.4861734963119756 -1.4217480573025836
P 1.8234795457881114 3.318112570438059 1.6267537502008416 -0.696496162663065 -0.29126227941995 0.6497511931980422
P 4.751239734518898 0.789599873638595 8.142501409945758 0.48186998384061525 1.5696263411755225 0.2303839558773387
P 8.492555946014422 1.693861472494857 12.203177890188513 -0.08249307359890953 -0.3588025883637691 2.7177486011929965
P 6.321872884165539 7.63148292311816 1.4247997308384164 -0.4391526474777469 0.9438974790340066 -1.3490411165561604
P 1.9075390594111006 3.212663637952445 6.069292727625944 -0.6334866517100638 -0.21407596274593454 0.21979306773536986
P 6.959015839205496 3.9187761874853044 5.920624533938079 0.13821479264124584 0.010107777857963237 -0.011890323679682749
P 2.3922214858239212 8.499559401304461 10.122176058844278 0.15743687409565144 -0.478246271045099 0.06743823614831611
