# total energy = -340888.0409879975 ev
CRYSTAL
PRIMVEC
9.06394751025499 0.00000000000000 0.00000000000000
0.00000000000000 9.06394751025499 0.00000000000000
0.00000000000000 0.00000000000000 13.26600337911679
PRIMCOORD
 96 1
Ni 6.1524079889476875 2.1211630641970065 11.256216984066217 0.4489950874894654 -0.5531605038554861 0.6741777016715228
Ni 4.941600595066954 0.3190346282239237 5.755920118651753 -1.9808192702155496 -0.0752037390263479 1.3087678708584105
Ni 2.886921583975574 1.4614708551808178 4.775667819088849 0.7040953151665615 -0.10141125065965113 -0.9896404895970763
Ni 3.6041698580525305 4.4341826999123235 4.463731167959269 0.053907805762049094 -0.21344681380236788 -0.3440048612293043
Ni 4.020966408565026 2.658319770290909 2.511108577365247 -1.9835857772170933 0.4640877201565297 0.306698154359046
Ni 5.1658063943335915 4.868789906778269 2.4060420199849477 -0.5364974413775082 -0.3017292403895449 0.7839807759392948
Ni 5.2487143198628585 4.431146277582346 11.399038507336927 0.38693225672044973 1.6901612000385022 -0.4754802782641876
Ni 5.73949080785976 8.130034384435668 12.146657349476738 -0.9400847901561359 -0.5120249101574408 0.8980189713343373
Ni 1.732047808597202 6.922707546300341 0.24748292220877308 -0.14239489216086443 -1.7971602291985758 -1.2556015712480764
Ni 2.6153113405722723 1.6772109277125336 0.10476019596312561 0.8596840803098807 -0.8236120171776719 1.7461189463510445
Ni 8.561750192127695 0.11685240799423906 6.240726184592667 -0.8110609199855386 0.2579366686846267 1.9737667342441427
Ni 8.92608461593598 2.703077541829503 1.3365361254204866 -1.521090084138032 -1.242098908775951 0.34580309078030774
Ni 6.921375146054052 0.5919283265583444 4.724355000896405 0.7359841934553584 0.961927339952524 -1.3973464885297677
Ni 0.8280305565954167 7.664383158225922 2.349780286592003 -0.4752082555497235 -0.5995126087574644 0.6808096051657437
Ni 7.775017698404148 3.9282603560545484 3.682974534660063 0.05135212921973092 0.19363183595896974 -0.17958075718254232
Ni 7.534378962766616 3.793633547495874 12.404694331867677 1.282153867815308 0.27202554267752505 0.18334433799003264
Ni 8.630763086517094 7.215908112061871 9.356750818536034 -1.7811641108806358 0.7699114423304224 -0.8934632336428548
Ni 7.052312928080486 0.6859341491049974 0.3580948025188643 0.45262779914604623 0.42994989793255634 -0.7293155231859311
Ni 2.1802056166073753 6.6070011995079625 9.258423305938832 0.13928488577697304 -0.8058330959276961 -0.5722856547207111
Ni 0.3487534984792379 5.000597827741054 1.2280062337945619 -1.0814563832588084 0.588381017620677 -0.5546296322018448
Ni 6.558282483019518 2.1257222296656 6.89603960069061 0.5116546713022155 -0.7200682935560501 0.6349930610522613
Ni 3.6522722261277267 4.560035607529451 0.6350980945380963 -1.9749345292999987 1.3307315196136953 -0.6414218473967405
Ni 5.899134110838549 5.497664695131999 4.601724326527955 1.3258109423836264 0.35722675923621705 0.13919181184253446
Ni 5.151367526358504 3.1566012066138454 9.303607082998349 0.5198824585286466 -0.7942955276017417 -0.8181743911018683
P 0.12263883192097827 5.579992528037032 12.228667944227892 -0.7074670598522719 0.12080353914333389 0.5762379545002398
P 3.920039355895475 6.217351171020192 12.380696625118876 0.7767590613798752 0.2520380438120046 0.0647653173018433
P 2.4530213649954145 8.578663517703031 1.2317043242740568 -0.18973070113235066 2.175963171943672 0.0803703708289519
P 6.553750509392685 7.6556998967569125 5.735569744277825 0.19381001340804688 0.08314176292650197 -0.31680618932732535
P 4.579296495443488 1.126666771524969 12.505158216832568 0.9150592146460756 1.1477509927209846 -0.7876903635803982
P 4.027936584003093 5.880290164498181 8.201732926396328 1.2035357037907723 0.3553953624544331 -0.02844308583204134
P 4.824313117604539 0.8661408292181733 3.6170288800213037 0.10083918020626503 1.2421179349393447 0.14126926319685348
P 0.21089811190880822 5.7007514972976 3.4943447283640574 1.2895948974743856 -1.1374316130728477 -0.2766987797834783
Ni 0.9080806195556029 -0.0172432532553708 4.488459428856716 0.2157412662634994 0.9824123472797532 -0.3770329953288668
Ni 1.8253792734681824 6.865595614655002 4.709311567639498 1.0363679755606021 -0.871683675873918 0.10724328396039594
Ni 6.410440439365001 5.933713069611277 8.482627370971558 -0.5692206426421422 0.3079387116343664 0.9029290070414449
Ni 8.402297232041233 2.6229159923180965 9.959651053244938 0.889648744992771 0.08305871629439245 1.3407968742694971
Ni 2.7332151664479363 5.188384686942469 6.675465725088515 -0.4411719919006209 0.1715763988208271 0.8882806610006508
Ni 0.5648380010065928 0.2531877706102293 9.288868198369165 -0.8729951955964902 1.0211539868243251 -0.5552639233517341
Ni 1.3926845594727602 1.1485743320370756 11.297128922785081 -0.7158401144073155 1.2358328732615813 0.6808234891228147
Ni 4.014268151544568 7.166391768215104 1.1596105942131372 1.7134813628216816 -0.45816004181818515 0.31609296531038467
Ni 5.8770905911176365 8.236572020455238 7.687410116223856 0.30628934895640153 0.37992111550993923 0.9125102229719769
Ni 5.523877630589597 2.7798491750680387 4.913422595844763 -1.618869908692683 -0.056479680254283376 -1.356231977877645
Ni 0.9775920310439539 7.909336332756198 7.459633121739275 0.32470744645227306 -0.14024133615297138 -1.0158325746114116
Ni 5.244127962552504 4.611863257925903 6.716471022464092 0.03985081344835072 -0.11557854329896869 0.7602047565656198
Ni 0.9910610566628988 7.489947493329154 11.176660906231353 -0.5998167702614444 0.9795625365357841 0.9643572895502552
Ni 4.687755688280833 0.46732171168859565 10.263707508632184 -1.2324187053737097 -0.3388158608291971 -0.3468395024646221
Ni 8.433785384800462 7.241450315422696 4.634199543143108 -0.9048768747964352 1.1684509442724973 -0.7745409706826338
Ni 7.870107569042339 6.081745456158121 6.553618175762781 -1.182812355200492 0.465207692693586 -0.022918299359070207
Ni 2.242728724763151 5.507363118693421 2.448493016947484 0.749755793318154 0.059076237336866004 0.9341105748505719
Ni 2.122341377339983 5.484422268194396 11.412848337372612 0.9026603267610905 -1.6314294905252484 -0.2546104325248712
Ni 1.0251143064949153 3.2006791821084146 3.575240457603011 1.393906352499967 0.9476034671306842 -0.874820421730687
Ni 1.7559585014523682 1.1166329819151628 2.4795089380547974 -0.23270720469387665 0.7189349512825554 -0.3558661314432645
Ni 1.1589616155897748 3.405080256625796 8.211974280398243 -0.19821559867491026 -0.30866067740205555 -1.0556342799893819
Ni 3.7091756869862307 2.87748601488451 7.078526769932807 0.18613501336129235 -0.6258252785100642 0.3163462189717713
Ni 4.450144311026026 6.851591816148091 6.010666888189612 -0.7097915942203905 0.7996943300198099 0.06331007291255548
Ni 0.5055162790208113 0.3578138201540007 13.622327784425146 -0.2540548171317173 -0.13498471573972237 -0.45466077041567504
P 0.4980729655361022 5.91021931832978 7.8484057601328905 0.4795937862119289 -2.049307544894935 -0.2229912629576934
P 8.469959598289837 1.7395708848177434 7.943735825373305 2.228491580859691 -0.021702681784414236 -1.88380974816802
P 1.4481740445596925 3.3884479134153223 10.496101677847781 0.7852858679039636 -0.8877947225031678 -0.29340837922867535
P 4.056578657324672 6.397107372954861 3.5691648937588796 -0.7590732140643378 -0.731796894846888 0.10861111084220006
P 6.90724445228559 4.228122923047521 9.870993865972672 -0.27036358159406987 0.8151572015420994 1.0698604508910932
P 6.244978082249361 8.023949945778782 9.946279011861607 2.6834369723953206 -0.5447753651155844 -0.36353393240116744
P 2.6144593295304275 8.443637895465196 5.981442003059623 0.10058489810361386 0.3521238907920129 -1.2813894788454576
P 6.820275878386681 4.035160549964264 1.2802345106596258 2.386053667679297 -0.08411441125241642 0.7592279944746473
Ni 5.242994969145796 3.1911257817030525 0.153914888314472 0.7750215098634782 -2.754537487886572 -0.04495882409887741
Ni 1.9176140007214695 1.1474685304721284 6.952447263634339 -1.4789098512255563 0.6727872490818995 -0.046640582676674515
Ni 6.952292270136301 0.9415990964996532 9.130047901801012 -1.23598636812031 -1.0738227779729506 0.4845066501325139
Ni 2.6683535599007153 1.591873864319285 9.122778616103572 1.1538414218894386 0.5479673896903209 0.5722961962436725
Ni 6.294856983986274 2.319319079056614 2.5277173543128613 1.695205447330629 -0.3275060922433327 -0.1557052361165254
Ni 4.71569983766388 6.629543236327826 10.164690229648977 -1.7136417996589453 -0.5419834041927439 0.8209843497468376
Ni 8.290230588196929 7.276373704191065 0.08948563205125068 0.28391535213657554 -0.24326209739158752 -0.22119663295111583
Ni 7.914647805846845 4.105016391448254 7.825429560239577 0.04191386662496652 -0.9974463587947403 -0.07513457635130931
Ni 3.0860111854023087 8.65212681019398 12.268359875646413 0.35080234376711195 -1.4331005062009254 -0.42611098380244034
Ni -0.06331982911937283 5.019423646186915 9.86303481388923 1.0124243202608114 -0.7141524422922474 0.9153595194953138
Ni 9.189392283654927 2.410457068692207 5.543411343315968 -1.5641915433131965 -0.5444892013337332 1.192259873766637
Ni 3.4571345057035896 3.0729772292515394 11.652617840468517 -0.47993265760858644 -0.7726586660582565 -1.0328854163286405
Ni 1.2740737457113103 3.4401758603919843 12.786251161852652 -1.1339971334700019 1.1247195648228179 -1.5312724239876725
Ni 3.3585006316892154 8.370818143229258 7.984143808624865 1.3561754136080968 0.12056262677712139 0.626406862045147
Ni 5.676922379967716 7.855206439757316 3.618686675973999 0.44726499217223614 -0.11400965614995202 -0.7310839279402636
Ni 3.2132146211602324 8.395680550546059 3.362056418196828 0.1334505384833831 0.023907402745216893 -0.1170597558301855
Ni 3.135899151086476 4.100991998867627 9.313410648347912 -0.12324145916086517 1.3193003949586184 0.12417759782188935
Ni 7.1988588272777285 6.192751618173747 11.108300616044218 -0.31435695645588435 -0.2775526431433414 0.42375559619638636
Ni 7.934769768749979 8.95588687450603 2.509981022326891 -0.22257757245904247 -0.9797363431094869 -0.19761730296927899
Ni 4.975236903325301 0.7596929262764153 1.331575427088556 -1.2950080980701568 -1.7556160872082023 0.0463958136557201
Ni 5.975651953553982 5.701957002282337 0.2689363789634709 0.032755854274782295 1.5436869956019414 -1.1986189832154455
Ni 7.9368272847765615 8.72547227137063 11.256920346373102 0.08814641522994497 0.026709905191018516 -0.36077565292973995
Ni 0.7190828170010982 4.9086622107471385 5.618112771001766 -1.7021813644278296 -0.3938863194407797 -0.4533546500097418
Ni 7.42270206865422 6.078935632509486 2.471788267784126 -0.484652688792075 0.34505027177468317 -0.6121302975214747
P 8.32330493172555 1.7114363925423697 3.364815483740844 1.405869181288798 1.2396697305091682 1.0816960100734405
P 2.0587668513027824 3.329042803114807 1.5446135369439544 -0.06560426826337089 -0.04715043243355751 0.9520147088245023
P 4.924759781069645 1.3116438070777485 8.153604272874096 -0.9910342846208093 -0.8727727951730387 -0.5983126749120922
P 8.242363882750329 1.5887286746222633 12.037968838773875 1.0315116759095655 1.1731704612353537 0.755176450113093
P 6.563820554791507 7.747998071640975 1.2272856499878955 -1.5932794618180883 0.04921528538238621 0.1272114995522067
P 2.1568296966401754 3.2801790634703036 5.632558890134658 -0.48895080194679663 -0.3075777287505219 0.4135370037921717
P 7.106324989765071 3.913069180457407 5.761650346105519 1.0590399632368213 1.0620769502909322 0.011762282742250711
P 2.5003351696595417 8.633210352275583 10.053189176113301 0.33397678756934096 0.3998890739914339 0.34226679549227507
