# total energy = -381162.291964581 ev
CRYSTAL
PRIMVEC
9.26436078909415 0.00000000000000 0.00000000000000

0.00000000000000 9.26436078909415 0.00000000000000

0.00000000000000 0.00000000000000 13.55932847078304

PRIMCOORD
 96 1
Ni 5.739512482066022 7.032372581395634 7.083718449090218 -0.9425347943585252 -0.07720534283740897 0.4075298783661433
Ni 8.476843947676127 0.1888160140909976 3.9534937735047677 -0.5530651159282023 0.25307496971695126 1.143896651971901
Ni 2.271334109812412 5.689114358496649 1.3406280708252085 -1.8147401470638684 1.9529348851004558 0.7669001663079245
Ni 6.575065196169279 8.447772383014234 13.592142317636048 -2.546950475299091 0.7377047756908908 -1.1519277498064935
Ni 1.8967667322327606 7.797062198590411 4.4962463597753 -1.6047365546150945 -1.2110777778040887 -1.2849846523958839
Ni 0.9393228211070335 2.8214518630383956 12.132494075246852 1.9096729890880273 -1.2109438233293854 1.8255740044545783
Ni -0.06430948797227154 2.89284302852104 3.7445305536552564 1.8204618800389938 -0.694456763635533 1.385594233089846
Ni 4.251878458118305 8.671747573347535 0.5489096805580701 -0.6721861251627907 1.8302089321234287 -1.1557265547272937
Ni 7.511673559517889 6.111411723692 5.862091094671 0.19859715038404507 0.08875962333391164 -0.22168488544144405
Ni 6.4024330942222765 7.140339443909874 11.632955100628772 -0.21847640580647537 0.5431134040321292 0.735875692901952
Ni 1.643006621444399 4.042198176731244 5.985385842377433 -0.7411672803181946 -1.7981907273456195 0.9644897013630616
Ni 4.6963176459847595 6.828760456430988 1.6705365964441687 1.3282874289485769 -0.8083874869184337 0.4668292874574089
Ni 1.976458765126831 3.188311292307437 2.1623333446161235 0.22410532195747856 -0.4761101985387027 0.41165932715348463
Ni 8.456184422757064 9.102929460694178 0.7921510359235151 0.45304868873354875 -0.08711026065594675 2.863466129969191
Ni 8.19795888999068 3.0020791084854648 11.164601817841431 -2.2690353066100086 -0.689366236486503 -0.5633924659961395
Ni 4.382089051274101 0.6834995371350508 4.5208432380982195 -3.966188364585311 -0.8243638077420319 1.674674931477445
Ni 7.033085937188804 4.9017177926128035 8.609834775553093 2.4496493901530716 -0.31462717939813556 -2.362511875803615
Ni 8.42851177659866 2.3011190302674733 8.455394172768006 0.12374410982889657 1.2209351302141425 0.906631909814329
Ni 4.878316016852467 4.315543146568438 13.581023231623554 0.40220460949848796 0.04030769848011123 -0.8878003789301226
Ni 8.441287330349057 5.613683931639695 10.385103119667676 0.2175448951311415 0.5269797316950602 0.17159671053580125
Ni 1.7874009512150317 7.843837957028235 7.336166726368023 -0.8198083271608655 -2.0403071411685376 -0.5256525282432043
Ni 0.5441172266385046 0.893594861892683 10.35616774111175 0.16534481608881846 1.9883384614107305 -0.2592438175318245
Ni 3.8987673404994374 1.4006231459029477 2.4015743489232495 -1.7176997717784028 0.8132052200220511 -0.42055354431932085
Ni 1.8586438869224722 7.564841727011387 13.307125179437628 0.30244246440648553 -0.383779570024081 -0.3373521317994771
P 7.540569101321726 1.4019016277140823 13.445118762227732 -0.6082394471075009 0.958871840955652 -0.8610920164010009
Ni 7.67216008425911 0.09577403706761352 11.488398644541508 -0.009673518534022051 -0.8384807067593882 0.11025430287257786
P 3.570336480452042 7.054903507226648 8.150146449562524 1.8521746377612425 0.02335692955838558 0.06296091710325286
Ni 2.97472145059937 8.062699220116995 2.38893683415101 -0.6752547367857854 0.6162288930708807 0.35071775447310566
P 5.844700036295187 4.806285610464254 6.14554904092149 -0.5754609671248992 0.723148989363903 0.49653941292733195
P 0.6274121695061282 3.833666676102014 0.6540286785162032 -0.6817074343896646 0.34144841335603776 0.4398620148399457
P 0.2359808756887322 4.608111665377407 7.5619697751168085 -0.2802736416189302 -1.452779986907724 0.555301718568205
Ni 2.6184604502574165 4.08685239651146 13.414949370793234 0.16934133884272123 -0.9649892667072995 -1.4375294885065566
Ni 2.4337846790750866 5.283001831881388 8.55466180034996 -2.32529927130906 1.7405324534022022 -1.3604413879733024
Ni 6.6016446477355535 6.1955321211202925 0.4776111586849282 0.3588853778855625 -1.627797807309932 -0.5318787116585744
Ni 1.6987224881992165 1.007999528831254 3.580367930488975 1.227856282814008 -0.12125965284414598 0.2975172591907263
Ni 8.47367553623114 8.08261759616004 6.732234153254214 -0.6384511948041908 2.139067327358587 -1.2034817106243854
Ni 5.777579741210609 2.261384186151841 7.930688561628566 0.0025374217098730494 -0.37832060379203875 0.797461069813917
Ni 6.869078955286486 7.372068904358536 9.478404745646955 1.330618648184915 1.0939971960382966 -1.223851532529989
Ni 0.7789502480055005 0.5383761021576332 7.799488534723283 -1.3756121821764695 0.4806975607990689 0.4312794153772572
Ni 5.792254488955808 3.519827184551266 9.769917127307593 -0.42223350312490504 0.51376297589447 1.5303959349199903
Ni 3.556263916168609 3.7196501858872586 9.360357331982744 1.690874681165759 -1.5393891395575359 2.659544996269071
Ni 3.3947583117228595 5.772984618179283 5.971921946608432 -0.06958690706020275 0.37826661062565176 0.7451964560822456
Ni 7.013834595134179 3.5391896989372933 -0.010449272715789597 1.587362325002705 -0.4195235603929097 0.34141036102925076
Ni 7.810124947530268 3.666871121553671 5.870009343975181 0.6632949933207479 -0.40583577849317204 1.1221885708708481
Ni 4.734922238064461 -0.024199437238154098 11.005198296895292 2.0264838621322 0.7560987048170462 -0.0022679700985702876
Ni 5.189802360721849 5.824994740554 9.219123075732243 -1.8125084295198723 -0.35446076645530566 0.265721197726052
Ni 0.6723572902201824 7.850804756462825 2.190997277396204 -0.0563899487539545 -0.2828159484248097 -0.09282967963822722
Ni 0.7298648843827787 6.2160341519032 5.97753522290819 0.41845629547065993 0.4286059823101522 -0.15875764978960402
Ni 6.374362080543013 4.885588540198414 11.594256938503474 -0.34547450379629535 -0.5630312260019787 0.1554506969035581
Ni 1.7422371915825516 5.240737817226337 11.307789001380245 1.3512805474096405 2.6355859143503126 1.1257292370342546
Ni 1.9985079441884315 0.35933769461353193 5.7661049037376255 1.510747050340811 0.6727080591045317 1.4698911926667138
Ni 4.099692800788509 6.781845732578911 4.002469817668277 0.8343358313530792 -0.8528238628549377 -0.6945277260827846
Ni 1.7808232549403527 2.660659614385816 8.3506614986615 -0.21656247661321412 -0.650418651578712 -1.0048436797000757
Ni 5.363166347183921 9.14195094901664 8.588668490090052 2.8250582196149536 -0.8977970851315182 1.8068355475048108
Ni 6.391251010555322 8.338323222747954 4.894741728817263 1.2224304838127464 -1.9981605897074752 -1.1929450727591195
Ni 3.960329019013864 3.713378213523938 6.910457297034694 -0.6434046821547241 0.9713062100642627 2.2163742287708668
P 6.368747877807159 4.456389226095125 1.8816148698986228 -2.1873444171974197 0.11597295052390995 0.38324015258084315
Ni 8.799660604987668 7.122598192690141 0.043423912646022696 -0.6779844770121227 -1.7546449815441847 0.7234665206043217
P 0.2527308402867884 7.050614108106681 11.719599109979912 1.2015269008908598 -0.12983402477671832 -1.7420949127933159
Ni 7.792828385636145 1.233762740827953 6.497521568579572 1.1776614071271718 0.2310717259729827 -1.1495458798378784
P 6.1731864825082825 1.216475443294782 4.010293570490765 3.7581246694717274 0.8037579585662221 -0.15798991838564405
P 8.829621548300784 7.323412480647811 3.958130586160369 -0.6162669453976677 -1.2599927583372363 0.8556204517634682
P 3.856864635921446 1.5964810007522319 6.4564369070734875 -0.5707321941906622 -1.9099077308066523 2.813157611522626
Ni 5.653289074702023 2.6897867652134093 5.777372219525323 1.7456150101314323 -0.4368342837572154 -2.5590560003133733
Ni 3.3097578000042946 0.011743503940539846 8.254526151516826 -2.3737985044610275 2.0399641560068225 0.28291262190367406
Ni 5.269633359030173 3.3756829925262903 3.5024018480399364 -0.024391027249854768 0.2430561520283685 0.1925496586383845
Ni 6.023076042031345 1.952593771318981 11.95889384758055 0.8601728470208412 0.2853382006260311 1.58953567850494
Ni 6.5886930711271 6.155500817454252 3.603567743180597 -0.4691872461666242 -1.603360500203174 0.3440796803312977
Ni 4.201582242519384 6.646122844657714 12.904833275278254 0.05988484928109041 -0.32396131231486786 -0.22897961933064434
Ni 3.6950533075643386 8.116478835433211 5.77855157267429 2.0002136155817616 -0.2379460844953128 2.2836738824587894
Ni 2.0074295237835242 0.3751704874775132 0.8426306858692498 0.02561101569988492 0.508962212071717 0.6583708165462532
Ni 0.3395731069622636 0.6113987216036171 12.769795950067374 1.4708031629580218 0.6221879388677929 -2.0992180565721332
Ni 7.1864203752764295 7.794607142938595 2.2261573800746017 1.557434684205337 -0.1276994949322188 0.0635602412501486
Ni 5.307070641630144 8.862778696141737 2.8834044975849227 0.0009029714302436063 -1.330113169303406 -2.5643951531380997
Ni 3.462545640795856 2.7663289153843937 4.838212451171014 -2.699195520781158 1.4030607653057254 -2.4656431944781665
Ni 4.052036928060412 4.711659427718377 2.111567425917026 0.20802949944153853 -0.8806527121417479 1.4247408213823205
Ni 0.10064060587478105 1.198521111773193 2.143567455075292 -0.02447973030891913 1.745064794054917 -1.8357380894717739
Ni 9.007237876439023 6.549106456786673 8.14363823599497 -0.20241678124045137 -0.9689929885500538 1.4607406365156972
Ni 8.36796917778876 4.666050978760285 2.27253013881109 1.519064826177887 0.39260385318393026 -1.9468714525151956
Ni 2.2642190806026186 4.891758604591282 4.033168204113033 0.13116945575869024 0.8353213351948002 -1.5804185466950202
Ni 6.663938210765049 1.5205688271258644 9.99687266255859 0.8014689054217294 -2.0821528735597306 -2.7149080464204083
Ni 8.908220386602725 4.731864998950877 12.53483971269974 -0.2349630906075889 1.400559596150427 0.8509212465155861
Ni 7.256208806314681 2.481940827294498 2.7650995346862954 0.26663959577526336 -0.4750545035806786 -1.8760858971612013
Ni 0.8385052659381026 3.755531055847586 10.160859262866817 -0.9446207303532763 -0.8840753646700517 -3.2564425360011913
Ni 3.8927640346036734 2.401090749281646 11.702202492987526 0.4008828053632709 2.2001636804492755 2.046202680717366
Ni 2.5836449818063687 8.984586513915655 11.38665002109708 -1.810164354767728 0.32686691599743706 0.33288638271863963
Ni 5.428730229628857 1.5953229556334503 0.7354077515393146 0.8762450699923555 0.21573998071191874 -0.4096353547449203
Ni 8.9623427832741 4.995676941370263 4.378266575946027 0.6910112282890938 1.6764672474911775 -0.19283119443454533
P 0.545085352357806 1.7311384871641493 5.556667348607462 -1.9192896862421847 1.6603477162214955 -0.24985826255186644
Ni 5.743079261031869 0.3283187612798971 6.459555290969343 -1.2889392661682575 0.43717418359513743 1.1709868233204737
P 3.2755259862931125 1.9325179011397842 0.16629435262093423 0.39744189800252194 0.1985503563065097 0.9475744136649614
Ni 3.8696679827546947 7.12547014458472 10.53765935143548 -1.137282489089493 -0.15393477447966392 -0.48795655635432744
P 7.76801842701137 0.10089352292872293 8.5008719942367 0.3110240354279095 -0.0012338724071011007 0.13706910907257686
P 2.8005792578174766 1.717390175513975 10.253198074894076 -2.7526425848567047 -1.8372794658169649 -3.0887772993093128
P 3.968565035898638 4.979844148506281 11.468521031686647 0.4426442055707732 -0.3242621313847383 -0.28504843729975426
Ni 0.7852889237676632 8.026558948050063 9.727868972262684 -0.03399281200567694 -1.1257343792405774 0.5601305074154159
