# total energy = -381166.5243447226 ev
CRYSTAL
PRIMVEC
9.25673906766542 0.00000000000000 0.00000000000000
0.00000000000000 9.25673906766542 0.00000000000000
0.00000000000000 0.00000000000000 13.54817331105027
PRIMCOORD
 96 1
Ni 3.548672800637659 2.081285244183345 8.323130412976768 -1.6306800139537334 -1.0593420678582723 0.0892890134748204
Ni 0.8615672993607327 7.34658330452935 5.812112159013496 0.11066413671648682 -0.011032346554761647 -0.06837411769902418
Ni 3.8519976311010993 4.6450872764751265 6.296472889572748 -0.35699021774537876 0.49684563131384113 0.15485780051456555
Ni 5.002175248275593 2.2646427344732563 2.51540779969709 0.7218603524594666 0.3535271988974428 -0.6880002093769119
Ni 5.626708929357971 1.0548054330843806 11.475776768323225 0.6586086435886722 -0.30135951575495196 -0.01843223856325858
Ni 8.984359659639077 1.462888781197807 9.213028888366443 0.7614900510359467 -0.9184255600151473 -1.4386142369303032
Ni 6.9588092422446834 6.3648228005583425 0.9931398134829922 -0.661489564680893 -1.0148596691751812 -0.5723080233182143
Ni 4.338050493588108 8.141857540357156 11.612302563597249 0.3060132124768794 0.2369796068169854 -0.16949071993639195
Ni 6.703934184811201 1.1799195202591808 8.240269637604134 0.026991955207811575 -0.2917325341881492 -0.616843386726428
Ni 8.757245563099143 6.751680445661129 7.83558628980288 2.7066956858129454 1.8239526668010717 0.9022846885892266
Ni 9.232153311576205 4.204975610691917 9.244514761118468 -1.1458188086952783 1.0579472443932747 -0.5114849784935707
Ni 6.932492332668037 3.9031966556767 9.423757630829126 -1.6084052617159332 -1.7692408770804886 2.06708518059333
Ni 3.9461571823545816 3.3330463174584795 0.42873050492338427 -0.6138336533658267 -0.1195976917606908 0.24838244933728834
Ni 3.343636027115772 7.747585247146422 2.3416125210120593 1.8643385268172858 -0.5008591233486084 2.271268052595269
Ni 3.5756376819590705 5.3806555443924955 1.541416476945808 0.44240149343234775 -0.22661780396668715 0.5956754943995611
Ni 7.197549803233532 5.209341071815992 7.7563291630050575 -1.1336803735605314 0.6859919206976315 -1.8830885537312796
Ni 2.5514442854452035 0.8678822468504227 0.6606553288312318 0.4044895488779227 0.8611174703222976 0.4001248441513238
Ni 5.745843163002517 6.42231640779737 6.320331209214975 -1.6556737077845938 -0.20353675377750752 -0.16497432012327717
Ni 1.9706394403952132 4.04550976430539 8.137832710148247 0.790818881907051 1.3952019313829391 -1.7927129920604996
Ni 7.984928040514422 3.044476729297246 7.466642286421067 0.7535517700254765 -0.8882760330149606 -1.3683657850267013
Ni 8.506508268092944 0.13157158844833833 6.96836775115388 -0.4703139035718997 -0.4455919753451874 0.8334745117940485
Ni 3.275163927172594 7.869329881248447 9.286121026849793 -1.698534511703862 -1.68185113751091 0.664376656420701
Ni 1.107457765716096 0.4792065781666121 12.261517488437702 -0.7567761905000451 -0.0009135129532048783 1.2574555937376795
Ni 0.22613843622710122 8.177523756536832 9.82513539705816 1.4728284209181668 0.7412390140963944 -0.9103744075758965
P 7.45751606723302 4.390360326869019 5.5165046720302 -0.14706170150891446 -0.40358940566115653 0.5289556244745084
Ni 0.5360077813126619 2.5120383466243155 0.47966941512715816 0.7205426620893075 -2.560299128691855 -1.8495739669136015
P 1.069551418647377 2.786630258577058 12.050978509128845 0.33379398213457356 -0.5088110312058334 0.6677365740318694
Ni 1.2460033814859417 1.9846911705173906 7.357511810841762 -1.0180185265191368 0.7847032559276162 0.7095421972137458
P 0.06791391856875977 0.6772443311711223 1.3617403918400794 0.24566967839181564 -1.922213030536567 0.07839884892487788
P 5.190660972088354 8.925088758471553 6.664590266143025 0.45086067994329443 0.05906800980674988 1.0026898665818667
P 6.228100762413049 2.8506220967421507 13.157878093470522 2.2512874957082842 1.1727896808571672 0.10040337822042708
Ni 3.8878952657610486 0.8778610117197948 4.153598856723466 0.46732268215405975 -0.23121699330159534 -3.5033949377601723
Ni 5.098880402812078 1.3325816633256804 0.3315615877524316 -0.7249868139035901 -2.018748955381788 -0.2750039085795586
Ni 1.8804140033063719 9.1433996960219 7.849730587317166 -1.372735631959623 0.06477200217006264 1.3079494887221732
Ni 7.471465973223878 9.096801270834126 10.063366837390408 -1.3597628738490388 0.20110191908376976 0.3262732482774961
Ni 0.5599392291946544 7.911883111401049 3.472179736168218 0.1802351029370896 -0.003089180448285003 -1.3328051143132724
Ni 5.595856217567973 5.1336394585490845 4.201153503071727 -0.3815414247221816 1.4702210652023067 2.356057635537839
Ni 8.526845324139336 8.124158654985875 11.958403711628272 2.5120541776425385 1.0910324569830177 0.7468072522127912
Ni 5.482757377888948 3.1435701225501496 7.583508618958937 0.1287726733917395 1.0661128109232025 -0.9641071212126621
Ni 2.7115673603157044 4.221434093008933 12.215737358996176 1.5822944235614942 0.3263254416716702 -0.620500266752725
Ni 4.342169742536967 7.141777949487737 4.562319994168524 -2.5458567280142796 -1.554271198875691 -0.910551042363077
Ni 1.0191114466870717 0.4868258002111207 5.623928204899011 0.8877384153439356 0.839884014864818 -1.3694582467599319
Ni 5.28172877244539 5.6624399427121235 12.789381190592596 1.7547971908513327 -0.7238434443277663 -0.0582128608953062
Ni 8.95450667568386 2.7286738143774856 4.7919750656218545 -1.2130287308828722 0.4057051664525787 1.219929057547131
Ni 7.78798165706288 7.10369572437401 5.89071853704479 -0.353703576574307 1.2112847516085719 -1.1161629335020584
Ni 8.242182079925112 9.225071906079851 4.402153412623732 -1.1555882293772164 0.8722961126469364 0.6782248751577029
Ni 0.21615689433596574 4.886660399662517 6.615464751150672 0.6095869622743308 -0.8201574829701681 -0.5578237136591102
Ni 6.445735958000998 8.546441841048853 13.296665310133772 -0.6664877892264328 -1.1137995754762045 -0.3068315946131167
Ni 4.632618448758017 3.2640928670763327 4.532338341538274 -0.6248279475938013 -1.9618802672192017 1.834410371799286
Ni 1.8287891687270688 7.285368488127534 11.545631825104515 -0.38328437555521727 1.2229971549494938 0.6324186154568657
Ni 7.48536959551868 1.9164967727505398 1.566738287057281 -0.5993588567884194 0.06256291033388581 0.1670988226654477
Ni 8.478997239158089 2.6775025600195175 10.974129077287579 -0.09937159452180305 -0.9147581384658892 0.9667085633912511
Ni 9.186758262485851 6.307606895495644 13.228016406471665 0.004861956077991626 0.058182521878003025 1.6918511861464154
Ni 5.616683880792544 5.768623998200591 10.369948188708252 -0.6181307380792838 -0.04035449255764663 0.3649364691756489
Ni 6.086472652485966 4.201920886752312 1.3725929928909628 -2.0217779720160984 0.2852767512604764 -1.2622555862294842
Ni 6.4485037230250635 7.708910590723197 8.200194436538297 -0.11110842334275704 0.7636559483390138 -0.9077811929274238
P 6.605599844173593 1.1613227311844418 3.503734108790404 0.3007131404202047 0.2069918022056435 0.37404845877924614
Ni 3.3167451997080484 6.517420146450365 13.142798865295932 -1.8641721764427508 0.3857336084266582 0.18691688583263938
P 5.257531656148044 2.1303829889580665 9.6082018623024 0.1946214535657487 0.5872003670490146 0.49973452282586184
Ni 6.951607499138587 7.0466649540955295 3.47102819781038 1.1816443030343198 0.08714548476925638 -0.44697779994912057
P 6.953755062635521 7.025513304998576 11.665695435365837 -3.528278074155098 -1.8521504693915265 1.5101762654390056
P 3.4472837360604482 5.7369011529247675 10.658063270974228 -0.515004561611055 1.2895936119228049 0.9739865851099033
P 1.7905310655683349 6.345652093652527 7.472373133666547 0.3857438928393034 -0.648756947605573 0.629938015126857
Ni 0.6673673904330703 5.027973780456428 11.58011132731735 -0.45480989439902964 -0.7257512028734404 -0.7367809783250407
Ni 1.9352138994350208 3.138497429462565 5.484612428426816 0.5547383898655672 0.09367762946081931 -0.30517169041219055
Ni 3.9588296583343316 4.136114727701879 9.331033799827258 0.36481537021675237 -1.3528844015616508 1.0857406124564593
Ni 1.769814483214295 7.9605457894328575 0.9743828828199042 -2.977553947655246 -0.5995316349208578 -2.0809426553017127
Ni 2.8532695241564743 4.139419383600178 3.480309004543249 0.5325240585520571 -1.7439576770336676 -0.9529518759267912
Ni 1.4409780794855582 6.154259753727536 9.650919862412955 0.12309439206003961 -1.006531866035776 -1.672571769091513
Ni 1.4750336230425345 4.49274911928101 0.7720444487780004 0.698319589025049 2.4121449654497105 -0.3255615669224522
Ni 8.356484295701556 7.960082952472312 1.484080234273367 0.9997384972630265 1.898287630069221 -0.2304911708791643
Ni 7.608012133324165 4.5874733316263585 11.651347489588911 -1.5290671888062377 1.7108644940241244 0.8600350358913963
Ni 8.81734957079565 5.721248006919102 4.353854524442912 0.2363954521787413 -0.9532089862429195 -1.2848548116862388
Ni 3.1775886391502817 1.6557621993965446 11.916066163499286 0.6399882002740075 0.5868509541293958 0.33931748305596404
Ni 5.815231680127576 8.62746607936204 4.619629392297254 1.8063362392708893 2.3113975736263033 0.7617363627187979
Ni 8.022593712363657 0.9752900432625743 12.851146782977462 -0.34409330717805253 1.1837073562109355 0.14028890156145518
Ni 3.12014131560731 7.893739902547645 6.510182302061346 1.3708376436059617 -1.207036260744863 -0.12704874872209732
Ni 3.4375919301066142 1.0057169450488697 6.139517470860224 -0.4775147921957131 0.6984517437275392 3.2833563296729
Ni 4.936193211180152 9.186202858133196 9.251803517573146 0.6927822041465875 1.339866649145744 0.36260756393215615
Ni 6.288565782938781 1.806785899622711 5.62227495127594 0.4030376469227446 -0.59322163354243 0.11975967125985182
Ni 5.483025823326064 9.047564674971241 2.082381242105918 0.7147677072787433 -0.7164530654009661 0.6662666743545622
Ni 5.1778311315420185 3.466260051442835 11.494351341223858 -0.5142190895952822 0.7310607880118118 -0.9618612626012788
Ni 4.380927709613092 6.070782479523456 8.365915987283563 0.38121540884133054 0.8957985666442507 -1.7704744923772737
Ni 1.934510387254991 5.971448411051069 3.8965364318144426 -0.5499039445914014 1.7759396292569027 0.22147379787190247
Ni 1.6211234812692805 2.9060699646155648 10.107303024381123 1.3681235871089084 -1.0046493043010827 -0.8642385324497827
Ni 7.6645337829460445 6.576126386526023 9.7766328606147 1.4142633188897644 -1.0235160592985986 0.5293765140620108
Ni 0.2852260539582484 3.380912915918149 2.4036622952907014 -0.6701300139647104 2.1829581152042663 3.06570576220183
Ni 0.8445645207781141 1.4288887780760962 3.3156853030683977 1.4449836307917567 -1.806004566963083 -0.3463427653338616
P 9.293210763411437 6.027183237840021 2.110967904137082 0.16396567635310472 -0.4758127219029419 -0.31886924250394116
Ni 8.237785128799924 4.124793735646924 0.5293716249723531 -0.7715518061473229 1.1866312147259497 -0.5755735814433636
P 4.192210567320057 8.36376934946055 0.3561530411401628 -0.3612893593413649 0.8474867669127404 -0.5295102114263976
Ni 2.094318732992321 0.4264431646643658 10.28745305453445 0.34717760253033114 -0.03330555613066522 -1.5994984461446067
P 2.8537045908993877 2.2119533748846973 2.4813753979881414 -0.5090018070604008 0.00773747785357377 -0.327756517691242
P 5.326901659794681 6.142401870798348 2.4441447928818194 -0.4793765279948002 1.0262637972470647 -1.1521812605781965
P 2.385998585528423 8.544229480377444 4.379352212599392 0.7834884096839086 -0.9913060502249572 0.15258288843745982
Ni 7.05191352522812 3.801752050664223 3.2831969254598303 2.420908056354321 -2.1122178112659107 1.2194711440741062
