# total energy = -340895.0646584257 ev
CRYSTAL
PRIMVEC
9.04930486402981 0.00000000000000 0.00000000000000
0.00000000000000 9.04930486402981 0.00000000000000
0.00000000000000 0.00000000000000 13.24457238626785
PRIMCOORD
 96 1
Ni 6.2805976855011485 1.7803964472412879 11.116341720623117 0.386460973510986 0.3927882012805945 1.5405847025275339
Ni 4.538579340426891 0.2395414357540253 6.176275488518841 -0.6627157237785102 -0.06918092987103569 -1.2541406704318334
Ni 2.585006344925649 1.542010607725586 4.660447234719186 0.406337657830255 -0.06334683968776188 0.8823352420504933
Ni 3.4534952860424712 4.306808542807935 4.756549948042376 -0.11212375198114884 0.010226305713698517 0.2103488916033345
Ni 5.210698364773006 4.429055602976391 2.6298818480254615 1.0786109433902134 0.5123709806429498 0.00900297482955869
Ni 7.3459542551592945 5.975183644440717 2.560255591038111 0.19762450205813062 0.8139703803228497 -0.20758289882242315
Ni 5.24913076276956 4.726551502231551 11.550763557557966 -0.11225796356616796 0.12133807149056522 -0.18701124531865856
Ni 5.559892943037893 7.674887439707609 12.156292366717494 0.2207754862532972 1.0543091334200552 1.1885446296985789
Ni 2.006665267468696 6.390293359745135 0.5015893977753513 0.052858024341296064 0.9714489062897141 -0.3184408967172709
Ni 2.947946817364485 1.653298959635547 0.39003499630073335 -1.0073947282567037 0.5990786065438393 0.7763286587106759
Ni 0.6022321473770608 -0.14446853333076617 4.719941889917757 -1.0723608487154437 0.617873113542523 -0.5459796698363307
Ni 8.728117940772542 2.37159658699 1.2235664725104018 -0.5368643377986237 -0.15789992977499903 0.14286540403937978
Ni 6.801502824628899 0.6598463570131925 4.8647443426000825 0.3453084105320763 0.34135045432559274 -0.5044604675466215
Ni 1.015015286386467 7.4495597471919135 2.707336658699371 -0.7575873735474307 -0.1784168187814282 -0.17023685407379713
Ni 7.703112221754053 3.91987836302536 3.7112222049643497 -0.08475101639515081 -1.1111027453703315 0.34164356008597935
Ni 7.5182711194518195 3.9390809880662556 12.495168022581753 1.2501400339128728 -0.9480212713943931 0.4321152810149913
Ni 7.911400073104807 8.840646047456584 6.93749396911032 -0.15691339749201363 -0.07735960902708612 -0.26301716853132767
Ni 6.919885831596383 0.7630744930306341 0.25826897228660495 -0.4498394377676317 -0.40792814224582646 -0.09824827955063725
Ni 1.8598764923563622 6.370647318763144 9.260817039002932 -0.08429515980465482 0.8405740989533073 -0.5255453132413788
Ni 0.2571142809787735 4.7535908253334345 1.5068612975541213 -0.7416632461180066 0.4278873589765728 -0.11466245924260252
Ni 6.231722389626558 1.8944629357617837 6.888673873995745 1.2130953224547496 0.6668510861031225 1.2160284369411445
Ni 3.613568440777818 4.494654014343711 0.7120047407128699 0.2855505737471534 0.4323304823495909 -0.7869267459414964
Ni 6.1184522399390495 5.713667781548705 4.70678963014658 -0.4822469075640598 -0.37365482288525326 0.6049597479149645
Ni 5.181441961965647 2.949249917273009 9.358097971826744 0.4083639442316645 -0.5734084554712447 -0.6757591872260298
P 0.3203662075802578 5.54252732689582 12.58328381938228 0.09029122948708966 -0.39695570239472283 -0.9097987375780848
P 3.8938797099893123 6.334115274799856 12.463050229558592 0.4708790320467503 -0.3061643933427631 1.3747570332650259
P 2.507689083686528 8.466502535526406 1.500172956287521 -0.11803703214179027 0.5087359549935239 -0.8252215277566369
P 6.2434050422786775 7.78822998383448 5.8947353236991695 0.08444531222927391 -0.8241540057240709 0.1869654796823877
P 4.800529569955078 1.13251146147176 12.562979893932582 -0.2916538584314138 -0.9661272369664844 -0.8956149898785349
P 3.825168337729405 6.203524755494876 8.042024979768485 -0.1387171861989611 -0.011060885799851919 1.8340087654854929
P 4.754821530802596 1.0097395416179267 3.8550048009821563 -0.3506455064742735 0.01897319866839313 0.11966351200161972
P 0.25028477055541626 5.556535650912459 3.669461472618107 -0.5284704573079737 -0.22166997304310856 0.6215256226934457
Ni 1.1960918778418514 0.9386391528590584 2.35467348185853 1.0173973479953704 0.6456328001542945 0.9110835178277793
Ni 1.698246857174722 6.545516087043196 5.010064415523851 0.13238918709840425 0.00951848101339651 0.10495937302222569
Ni 5.749457782508528 5.343922231809797 9.090677437474232 0.45675416260959395 0.7069785502516276 0.5737925782835408
Ni 8.485623716823019 2.207025927709259 10.068285612111616 -0.05521161217513717 1.7088929721200503 0.9713710018639271
Ni 2.36047499124294 4.951254792707746 6.989823384672992 -0.9313965183535184 0.8448215613757515 0.34491554596903173
Ni 0.39823457148902536 0.255575899142321 9.416348347598774 1.343723560997989 -0.30749468211841235 -0.2729724799718266
Ni 1.6277437225405942 1.4011038808114533 11.438502405369071 -0.1873470313915225 -0.3461021100779652 -0.3843462411608284
Ni 4.31192140008791 7.161710406981801 1.5192715143218332 -0.6381781436484623 -1.1323590836459467 -0.02522123646063398
Ni 5.467617180765502 7.827404424834498 8.022860361808254 0.05051806335420977 -0.4048016808017028 0.4905757391447293
Ni 5.433311265812609 2.8094924520837554 4.861393384988093 -0.3387659814278682 0.7577316124347788 -0.756748165475587
Ni 0.8128782475900471 7.575734205695782 7.20365665007891 0.5867069723523637 -1.0089042229226945 -0.4843549550459981
Ni 4.876181759088862 4.687250370962649 6.811048031458841 0.4988143250044378 -0.6667433568806647 0.26665193707043755
Ni 8.359575948588034 7.4048109343609845 9.028612779678292 -1.4841312475254955 -1.4324276485036171 0.6823512386212506
Ni 4.5752018774393814 0.10055497134398236 10.332422153708551 -0.5091023371940071 0.9715697481382943 -0.1933605845754541
Ni 8.087680532952428 7.112047821579146 4.876293970469873 0.5420283984980666 0.019266047318463594 -0.13773322501913698
Ni 7.134191470719142 5.987870769938991 7.162585474767596 0.20034730030593237 0.8411711091073578 -0.6879747554556152
Ni 2.293157211940761 5.313688504071044 2.802617695135797 0.9468591327654918 0.30572190648870573 -0.23861611397914387
Ni 2.4126442341085217 5.195124511005155 11.451601274241218 -0.9403120756755934 1.1473786969832305 0.7453262967918906
Ni 1.1165122903726534 3.3037111910015153 3.766981307091818 -0.42867154544076497 -0.003494900527135917 -0.21495862246120398
Ni 3.746810406424449 2.7022038929485714 2.7898636047811136 -0.7609596324537734 -0.6108732851859221 -0.2975784514459649
Ni 0.8533919857182709 3.3128962354956286 8.301976217839774 1.4156429728461102 0.4459334178450062 -0.31560934080574676
Ni 3.650842527744571 2.6344969935348193 6.884992616754163 0.20787163370743555 -0.34318005133516377 0.14037991861336468
Ni 4.004860385531982 6.748645834589374 6.022201118015167 0.1503794530282378 1.455477331234229 -1.5070672874963789
Ni 0.5749294895019963 7.422547572004791 11.322957260424598 1.3137984913037823 -0.5219156869085915 0.11360573584331403
P 0.05225792605380082 5.545332611421116 8.12435284114198 0.9590196793874257 0.12837440951205634 -0.565614927568755
P 8.486691534803615 1.619572200197555 7.957246566622568 -1.383624768068301 0.12387395053854149 -0.49328259655293116
P 1.7772744370437812 3.413497358294705 10.532693225830403 -0.18087710739646268 -1.5152246264961904 -1.5711157812368552
P 4.220242891940259 6.088254709419979 3.6684153729693194 -0.5394207856718903 0.8153063255254539 0.06186485582559668
P 6.957711926163274 3.8201188255838727 10.413783549316557 -0.6303162244018822 0.8754997071858986 -1.2166444732585886
P 6.432390726234413 7.466382405038767 10.155501003072573 -0.49734673931997575 0.7648702803620891 -1.06041678897969
P 2.292777141134108 8.626648084701115 5.881927842445457 1.6522268868865737 -1.2340703820445196 0.14335519919160472
P 6.997836544179925 3.7566017543482233 1.362879616828068 0.26390265646007455 1.534494530469396 1.6963732423864848
Ni 5.284477347788286 2.7948868739423767 0.5836620687500944 -0.7159738117717024 0.5202118168436073 -0.9202736689674795
Ni 1.3635673640020116 1.0538187058847523 7.117301848015877 0.1305297652921623 1.0706232971990466 -0.20072988045633172
Ni 6.8264698569040325 0.5289002000248441 9.13833107718458 -0.17177874463962028 -0.15990873267491168 -0.29225266835767727
Ni 2.744527492060857 1.8988699472579742 9.117841640984016 0.25905921232484413 -0.5796793760816211 0.702480662381274
Ni 6.39132498050605 1.8595054708546297 2.4827347204382835 1.677904494158336 0.607724198033979 1.464255077426859
Ni 4.139143021244449 6.792589259282394 10.255431572377052 -0.2610775283064536 -0.03326570403166529 -0.20057458582539006
Ni 8.345196603069663 7.107170246227099 0.3480525559839434 -0.3060399519497568 0.8146517226605905 0.9594565098145282
Ni 7.6200577011954564 3.818833824285189 8.179000688625235 -0.8590970974581592 -0.5266017795303511 0.25968887548904307
Ni 3.085396709799059 8.592414564187587 12.48767157838577 0.32278528972889575 -0.7809191062948357 -0.35939805585592294
Ni 0.11068476327177634 4.834011998160221 10.28343012180049 -0.6047075226948424 -0.14317984995600505 0.3718915603372434
Ni 8.662021817634605 2.157671018673893 5.62462533592434 -0.09961430666022844 0.11850343025524752 0.4494056926643228
Ni 3.6525528463745096 3.0514256191282185 11.571120873906693 0.4534559514742965 -1.2277218141186728 0.3120889863573141
Ni 1.1569264861467536 3.372838831287756 12.779051957375785 -0.001072150018256218 0.6606524134915783 -0.19703134855882193
Ni 3.0248206626625103 8.569194047762073 8.169676284835349 0.16968406689412066 -0.6051127285530611 0.1621075400984434
Ni 5.67162471088895 8.008942530840818 3.6921363159569256 -0.3737831209330014 -1.0420763387992893 -0.8504453353204321
Ni 3.1713379586272343 8.411772339368376 3.7206524856218035 0.20529487411919484 -0.7765379465080046 -0.08837061542560909
Ni 3.3796891551124304 4.3594393002244525 9.305504316560402 -0.10520877002887043 0.33804298721891457 -0.36549594122354473
Ni 7.407806254289607 6.149056989179536 11.559955841496016 0.2063279433693995 -0.286197720412849 -0.7889260357597122
Ni 0.6272190881230182 0.08131343429192919 0.12342075501661932 0.17882433863249203 -0.013332455442848007 -0.04839278948109085
Ni 4.725872804362528 0.5339533318923447 1.6277582014284666 -0.6809255619183177 -1.2530986023205644 -0.2332831318020047
Ni 6.091910628607784 5.719694618625631 0.4259987439150256 -0.3912612231131068 -0.5746379570029716 0.06535512836704228
Ni 7.829196187208719 8.86304307713435 11.458528517157715 -0.23049477042359015 -0.18560999409575776 -0.44287714751718565
Ni 0.022413318426621507 4.54907653413445 5.959726526706337 -0.33093003032321716 1.1323806809125014 -0.003759981263064493
Ni 8.048343204463844 8.812502709154424 2.294834048142494 -0.2887922206129026 -0.24083883266207556 0.33184457171768655
P 8.439870431145936 1.5124103313312551 3.5472144124496516 -0.01408656000005316 0.6443986706368773 -0.09127441933596539
P 1.995254093964186 3.393407901371619 1.668233027545533 -0.32257985858630894 -1.262385426939129 -0.32193939678883265
P 4.688870196543385 1.1196885963996819 8.224508738138978 0.06473189296074658 -0.4474256861198165 0.6196147788239781
P 8.578931099856327 1.7573026210846592 12.229415275126053 -0.09536350180367448 -0.8002010944528992 1.142669464433019
P 6.414681236505368 7.687257839533671 1.3879914379819256 0.18428407619548262 0.675755587681604 -0.2550416065250188
P 1.7512214881782113 3.1603430531490586 6.014082081640665 -0.3431419990083768 -0.8909787766581042 -0.7851701682617058
P 6.815981712501394 4.046197610407955 6.089761418689211 0.574700691920107 -0.5794616036438601 -0.7459577597283024
P 2.238626100490978 8.598921014425288 10.283006614330219 0.7334251744789304 -0.3923485426400146 0.32831547551850554
