# total energy = -340869.572913474 ev
CRYSTAL
PRIMVEC
9.23861477714129 0.00000000000000 0.00000000000000
0.00000000000000 9.23861477714129 0.00000000000000
0.00000000000000 0.00000000000000 13.52164657983663
PRIMCOORD
 96 1
Ni 2.1561818523054073 3.9388926976205405 2.877501491745774 -0.3073504432310642 1.7403789585434737 -1.7794867231782128
Ni 5.551169575416649 6.000933064181214 10.702518690310878 0.09820045703183734 1.4731312968705663 0.10642875847890058
Ni 1.9175484296570764 7.428603939214684 0.5579707656816598 -1.0194413750085927 -0.2280159698657944 0.8241475779661677
Ni 8.0608855037764 5.773635422004795 11.286585771476656 -0.3507478363800927 -0.5320959698757031 0.001571972472810196
Ni 0.6649825658317908 2.456519983814296 9.721793526500056 0.742895832973527 1.964478109853365 -0.6457207318824105
Ni 3.1110758488795014 0.6763035645198769 10.165492788449816 2.455971218606041 1.9030873654507092 -0.8389540468513809
Ni 0.7711019157833996 6.240471871088915 3.805829851199261 0.6672092407734896 -0.06515432521014586 -0.20748339713008138
Ni 4.129864106043446 8.083307622118152 5.852412167323419 0.037267368991890655 -0.9085234704100871 1.1821276704286416
Ni 7.780484303203441 2.3102265170068503 3.587279329602148 0.7849390260875062 -0.48803780321422396 -0.3828683710637213
Ni 3.0499808886017847 9.230032218300066 3.9755672271554645 -0.36277031476226557 0.17946094377522642 -0.02012119622990728
Ni 7.258031392472286 2.83360328922716 5.940424755949109 -0.37783517951518797 0.031553092215932756 0.857095236536782
Ni 0.9216202011807438 9.64252713459218 10.244067208102315 -1.414456408737177 -1.8812604993836053 2.249966205793699
Ni 2.191150009669865 4.92188132207979 8.59416976660639 -0.8149371151114932 -2.563711496807514 -0.5867866765503637
Ni 1.9262604434997932 2.3737235171563658 4.486292640143307 -0.3782822943549356 -0.28289745239502245 0.4448350425745049
Ni 3.4760842846291298 6.295219902936147 9.508354730522427 -0.0547909796979508 2.143890716889159 2.069625944737313
Ni 8.47943171282247 7.155704493933651 1.9572855600285437 1.443364864241411 0.01008360948824715 0.385535119262607
Ni 4.376017761213486 4.108338133346171 11.655389430223726 -1.2826418631953203 1.0194408607879604 -0.9553180621661226
Ni 8.782643053562625 0.1178246750191827 3.6957905569491745 -0.02178932796094957 0.877741966252856 -3.4034397028207577
Ni 8.912473308633357 0.1754958046180964 0.9394599665362966 -0.1897921504979054 0.2523668879063331 0.666072298955569
Ni 5.294927352785054 0.9363428578718929 7.023210746189691 1.3885551154903828 -0.7528184914038777 0.09968912576222186
Ni 1.447053489075909 3.3671055833685912 0.4183309493190972 -0.6802904994374801 -0.27056001387559214 -0.5892765328517529
Ni 7.654478834697806 7.66847533625848 6.724639037848064 -0.14524136047072406 -1.6162414699309005 0.663505052449025
Ni 2.9323733210325535 5.174271042301616 13.340050855695006 -0.1720515386850327 -0.4044450687932325 0.0926648719255888
Ni 8.267701136738287 5.465176548006248 5.3583042509409795 0.6864917431521854 -0.8740524332164108 0.01300746800326147
P 5.242396588511789 1.7144097654220203 13.312399681324644 -0.4722982809917801 0.0954033539026744 0.44605271703168986
P 0.6050359653850922 4.155565932671695 4.501044860402109 -0.3753910888500696 -1.2940771016154553 0.21161747390311295
P 3.9835706392360004 5.978104446784233 1.4289541186419041 1.1280038920010445 -0.38907321432285247 0.6601356217561599
P 2.3238349967420806 8.324721867848837 9.072700454420215 -0.8504008552357419 -0.9807046205600269 1.228006435238627
P 2.9442911342426323 3.3150367498399036 10.215739767121894 -0.38007075371392607 -0.38140284226178833 -0.6535106602404746
P 5.629217394020331 6.1117502498051675 7.536857409206237 -0.881425071531398 2.9503755874682414 0.5464720360917169
P 2.3854380808388314 -0.07163806759193528 6.365328979763533 -1.0587717971770991 1.1906616760415818 -0.528276853239929
P 8.369205798551574 7.838068589822376 11.062830214249653 0.38448585206248626 0.8337758450845512 0.3068845593382392
Ni 6.233265751473518 2.7324774106244254 8.511917454365571 2.179834224863304 -0.23471575048347318 0.36812875086070146
Ni 5.714499048084084 8.6104629878291 13.423466309550669 -0.5638526934620096 1.0177791568148213 -1.016260663287766
Ni 2.5706815480289853 6.869307432296088 11.803261776316136 -0.24553598102742877 0.04188044228386981 -0.7511251628618547
Ni 6.354088357025004 8.857974719388196 10.95818627109622 -0.5135932830858252 -1.3616891443374741 -0.536486899854547
Ni 0.16480857491156956 5.474692321344528 13.248861107408118 0.45339295944684493 -0.33936119180970586 0.845728389460737
Ni 0.7968443923171706 6.6792506467474455 9.872316431204846 -0.29177984248631683 0.37662521836748686 -0.27528261616224203
Ni 7.668817165009467 7.208484700808987 13.312020898114092 0.2749650849218232 0.6243666916866667 -0.8886768679978051
Ni 2.320019448791877 1.0463285681556087 0.8143506436751391 -0.03704342590654266 -0.07788154296882716 0.1383726583753488
Ni 0.21040483484724792 8.858954012566699 8.318449772198974 0.29698966882203043 -0.6602821746363532 -2.141963932180092
Ni 3.7112347494633524 5.7203840457699915 6.474881399008836 -0.7848906893480742 0.4283509288765526 0.2577322659833045
Ni 4.75207558037339 7.327829127977828 3.6866637292978277 -0.917879200593374 -0.14696605647131464 -0.19589543518216587
Ni 3.2936585949808936 9.29118261026713 12.349212180162422 -0.4661181203229972 -1.2420567426841063 1.3876930246004038
Ni 7.77566174623006 1.4229684200536792 10.30530629077234 0.1384078824886584 0.048795167125832095 -1.8922162270641603
Ni 3.6708804796171304 1.9947555343056285 5.8952488529909965 -1.2363584067477482 -1.9055126870627506 -0.1968364589391965
Ni 4.899265192825314 4.665999405428964 8.836693569985547 0.2046104464576605 -0.9808946250836462 0.2688281187861499
Ni 7.273007187211463 7.1554180968720145 9.010271438152161 0.4444023259124605 -2.6674855912723867 0.9765196359444022
Ni 5.242433542971355 2.459143750443492 4.191020965040936 -0.6855072677517291 -1.6871913187769005 -0.8450838138982026
Ni 1.4397919377711632 4.3510273079318855 11.416786495004539 -0.10166578987261846 0.3026694928156271 -0.4442292906697059
Ni 7.595822868751454 0.31506448364599426 5.6460446071837715 -1.7715381577550975 1.5427729684281042 -0.17647383612244447
Ni 7.179577074813377 4.79235594130048 7.4561063718852925 0.5172766454746833 -0.3410159538043095 0.3345635133107464
Ni 8.663714364063905 4.372784246001449 9.366349828747632 0.1793079631371299 1.1180606647454034 0.8078367566212861
Ni 3.880024243531684 2.5675773734254297 8.325805557375613 -1.0953071730989719 -0.24106174730615904 0.43280485088284815
Ni 7.976897255797462 2.911327756309638 0.5925601398355643 1.238505277887422 -0.6227751788298307 0.574296771613469
Ni 3.0516068848226947 2.2614558689944406 12.357554649409476 -0.664278697390256 1.5009588606057955 -0.5339525634684675
P 3.2689268229162565 1.963002414923425 2.8720386987604103 -0.06315040740623963 0.5620392944023546 -0.771734097361458
P 4.5384972813108995 7.77818388809545 11.768984667345567 1.2109674774784693 -1.8993613227493742 -0.43583412462747523
P 1.4997135939576547 8.972755270800617 2.3304831040180285 -0.735233945552895 -0.26137757604537565 -0.009128958884461696
P 7.131397698154026 0.9449532469508028 1.970888496594839 0.9640351303241461 -0.13259796067510066 -0.033212482196226675
P 0.4413341765375285 1.7576464831144007 12.269839544183293 0.8328183662672882 -0.22207235068784978 0.6197070814274682
P 7.929078185118879 7.509718977962354 4.548208913284881 -0.8484709852028807 -0.22530654135443132 -1.0869035224163086
P 8.45823833026129 1.6403715056812642 7.770119501156629 0.7188624461734071 0.6163731319582287 -0.05690545493779232
P 2.8185166311092846 3.758776661695188 6.6574096372823695 -1.0822495685840652 -0.007913598420121855 0.7791697277038968
Ni 0.09873122962284876 1.878515281740344 5.685244050168551 -0.05966733395364562 -0.28224336375079134 0.03745685929487743
Ni 4.014787918954495 3.170535574321416 1.087853370508588 -0.8979955742955696 0.07091693872553592 -0.6927418378269553
Ni 6.2377187638512375 3.847162490362497 12.830108877249966 0.7417519491770709 -1.8974839032210031 0.2893753468098823
Ni 8.262952488684038 3.2418114882096027 11.55728919799797 0.5797613942724661 1.2634058977838436 1.1287420557186496
Ni 4.935720767187308 0.9094187624934945 1.8428385226137058 0.39097685910346863 1.1016999639991931 0.4715192367339105
Ni 0.31491019877730564 4.292537637053582 7.343173543451177 0.9234510382541967 -2.5144463320237986 -2.8358833352549158
Ni 6.065714231800651 3.5845086689961763 2.028219645165744 0.6542030583218088 -0.08759748470501043 0.47785314937173834
Ni 0.8074484744896738 8.707182047128573 12.46273997539555 -0.5666657374307724 0.282764526361584 -0.6345261487181717
Ni 8.483127158779084 4.615685908729668 2.520232243690784 1.0931579879664528 -1.0630187453789113 0.5141671533114242
Ni 4.345206980550219 8.098218746553089 8.419874981924194 1.7854305994664732 0.7087487547781729 -0.6226443096789213
Ni 0.6567980768993805 2.128770881922225 2.2610761619223987 -0.5314267117228202 -0.5888145056136699 0.6987307084205386
Ni 5.620893402003058 5.972570516464203 13.105842729579722 -1.7008934988543416 1.620595633134538 0.8485668873507967
Ni 7.574611008960492 1.0067226261156013 12.477775821131523 -0.2726374652299111 -0.21340053394546474 1.9303305174373788
Ni 3.876153263892131 8.081025684239943 1.545442889947771 -0.4622609513604361 0.470104615774571 0.05003855261462995
Ni 4.112495510047362 4.701706651984745 4.087012638592043 0.8571834253752141 0.5474444273073152 -0.3697467460800987
Ni 6.01428286269948 6.15542118239745 5.464733094491454 -0.8847106842612052 -0.1722564556069872 0.1315011280664961
Ni 6.203683706590825 7.988214559039591 2.0263137189136207 1.2658289054030392 1.0433366935689514 -0.2604607206580611
Ni 0.5871269104178529 8.245934960053832 5.241098563119529 2.0371698810911365 -0.5107234177371979 2.1184195692012486
Ni 6.7768196586169385 6.148270494471403 3.2515369781059213 0.09638037310396304 -1.351341482554563 0.22106627802083864
Ni 7.237262986196117 0.018193604305898496 8.557931299694348 -2.0617236591711006 2.0200442771544433 -1.0955511707889778
Ni 5.074965170832513 3.7621857105901637 6.210681957371163 1.0126613759722818 0.9052116324280346 1.0673294569391232
Ni 1.7571014048358002 7.246843429838638 7.348514386719973 0.8607788560359562 -0.7245175875766554 -0.8148514973762224
Ni 5.231846090305657 1.8442030660331854 11.210608326470167 0.6194612839652494 0.30811071843585647 -0.4456760504185614
Ni 1.6297101440964337 1.6811599904273882 7.546472035723856 0.32733871342753307 0.12692122200529754 -0.15871059860175246
P 5.268504914195266 0.3162830569501876 4.847821813524784 0.9585897909388588 0.07671349080265498 -0.12588043944560903
P 2.882050585718366 6.4417997668052305 4.491498599634687 0.12459565919591443 0.7571011779396315 0.6853548013342649
P 5.345989177290564 0.9103213751683974 9.27574118933742 -0.8150397021276286 -1.1454755664232468 -0.5818002790793658
P 7.153145397608697 5.158916464351886 0.9450456330997182 0.48933672453130567 1.1723196831992841 -1.080387832784978
P 6.649271341424416 3.998352423062455 4.15241648885517 -0.39354436272032867 2.686137402045619 0.7438633390931189
P 6.75779735055527 4.241669823460794 10.292177295149981 -1.290187793863378 -0.6639886769536629 -0.1372251750344669
P -0.14742612099314775 6.264732473794084 7.543267160217983 -0.6209152428029564 0.7573549458216505 1.105781076047102
P 1.1757615627860043 5.675197980335497 1.684445241882818 -0.03692052717543318 -0.37953622136669474 -0.6313865746479255
