# total energy = -381164.5007851277 ev
CRYSTAL
PRIMVEC
9.24378165661565 0.00000000000000 0.00000000000000

0.00000000000000 9.24378165661565 0.00000000000000

0.00000000000000 0.00000000000000 13.52920883022501

PRIMCOORD
 96 1
Ni 5.338478096094907 9.126302555182647 1.1397721588749954 -0.4553403129812029 1.16470510407682 -0.054183428020938944
Ni 7.347863647607013 8.716433271155143 2.3395521759169133 -1.2399728635718839 1.6811384277146013 -0.6687734999368159
Ni 7.410259174607141 7.575593455484811 10.037902129032688 -1.4695520641597402 0.46523211817361815 0.8581259917941415
Ni 6.514740083537755 9.173649205448521 11.895097132976971 0.6619251095564148 -1.858386422998909 0.5250426625733474
Ni 3.3602256016104213 4.818792684547179 7.588316596723772 -0.4707041970317829 0.8443135113910814 -0.836676563671114
Ni 7.625509877084913 2.240711190501467 12.111537510169548 -0.5663530912863601 0.5102842733172502 -0.3263686362047799
Ni 0.094949353286994 4.280092813882523 12.330196394988794 -0.18679398710152992 0.044197006232188404 -0.32741147564699746
Ni 1.8301948417495173 8.474514258248426 6.478015462912746 -0.47799250316308 1.6121408174989655 0.9609413218901709
Ni 3.4131739836336408 8.11776898809792 11.154765423527769 0.39329445149305164 -0.1308202999493876 -3.3288466007952153
Ni 8.095325085941429 6.844669142750874 2.8961165792453394 2.244626024527708 -1.1500683280002515 -2.0419958417248707
Ni 6.402982761844194 7.363485638811489 0.320432922192788 0.6432558152816856 -1.3242376843592354 0.0342424661226378
Ni 2.6888127559619384 8.03318838483108 4.199560987034358 1.2717095325535324 -3.389503038135008 0.19151581805723147
Ni 0.4701257999242494 1.208448835593136 12.58591175219887 -0.0013907096999395405 0.006067546350318582 0.6057598752187567
Ni 7.698286171021507 5.937715493622354 7.1393636789615655 -0.3817525122917232 1.1008347877854203 0.09796828641637322
Ni 4.2471294880629 0.48679696036050574 6.6801150370552485 -0.3943398620384305 -2.279022242619391 0.46931940086911433
Ni 5.272255643438772 8.261213993725768 3.360384594656999 -0.892317807184502 0.34473916829216755 -1.4770910528492627
Ni 8.354169463283291 4.45736081703533 2.831934229227564 2.6391728603706226 -0.6165924470578865 0.005881398481441484
Ni 3.1915358279474098 4.554540694865306 11.696028594879408 -1.6006497861402302 -2.1170725682550504 0.2317795506732847
Ni 6.4927029077794876 8.434673558786123 7.205588904752234 -0.6067795747325228 -1.0045408037476766 0.1165211097178961
Ni 3.4847208545937867 3.3560104371197457 9.234253287540112 0.43306530363308643 -0.8153495200585634 3.150843215402122
Ni 0.9117031042059517 5.0046574047533365 0.9801209550343136 -1.8341062102953058 2.818482623279965 -1.1380293945578466
Ni 3.685699158006642 6.403269319079305 2.7082089832662892 1.1151368062303892 0.23789466243208707 0.1091970652526571
Ni 2.3619064133901593 6.09828922688446 9.822827982786869 1.35812970912099 0.001989519626203025 -0.8663458086007725
Ni 8.103505832814779 -0.10163538064687433 0.0849845565305292 -0.8703770412473526 2.384808996638919 0.38132082407094325
P 8.024157210034174 0.5476071787857411 6.9279833479141555 -1.581712068695463 0.8148149877113322 0.6985198779613132
Ni 8.786122141977952 2.930408236506432 8.73976087884959 0.0816320111501949 0.5095988172144513 -1.562761238624573
P 2.113525997020763 6.860799541953129 0.9278233352482512 -0.14367915818992674 1.9988535020094416 2.041017794082317
Ni 5.250967214004506 1.651549515111819 3.058305201184026 -0.26457268594390565 -2.968250410866133 -0.09380258507445781
P 1.3135229030613504 4.351778341569336 8.869925343197279 0.6294356215691418 -0.24182562205537708 -0.05856767313156365
P 7.5972239048448555 2.762143676805199 4.23829520581786 0.8432575593227413 -0.7129453093580238 0.46188377052667545
P 2.5442400089571984 8.233334747883934 8.730371969697883 -0.7185454291536205 0.4061381402249392 1.48593539061377
Ni 3.047277369523115 1.9822920271213835 2.7760583415153164 -0.5936656630583841 -3.162511652878986 -0.1893712609104029
Ni 6.5353906920293525 3.277438292008474 2.3899483497912835 -0.11191266441160727 1.9445227497773607 -0.5084155955396276
Ni 1.1363750690716552 1.1744039873055105 1.4719779615399853 1.091362843739243 0.42695636252187114 -1.5428894394013106
Ni 0.5386518029994116 0.3502505890734267 8.339526388569084 0.7592349364531827 -0.05881835568978903 0.011220551306167772
Ni 5.123818995650914 5.229161132790684 12.805815774423587 1.3283982434948283 1.1542144889581412 -0.355249323794872
Ni 5.4217460823492996 6.166970525493489 8.007425040638184 0.4872857555395479 0.6485525449042507 -0.08054032074791291
Ni 8.589811948362884 0.5970142680098866 10.372046352736481 -1.6488368873684183 -2.281393571065045 0.31941148816065634
Ni 7.5325451637456124 6.032519719535437 12.028643897077155 -0.30511281214979713 0.7265675281271486 -0.9664380833386839
Ni 2.941537749766899 8.841584832644731 1.6605076640326815 0.3388839950629712 -0.9724179550712028 0.513513064667193
Ni 0.4772518312967529 8.429312165355 2.2910361872561475 0.3884376376213826 -0.8959584892608827 -0.5920756928634449
Ni 3.50421599036316 5.247630208782722 5.199180775350756 0.2331813161168178 1.9980034953043204 -1.098152612967567
Ni 6.593173571922359 1.8835869252980708 0.677638532675829 -0.30795105292954056 -0.9021754167048721 -0.9242678777285372
Ni 5.6084889618243485 3.1567237457722275 4.7638374775 -0.5186789251388487 1.313515412845725 1.5880714352545875
Ni 3.4648744551168575 7.212063249509402 7.144640029600332 1.636973560271929 -1.0303346248823289 1.6253668292709362
Ni 1.571673996769878 0.5825495982839902 3.721898731826671 -1.7303231169693685 0.46034522239496206 -1.9728233964942667
Ni 7.685196976024146 5.216007231320879 0.6222719773395381 -0.7663669195122736 -0.793618299029059 0.8481637383751071
Ni 6.674796165020305 1.3943597747081824 8.575827030911254 -0.4507159268353141 -0.05967350460123272 0.28536853964333436
Ni 6.466607711820768 5.585721527305635 3.5762435379757513 -3.267319587925012 -1.151311199268417 0.010003648179931157
Ni 1.4066170293455407 6.024394435352753 3.268332242579167 -0.6761569368850807 0.1026168409319781 -0.1716404192895431
Ni 2.3400263819221143 2.5332953713322874 7.5263804856780006 -1.7166597605496627 -0.57781789739285 0.2970472615328433
Ni 8.514660002509398 5.688003972676955 4.8248676979315475 1.689990993009225 -0.46286387505175774 1.6480233903281873
Ni 8.453928356229273 1.46229232699321 2.5170281641597203 -1.4664546561813387 0.9995940012653622 0.3787278665327865
Ni 7.68400452817481 5.235955312397365 9.422079538239517 -0.5303067391857641 -0.9010130209656547 0.5496887432568017
Ni 8.370697345101993 0.3130064679125062 4.57028840150196 1.151100883029824 1.0471031025899191 0.3147364512824902
Ni 8.875555730678135 2.9522975117562544 0.7769444803146985 -1.458851132802468 0.03601215642855088 -0.38260997519601203
P 7.193298372500475 3.019832581424837 10.133540144062128 -0.8558243402441583 0.16687719357294484 -0.19900544156605726
Ni 1.835842792415751 3.040862184969324 13.75595822077433 1.70839623498929 0.1405110448745903 -1.7616211557517019
P 5.246650367914275 5.326498154910883 1.4414429771933897 2.2394316248109623 -0.08367809504594621 1.3762703845857587
Ni 2.034639563329046 8.779272499680603 12.866615824688868 -1.687985789653738 -0.9632334603584574 0.3672975132086578
P 5.537774031224203 5.617788206292811 5.7053351391321465 1.4280580586810117 -0.18453501586402413 0.8601890449707572
P 1.3710377132828013 4.4753584601567 4.837950422281663 0.3308315570721399 0.7814744645776736 0.22263747916270046
P 9.2276975975033 8.04355066420399 11.885003847653795 -0.4476257179457646 0.7240892417899852 -0.5019047910043033
Ni 5.138719971876722 1.2038546760495707 10.95014969198535 -1.2392683813056915 0.8791938682080342 -1.616872675756996
Ni 7.431991305566741 3.8007657535766546 6.3716481903738185 -0.38990805151932206 -0.9854724742623158 -0.7951902715018693
Ni 3.6004714900153565 1.1337775663920944 13.369902767362785 0.4647065846874513 0.31434204405754895 0.09803642065014728
Ni 3.9989154597655037 3.8045926792326625 3.1352051461716948 0.451849526219125 4.035616891690778 2.1579117137585997
Ni 3.299799000128964 5.092196018189071 0.785065142606493 -1.3820705362073038 -1.1140196619068106 -1.1764589021786385
Ni 0.3292829188668505 6.234829127524295 10.715634023904471 -0.8321056564709798 -0.6443919857686579 1.8410170784825262
Ni 2.001278754892978 6.288313648890625 12.487202952862846 -0.6986499757812741 0.3148287538859804 -1.3640967253377023
Ni 7.072121637175338 7.584088490938607 4.750308278490016 -0.6770321404011823 0.043221786803112665 1.3008663566231466
Ni 4.843464338112119 7.763602733063418 5.48304991872147 0.15566949778258352 -1.1062539019184625 0.3241330620060418
Ni 9.217427755948165 7.244684555403246 8.827741345054303 1.181239097176101 0.26518872226134976 -2.7964282145830874
Ni 1.5780059872876686 3.504622716761383 2.2809844989509718 -0.05793363909199055 0.39684797317226495 3.3738033680115636
Ni 8.821840114767358 7.9884022621176545 6.412047214255501 0.4496314355218837 -2.0161344005770765 -0.03213467575101562
Ni 3.1022316521921165 3.0621968333124787 5.4060686284541575 0.7235883908941667 0.37403406060154293 -0.6972970612978054
Ni 0.5044045158908529 2.3566282139950374 10.65023426782656 1.821161734319496 2.825362124008618 0.3993982503979444
Ni 5.793373841162059 3.9220164391560135 8.185062795062102 0.018939517216980287 -1.4678296821519947 0.27298636392889764
Ni 1.6036389941574987 6.344968787406742 6.2462054497582296 -1.3882450404491318 -2.018677221603588 -0.9837763175068154
Ni 4.124464503871538 7.71865946605977 13.1164465904192 1.046595052605249 -0.8007122297613629 2.137397395855332
Ni 9.058712022823398 7.267054507305514 0.39728295075885617 0.9165612531128989 -2.8829509781666802 -0.21151128734255187
Ni 0.5999112692190479 2.6382954885462793 4.160718616004057 -1.0510965400200285 -0.22587732625623677 0.9902097318369849
Ni 2.2906183683197914 0.7614010612553335 10.121877264593081 0.4196711417143676 0.328052451665106 0.11492316910315693
Ni 4.897642143111785 2.906956762136162 12.439539240881995 0.3704622840898846 0.2071542959254368 -0.3960352474629824
Ni 2.0326244189014866 1.2091143878811372 5.679697510371428 0.2440712235564442 0.2801959943034594 1.1617928155260313
Ni 4.438420308172624 3.0395218366115437 1.216071258047107 0.6276757014552415 -0.9893895499285348 -2.609933760999847
Ni 4.858975403935261 4.985661433199964 10.305320113973456 1.597033786654198 0.5284791990587221 -0.9271441708350678
Ni 0.38530855584389834 4.420256276979253 6.822779867501052 0.6457767819313266 -0.25116489717843193 0.685067094890517
P 4.50581672111454 2.2336581850050083 7.497116521325852 0.934622481489984 3.425721911257726 1.8087163094672916
Ni 5.178884203701248 8.408957357880293 9.154755839872882 -0.9336953416900243 -0.00504733261592034 0.7890545909177765
P 2.335145665143438 2.2758837801659837 11.936942808706878 1.3866985218976182 -0.2817075458519794 -2.391259123139637
Ni 6.141374493750771 0.6210490250103355 5.0705581738036045 -0.3021622141619054 0.5781487983697075 0.5261006715242166
P 0.5573140740306054 7.850836301700485 4.380663310868595 -0.9782353330839282 -0.9988360400534153 0.7918740626444426
P 5.404737523878154 6.912176481074123 11.110565356579057 0.4426472908945667 0.9754773107228167 0.35657087081977296
P 3.780928597881503 0.4795415160431131 4.609956242245019 1.7759033767023285 1.4630307181014546 -1.7568247628043228
Ni 9.366539199805803 1.969812921721358 6.589441857218663 -0.1726297797860059 2.0263483649956004 -0.9885914795072716
