# total energy = -381171.1293111594 ev
CRYSTAL
PRIMVEC
9.19540311621894 0.00000000000000 0.00000000000000

0.00000000000000 9.19540311621894 0.00000000000000

0.00000000000000 0.00000000000000 13.45840194617573

PRIMCOORD
 96 1
Ni 6.7349980754412835 2.0579495396561724 2.3189362208269544 -1.2571257212020865 -0.8060418695043925 -0.28223076534530106
Ni 7.741683188858226 5.014997979853724 6.626553931483556 -0.0015007529152425768 0.5974894076798485 -0.3906107340133015
Ni 5.728929054012601 2.8899403904910654 11.409050748990934 -0.8407365926731004 -0.0588648926570083 -0.36817168828349495
Ni 4.172542760621189 8.339310808277776 13.399844422846012 -0.4691875032769403 -0.13869970269746434 1.2287587400236193
Ni 2.709296702291025 8.365407361452208 3.197703166215413 0.4916391474122371 -0.22344686243787326 0.4079068020895878
Ni 4.959200275603388 1.3277150163153817 4.312609894842084 0.9947109621414482 -0.09455334719755329 -3.585394873772748
Ni 6.458161278447115 7.785149857940517 0.6596947493056594 -1.008633228649495 -0.8648987917416009 0.2833273408435895
Ni 0.30882760336973103 3.391476050547397 13.087918888269634 0.7657958775001521 -0.819983162175833 -1.4223499525526406
Ni 6.9664831457771355 6.757885433035068 2.8056323398287053 1.0150920969009616 1.194163518547253 -1.2139864668104512
Ni 1.0914299457127732 8.712708530178466 7.760302960007947 -1.1927334709689459 -0.13280827691369387 -0.7380295060201613
Ni 7.035292345003448 0.628839575177116 5.166963045770319 0.8742133842743074 -1.072586077352372 -0.1684849043796969
Ni 4.221848510487751 5.957609526491441 0.168625296727531 -0.2067542322735407 0.14114507891416336 0.4877151297674826
Ni 5.641269279026041 0.44538025463669084 7.29034891090214 0.038193994571218096 -0.27811185808092104 -0.478356314260402
Ni 3.570069163920835 0.9388230406800485 1.97842493753551 0.5497288524661177 0.0839460039953522 -0.03709176264597483
Ni 7.026473953708775 5.679393419075792 10.406480578331411 1.4288111347969523 -0.4705067363089962 1.7931526507010798
Ni 8.289931495188736 2.6819127927232103 6.428998058435589 2.5547882261759547 -0.4819599724512603 0.03956619232839637
Ni 2.8143633747966836 4.820441647202338 5.711934110539386 -1.2673024046247723 -0.6699927170558978 -0.4571447131797934
Ni 7.731880889462897 8.864101642040287 7.7897631915302314 1.0864651493273094 -0.16841677014592285 0.20281504512013457
Ni 5.365581907383107 3.9138392979681 9.019712685170997 1.420402856128599 0.8277540643705035 2.5741440049947473
Ni 6.86718199083327 3.0903817809407728 0.14364598499449915 0.35719102090227517 0.1306143545861686 -0.7323543100122548
Ni 3.355568002574826 3.4542438701276197 10.176435508075585 -0.272309392466531 -0.6028663557210455 1.5857803252275657
Ni 3.3148691497383083 0.9760368358516223 11.094904524635972 -0.28351297449183427 -1.3510141811221312 -1.6727484038786933
Ni 0.9372230405911299 3.895871480877599 2.8985086668293096 0.877543991309437 0.14392444143151342 1.2111374273974302
Ni 9.025214294672148 1.7351173378069982 3.7923349233995043 0.5661024087281348 -1.1336590334042926 1.1630871088574228
P 8.034952170673645 7.723071693571034 4.6113997965045534 -1.6552597601756267 0.7331827194508213 -0.29217116438746454
Ni 7.1614164899437265 8.530538405111985 10.362498047151487 0.8909600076050269 0.22405929921089154 -2.041761357116561
P 4.432184154360886 8.698391288003487 5.409577312126966 -0.8154397657795246 -0.5047340329229824 0.9484082224201664
Ni 8.01583492823191 3.4261427191406346 11.16305809164194 -0.37335837469075706 -0.28569455552418543 0.21539725266051937
P 1.3715586969128772 0.9111090161513592 2.6201086513574627 0.9824334303256759 -0.4789037021234397 -0.18494150727382344
P 7.8965705537878 1.2227678840462517 11.537080181393419 -0.2904855491549255 0.28822066438014876 -0.3731395738117316
P 5.602510656182407 0.5248423280182459 0.9682133871409786 0.48881659036177755 0.9275203232275638 0.9485128663188309
Ni 0.6830667046275247 8.812708535735881 0.7960846419428844 2.162764670975527 0.6457978649772491 1.6765837184643837
Ni 2.0251771240417695 1.3718253635943636 9.234482352279056 1.8700121801632956 0.4961784300434874 -1.2529062838041003
Ni 7.856542965356405 0.6378832538406303 0.20669150573958028 -1.8180355299856883 -0.1719756911417748 -0.9209982058383299
Ni 4.36219794357491 6.295319890086997 4.683240720037283 -1.3785776925626967 1.9423923336979192 2.1102010379461977
Ni 2.2225012729389277 5.57079571189114 9.747408357795981 -0.5937677358538871 0.8698108843312375 -0.4788504802880011
Ni 3.411853063174085 7.233784310057461 11.623738577013986 -0.766831260743202 0.7025673085578094 -1.7353856190939403
Ni 1.0372782185654055 4.482188754840999 7.928007796914209 -2.2357901714036337 0.009547534479119041 -1.330352796118038
Ni 0.6785627963312468 7.644956746701127 11.108308663311929 1.2456719708391901 -1.5796855251837374 -0.6445166842719803
Ni 9.077674067702498 2.1126713817777527 1.4242088147813918 0.43430766068061977 -0.10940532460872125 1.0679138686876835
Ni 4.660037040586837 3.121535805660637 1.5932727322229538 -0.901149546543519 0.04867612504946456 0.12990447300333757
Ni 5.017572692640488 5.239329026803491 6.693481751294967 0.30982461580316967 -0.7419303837364642 0.21054583810548902
Ni 5.4579681194139456 8.50326484037789 3.495254447119392 -0.12921747423864197 -1.2386127499995636 -0.7737318445177771
Ni 1.4408000800712535 5.283540523513381 0.8583080936767624 0.15379979156369641 1.693472523799922 -0.7182880617271759
Ni 1.8421518265139707 2.0287817219432416 6.960833490290747 -0.7016933905932883 1.149924860443852 -0.38581639794845163
Ni 4.122804826822563 1.4002115720684547 13.050531299984952 -0.26726874471883005 2.2122830894206285 2.6153330776385473
Ni 5.837545152002872 7.342961327619134 11.679362488151215 -1.0018722557765778 -1.570271173848373 1.3468191692041773
Ni 6.378437136085479 4.5539680691749025 2.012919652096203 -1.0387490741982692 1.1822153450464414 0.21043193823544407
Ni 6.333839432457573 6.292469315215935 8.48760782801351 1.124893628506837 -0.17715980644587553 -1.3273895997246559
Ni 8.63967864106242 7.120450970425722 1.0676294846199677 -0.38753363774987454 -2.380758737828945 0.7671950718405239
Ni 7.668855598603997 9.172956831618446 2.6269454333466067 0.00969691557278975 -0.8341625390000086 -0.14735660704151396
Ni 5.711899168008708 0.393107148283381 11.858116521073825 1.4074774063161823 1.1969045716275 0.5345056077584601
Ni 4.738014056414598 3.792138141779373 4.26494092667568 1.258795909815658 1.4568567280802587 -0.6559462662651607
Ni 6.265453221760515 2.870620849187514 7.473100185426205 -0.29699969612435945 -0.5613214423997236 -3.2289109062398262
Ni 0.9593839613629344 3.1780231651217132 10.079332973943563 -0.39592571846831165 1.085230248478944 0.7876564250186693
Ni 8.500359093089967 5.385388805035583 12.71627840784591 -0.6165243128241125 0.7233348801224638 -1.2182555264994501
P 2.1714575919412984 2.394216225010578 12.278974475497135 0.38062662621739607 1.673223800853215 -0.780120007432308
Ni 4.59012439302334 7.409600411782316 7.762240431379988 -0.8870557874546142 1.1861627597299635 0.9116815564230945
P 6.4882486364410346 2.727016243505659 5.279138684188293 -1.0375625100893358 0.8509785821160827 -0.9273835405393835
Ni 3.3136553565674047 0.2527797841629666 7.361180179206344 -0.44336180046308804 -0.8252107291233595 -1.059301187318008
P 0.5015374991368928 4.117682987457461 5.359956159944024 0.6453908593468175 -0.16050599993927842 0.6449974805631408
P 0.05473839384663794 1.4119357106510484 8.17177976448462 -1.2265537619525007 0.9683111319916808 -1.4213258821635006
P 6.250657818639422 5.252377303390707 13.27119522029414 0.41955724184432264 -0.08872182811744075 -0.4096178712434236
Ni 8.570832660224868 4.603586462737 1.481258932894433 -1.4510725172983137 0.35897356672399466 -0.06586986321993171
Ni 0.21303265551727169 0.3684662273737526 9.991934348396802 -1.901418719499035 -0.02159161012784669 0.8559760353306742
Ni 8.099218840911877 7.6759176679619845 12.385390113595003 -0.7124251751884956 0.8437406696067469 0.10174395140872156
Ni 7.9341705558773885 4.01580711972683 8.792051063323493 0.25131145005862526 0.07372946847366657 0.29194362175769073
Ni 2.7199265879392436 1.0338115517060817 4.932517975269967 -2.1869312409194013 -2.422635580568389 -0.07536134765013472
Ni 0.8269729195215433 0.8213508502435843 12.428107357348289 -0.7474114614556934 -0.05620688620887094 -1.7784734514223497
Ni 3.778253083536458 3.7680829680287338 12.870565312972 1.1290834982184683 -0.8775987558067726 -0.3757649272497206
Ni 3.100984080380561 3.9629335535700347 7.849168252302883 2.0162421297995343 -1.003260394373356 -0.05188126225032355
Ni 2.4355127790297364 6.744506121946697 7.483422944620574 -0.7848235835555646 -1.9743580879712384 0.8494122660702274
Ni 4.7738945181787384 5.303071559081562 11.37204017222146 0.22319258033522207 -1.0894769395704398 -1.140391981252752
Ni 2.8706852170071824 2.737526588917349 3.492508699840362 0.1093094224608053 0.2619393620861166 -0.6780397557300903
Ni 8.72812002528782 5.525545134663734 4.11919930938081 0.8129455386027612 1.9478860098226387 -0.012578350885642851
Ni 2.214703571356152 6.1246256277272435 3.7807477963187774 -1.0945317283855278 -0.9352989387317182 -0.9548388085368588
Ni 6.8306854370808665 1.7316230847392449 9.317291552283406 0.9363530910278455 -0.8988561225236521 1.3240201690317908
Ni 6.362124491500756 5.559899159561436 4.475375880899161 0.9754189466810557 -1.8373897661425842 1.342807734051939
Ni 2.1847265581959516 7.792588938813707 5.598963989318638 0.4418538484589939 0.8651101364214584 -1.2954554700202205
Ni 7.816211928632282 3.5312461732575327 3.56093169214866 -1.0414531033929935 1.1418410549944529 1.455859397163996
Ni 0.20898943690176863 0.5207476151470076 5.824136415625509 -0.06002008930737405 -0.7204223344613594 -0.2999394954789738
Ni 8.950014290492971 6.45101645046384 8.620967835424882 -0.3069753192798326 0.7136274230267129 0.32423204947775125
Ni 2.2651219649627095 2.946344991326854 0.9849517788757983 -0.3375477927500509 -0.837000779779752 0.9439545575241872
Ni 4.395981853498399 1.8060138934711525 8.708070369001163 -0.355233125844956 0.21062348542095985 0.6849390539530849
Ni 0.37417473343812446 7.837628021776487 3.17151281993232 1.0162226109609789 -0.0742773705573366 0.13415064987420122
Ni 6.181260113633279 7.460055587000113 6.088917119995647 1.2728989248759432 -0.18996621418192444 -0.8274326764753426
Ni 4.1926347157607715 2.346216222343018 5.906986994942504 -0.9554810701065481 2.6240043801603004 5.224501164116964
Ni 2.213554146004917 5.216533623237805 12.015781817192265 -1.3625903159955048 -0.11381245253748141 0.2973107996068751
P 1.697195496619064 7.235513045785717 12.945151983783758 0.05837072662940915 0.056102499420522735 1.2986402955061056
Ni 4.4376554190327635 6.46002794521752 2.5461950840313876 0.16490978543392887 -0.19266150162590046 -1.708054535379155
P 4.158694483989514 5.514391111055352 8.973792682619033 0.25361541560145356 2.385387751960524 -0.3861365002920318
Ni -0.16376920450363475 7.151292351450051 6.315502879714397 0.6597561269295541 -0.2557481456737402 0.44735189545908766
P 0.14097012277682483 5.3961474263231395 10.475588628149046 -0.9704073523990772 -0.9355365086638211 0.5033394665683009
P 4.972073839537216 9.243218904488721 9.866233191985778 0.1291287711795776 -0.5810351187785671 -1.1159464466158782
P 3.0370116630322443 4.802400266889358 2.0996185074891316 1.3069994661040782 -0.6727134584211705 0.9013179538005832
Ni 2.345351854478889 8.115421140662882 9.421056155751184 1.763811221424485 -0.10154366247245739 1.5366064346060764
