# total energy = -381169.8144023962 ev
CRYSTAL
PRIMVEC
9.24915034460946 0.00000000000000 0.00000000000000
0.00000000000000 9.24915034460946 0.00000000000000
0.00000000000000 0.00000000000000 13.53706644777579
PRIMCOORD
 96 1
Ni 0.3020994461242663 6.9224987800458235 8.758928667234409 0.3232745706604884 -2.315923743631431 0.7961179255224613
Ni 3.7825324987441196 1.6759922765916673 5.858733658146228 0.5004947980306542 -1.0247193355780804 0.09383780918776743
Ni 4.440655786958463 2.0923797730728917 11.961988027175058 -1.1887071234183721 -0.07424857420193019 0.251794817452947
Ni 7.500219204871125 8.692795392898239 8.539330716697847 0.31913689434303105 -1.4583595378780303 0.4257289178726732
Ni 0.6923664172981177 2.9666742016448433 0.6605576645681908 -1.2377617148531779 1.6834210531011913 0.25856658895914175
Ni 2.776576415928177 5.7762978315255165 4.778259946264774 -1.129932476482325 -0.20703628229033375 -0.13485898879513547
Ni 5.591703290225793 1.7698064078875435 1.4891316934732022 0.0211915464759506 -1.5317149108417298 -0.9477428209220258
Ni 7.1060296690632825 8.170764101912281 11.1032099731138 -0.2633210729249917 -0.6930287729397548 -0.8958962685643796
Ni 1.9083216824894411 2.4005984570227867 7.70150753751226 1.0738114651190411 0.005002852531230093 -1.2536912415992407
Ni 1.225059203812494 6.515674904954715 2.3498853660343912 0.467683150817272 0.5388965377373042 -0.16846690665756794
Ni 7.6339896653790875 5.220793865674158 4.002179469777168 1.2822132602983336 -1.235980197472723 1.0696907580824482
Ni 4.365201218969529 4.768723147410473 12.45437209185166 0.12698164292958775 0.23411488367468067 0.3728140721515128
Ni 1.2896090236206295 8.003964925752385 0.03222311466249667 0.7990983483070238 0.13034850251929164 -0.30107000953899116
Ni 6.821035601467912 6.908856283381975 2.6198282913781816 -0.6892237973713679 -0.6328801284743165 -1.013503926478235
Ni 6.3372310485915735 3.906017904140082 1.072924555422449 -0.2562669942916877 0.6564414607340243 -0.6058125828335631
Ni 5.395445570422263 7.302925580236171 12.958045669360729 1.3810397809499442 -2.635537063390248 -0.9889563190458582
Ni 4.388166859116198 2.325301124588622 3.2287793970408734 0.7108632300180145 -0.8611861187767039 2.0087499351875473
Ni 5.393410757360536 -0.1356230653091614 6.1242092439045015 -0.08254552410339977 0.06854098229419164 1.920727704240292
Ni 0.10825575454396684 4.443421282892356 7.895521413457722 -1.4672532408232344 -0.26149533257016255 1.3113130058777673
Ni 9.124332997539044 2.763155898871062 2.832834372509777 -2.8510975811015093 -0.5543190429399614 0.5029571435282176
Ni 4.62545380956436 5.936974070199672 6.245298194462766 0.47168250178465215 0.40126692817556703 0.7662201095217642
Ni 2.5256839654172882 7.861047055616933 9.639271115174829 0.7823267852756398 0.9119137270385586 -1.4549150309728556
Ni 5.278906276887012 8.106722985369577 8.766549967065602 -0.55330834228726 0.26381035385658436 -1.153598195530381
Ni 5.118378024617346 5.919150957609003 1.3695318561101097 0.43016252816399464 -0.820223046100781 -0.9057289383840854
P 8.76032343909672 0.546081856460537 11.378526654770603 0.812023541009124 0.32536770574409124 -0.27171932429101586
Ni 5.853065778854292 0.3031150028250735 12.684055315854158 -0.9529287359983395 1.183796316380316 -0.27169001371497725
P 3.8451214986927735 3.8902388537614203 5.632719572060031 0.6170796711069502 0.3836597566167651 -1.2530507798017645
Ni 4.0112454868821885 6.622835560105462 3.1538113343566976 -0.1081521689279105 1.6155264461417467 -0.06252125846267297
P 7.090611335545563 2.999702917296778 3.9368092503391456 -0.06519006354408773 -0.2188350746974747 0.1899775270358341
P 3.027413371537382 1.7545175624737526 9.458009967636224 -0.07954864625860493 0.7484558435598077 -0.21790176424992794
P 6.0551597124848655 3.38695559039419 12.259682103020685 1.5232971190916798 0.27109506044345566 0.23569971166329728
Ni 5.883060773214198 8.45141106887578 1.2271855834619978 -0.9517722537963931 1.0533909924811602 1.5399974625654962
Ni 3.458211044155743 8.180401716504642 12.25763804080868 -0.6470821310063114 1.5497175180667375 -0.09347759763487126
Ni 0.8606759796988326 4.426754314086758 10.337499643920776 -0.9973941654005661 1.1320307537722503 0.09437748374132132
Ni 2.3083844287254496 7.069865491466231 7.235643561435153 -0.17273416657435411 -0.43562226572698526 -0.13875421008448363
Ni 0.7870462690602559 0.6131557693802417 1.1232871036152101 -1.2532945203814545 0.1941673967474656 0.8244098304886188
Ni 3.466183811697599 4.203563068666194 2.67905337536979 0.1301423000457565 1.5610805084880406 -0.8274280484896525
Ni 0.5224992979901538 2.5123929364641016 11.893490670027171 -1.9292221148645483 -0.519445370991228 -1.7067273319272993
Ni 1.6379782689385023 8.069097442028196 4.0199396881459295 -0.674502174890477 -1.298839556001105 -2.0110464445312073
Ni 2.9524490085133186 6.35004112173017 0.4396204370710018 1.1666920525998616 0.9958455899665236 -0.964940415747235
Ni 6.357125970845091 0.8955045799953673 4.344247269008886 1.752355928399692 1.6963210489923108 -0.6073146213003864
Ni 1.9922854687365046 2.0534593486922303 2.447989253230399 0.9649465863948221 0.8482329010501456 -0.5791564136986154
Ni 7.7488826101643955 8.810981035183431 5.963659718589189 -0.021108499843841066 1.3852327359853691 0.19163357458201835
Ni 8.808483764607676 6.900791024337313 6.578499758235523 0.33173967070870614 -1.6933601665917741 -0.6340340395731017
Ni 7.476347147996961 1.5760552078100498 7.908895684763434 2.5095172701532973 -1.7011526660529994 -0.9500614417528733
Ni 1.9972152658360511 2.857913443495557 5.181893789424113 -1.7312780246834698 0.11630899370709001 -1.0723685620249275
Ni 8.235360167471821 4.370917193842924 12.225933803476924 -1.1408326683345964 0.2902981157344678 0.4383196100534903
Ni 6.086468086184612 5.473434405588074 10.994656395930798 1.0978463945810575 -0.1330221926967128 0.08732700465244314
Ni 7.653625611424749 0.565225747711272 2.0225320399840423 0.013763115222363393 1.1774503195576302 0.7618116960414235
Ni 4.511698510263563 5.8584672826181485 9.046699329744007 -0.8138173996847533 0.1255215134442935 0.40971300206039113
Ni 0.5228026701193568 7.804636488055704 11.386296865921315 -0.9395862532531625 -0.1435431468326947 -0.8673649938939063
Ni 1.9609308492853539 4.74552627850679 6.713072120072812 1.0532274703201023 -1.1287063173847078 -1.767013787522183
Ni 4.897452821015521 1.4027076332515054 8.051481510403812 0.2915517856359108 -0.3726032416922873 0.6536294452065259
Ni 3.4758676720413617 8.155012798984462 5.317237530394801 -0.6007328543178105 -1.0642503037931672 1.5230135264129898
Ni 4.452096985855535 0.38745430457352836 10.23863825131679 0.26266004230222506 -0.30204188653395725 1.1124687724799227
Ni 5.24737592358053 2.9199197469765346 9.86757344104044 -0.6123676103432615 1.1415060402525374 1.1827097681843566
P 1.9091726043152537 4.813322550063407 1.2356624296941454 -1.0192503420437091 -1.804434651372802 -0.49310416199353785
Ni 3.0741585770554103 8.406996649228457 1.9821918710353126 -1.1388652601955804 -0.29542772365154923 -0.7093156830252364
P 8.357004991961947 6.187561298751302 10.420711474250028 0.9066596777284708 -0.48609584899650476 2.19206367704996
Ni 7.169599078941677 4.9626963270947 6.599915240795167 -0.8346142818254464 0.09404169766845741 0.14765125546379734
P 4.919715525740866 7.348348157264077 10.741607968489507 -0.7280495119893139 -0.12634503778685338 0.5750187373811582
P 6.539167746667377 3.2326520162633505 8.279608102414093 -0.6486376484188893 3.954978097691789 -0.4241911410719082
P 7.36945471820435 6.041813188629994 0.1315996849371111 -0.7982521982566446 0.2611734304543695 0.4234136394759353
Ni 0.35449310771864184 5.880498758586479 13.292925028994382 0.7820745600555176 0.508944214349588 0.12774603189943806
Ni 9.235036077247251 0.7699547642567806 4.094800460686851 -0.059898476127845234 -0.10990694683548814 0.09766335358144469
Ni 3.506454612019224 3.028976477934799 0.5654856488341561 2.3539606437994944 0.7743550799240729 1.9535941159510095
Ni 0.5549961875009556 2.146977507179128 9.476826438967025 -0.8248698008441729 -0.36690053488055524 0.6673881895535152
Ni 3.1474210964278484 3.993394626840678 10.149198968103624 0.15375762547185132 -0.20373112917650074 0.0025060542513053617
Ni 8.392845449299177 7.524137507496693 4.051684621738921 1.738600526486812 0.6261680065614635 1.0447366592402718
Ni 5.829221469430969 2.6359245876114668 6.302993468997967 1.9076521020032564 0.221139040240303 -2.4126039073639998
Ni 7.996140144615018 8.92782555067794 13.241890992491253 1.0516156457482921 -0.6172218531117692 0.3816213860304976
Ni 6.956276676870485 1.4853950367598496 10.61610624833238 -0.08193205888911696 -1.873693742779941 0.3563222451440767
Ni 4.453179136438362 3.8935777970127083 7.671130553245766 -0.997124199568631 0.3265892368560182 1.2289402599068062
Ni 2.4241930393885345 6.399024621616097 11.207228691914235 0.15625982306841477 -2.752306027452892 1.3908801640791335
Ni 0.543736271949383 9.039416548813081 8.757372035242188 0.9620026732751499 2.5722604148187895 -0.4125203896021993
Ni 8.783585052052366 7.901484340643608 1.742260588521934 -0.002923344294382062 -0.5865794456355641 -0.4518266434009896
Ni 8.415912830098932 5.000497604291412 1.7156202609687925 0.523238519485073 0.04848252098141973 0.1918896564568824
Ni 8.700453689330555 3.2411704836717603 5.784577670856687 -0.2179860964336181 -0.3134056482862086 -0.7533247416163349
Ni 6.058267426979139 7.258492662288287 4.7727909237038695 0.2182511771695467 -0.437057198401299 0.6342898643376496
Ni 7.555825096357945 2.077618129225093 0.04443939235308068 0.36743506722778657 0.3534690919659977 -0.738023078262258
Ni 7.786110440043711 3.481907367174577 10.12148851386302 0.0776102915853115 1.5319779346951292 -1.2907192408868158
Ni 5.299948093775321 4.929963584251744 3.929363684363283 0.5786923295780034 -1.2888287087323222 0.9293530055609284
Ni 1.298922917953169 4.406785398630996 3.3254885123745703 -0.4566631455576845 -0.4545031617918882 0.18351274524709685
Ni 3.2712949661355943 9.080945233572866 7.532064029287146 -0.6624573279108009 0.8948120343612652 0.2641060307201323
Ni 2.1484943678251427 4.088466642574713 12.647464752429174 -0.9660009958012654 1.2685619880634862 -1.2281576161045107
Ni 4.709426844961704 8.846581014613365 3.651095598851947 0.668201943704062 0.2810354594856192 -1.8980024947286345
Ni 2.7382756846163145 0.7723345706239727 3.9848659853669592 -0.39184254953787356 -0.3046217314459915 0.8840303703647291
Ni 2.1671869005421853 1.6880716668580988 13.04297691672714 0.8762607537216393 -2.5730710836455426 0.003397455717323181
P 3.6825214367602577 0.7887296144113206 0.8633924551362375 0.8858946772669776 0.7441608157288797 -0.6407340773010965
Ni 7.0681266512134835 6.074610675524915 8.816055119027354 -0.17438661457611257 -0.8395729113823024 -0.3983245577177914
P 6.458293176614025 7.202886770801467 7.153974489372701 0.08978497927463246 0.3089136739531261 -2.31523443087389
Ni 0.9800677111806122 8.8432790679632 5.931049064529936 0.22648899169830675 0.179090190699369 2.0622607626214937
P 0.48883239096885933 5.1673337770524315 5.099561553286543 -1.1634182669445963 1.0329188406697372 0.9002275489498819
P 2.236148565034156 5.349125825817141 8.61245727356116 0.09224655344124758 0.5737511835226442 2.9960365798404656
P 0.19540124848754833 1.408164631917045 6.761182500172253 -0.2928885021694633 -0.45426379208757256 0.08822072011130613
Ni 2.0650855305949136 0.5718222416913783 11.017222472785347 -0.9624690713886069 -0.03954510928247383 -0.46358275549565325
