# total energy = -340872.5404469958 ev
CRYSTAL
PRIMVEC
9.22157421254393 0.00000000000000 0.00000000000000

0.00000000000000 9.22157421254393 0.00000000000000

0.00000000000000 0.00000000000000 13.49670599106501

PRIMCOORD
 96 1
Ni 2.8882616302588953 3.8250352582743923 5.720970652456649 -1.6265096846261278 0.2783501993439722 0.9087931791317058
Ni 9.193964933535648 8.631688660516827 4.767103914268494 0.037108474816523185 -0.3362650693828854 0.2775986658899284
Ni 3.8898444826450462 5.362474573232307 4.076963135945372 -0.5216115254046114 -0.993008891848677 0.5810094077469543
Ni 8.053320740297268 0.3417192690511027 6.469713613470874 -0.6167395141587121 1.3004205273349798 1.0048449652516565
Ni 2.747780166960297 1.3129308663910464 4.001679125296599 -0.6218323553005872 0.00560860443602905 0.3259184360412387
Ni 5.038317792487111 4.120669709625958 6.7303346692599835 0.5212641693675215 0.6884249556191563 -0.2821950270113592
Ni 0.34235186904993986 1.9267926261955017 9.532345992680352 1.604797746870333 0.08642686143567696 -2.123611397814833
Ni 8.319243279167011 4.194110327566751 3.7193818368942755 -0.11759480239804909 -0.0695136306201061 0.28334405301413784
Ni 3.180622422724351 2.475015219939867 7.986972435171426 0.22374819572837598 0.21408573293794741 0.4217372802147769
Ni 6.894749806567061 7.582181286352888 7.665927013604183 -0.6593825456402193 -0.5743916453201205 0.596788782068398
Ni 6.735428666918257 7.350738213892064 1.0805545706083213 0.3867959882529016 -0.9068828494828703 -1.5235539722974925
Ni 2.2895048092021817 4.003758590307353 10.209839381813895 -0.714307736923189 0.44860119448515645 -1.3409711950638323
Ni -0.12078602485084006 4.672488717357881 5.983413891332789 0.5471582635254642 -1.1518153925983454 0.851366818693437
Ni 6.7409155036428645 2.3744170656058508 5.617747115911716 -0.22093309487708404 0.7591210365831379 0.6716055700689724
Ni 0.06444036139757145 9.138635487573223 11.445381874294728 1.2211158787663807 -0.9444646643913863 0.9831790502424487
Ni 2.367842083110649 6.429004973604018 11.810076695781728 1.837945124425422 1.8748170577511067 -0.217885823410328
Ni 3.0188022364329106 0.04211492995173279 6.421651690235612 -0.7730633576958429 1.3798107936388495 -1.7057623969108688
Ni 1.4223540673560695 2.3211255875697074 11.457745238995034 -0.7805447536745524 -0.7038014380752265 2.6189825014656765
Ni 1.378330271518633 5.782784709485871 4.467233993828504 0.3023311356396019 0.49814558107218726 0.20925591564947188
Ni 7.330672068156357 1.1130163565544762 3.6759224014056557 -0.8646882183926914 -0.9202674983198925 0.05384558506554598
Ni 3.799989462402068 7.513434449744575 0.5483424742106169 1.0080858407864575 -1.2989822522265564 -0.1386086856455548
Ni 1.6254776850584602 3.010014076099212 0.8113648279544965 -0.9879867560437372 -0.9376445561457594 0.7099065225317
Ni 6.987094651878349 5.274712850361572 11.962170887630407 1.2397306656540907 -1.2395902834214847 0.5999270705870635
Ni 8.529430622803938 2.669461336200484 1.8616412814173133 -0.5812066113594249 -0.39495229881144883 -0.5702786515930114
P 0.8078919830629216 5.8275093449721656 10.15763420523348 0.2533675612567056 -0.12305993927767837 -0.09474052350769491
P 5.938361889957884 1.6557060057025987 11.806500569257691 -2.1046718805978526 0.28464348855185173 -0.42684194843119394
P 4.299918671395562 2.046331894197322 6.133915517295183 0.255017952375935 -0.5705097937672109 -0.01460592283863291
P 3.192379929991366 2.0281008417527024 12.956122887260909 0.17122544323931155 0.21209672753237666 0.1659873347688238
P 6.50943554488473 8.384661127443252 5.440589607199492 0.09659300333540138 -0.814854582700016 -0.33738555614057375
P 4.92501230873039 8.65630104239578 2.1148933771616614 0.26668536141153426 0.2978317051073516 0.18615943884132455
P 4.385522545873761 3.9198422639310078 9.583012088505576 -0.2995623146452131 -1.0824485719687487 -2.8509821385695675
P 5.100332879836662 7.578289781986864 9.396905964066363 0.5291942228478758 0.4017927187720499 0.8614231744881744
Ni 7.869442548215474 6.850228045715963 10.256322571524361 0.18321655416291668 1.592727188859044 1.1615786426326962
Ni 3.7418013283982505 5.941340458465529 9.957005945543996 -0.3685385847046105 0.9075803897705272 -0.19051128805211706
Ni 8.17493486252268 4.576446020741438 10.026864904016154 1.2808629169180266 -1.408987929423438 -0.3732267342088991
Ni 1.799083043339897 7.447822948407466 9.233839020925904 -0.6061635384150786 0.9948670281033383 0.2122142269468474
Ni 6.7554671479309825 8.051006125141173 3.2954365560409795 -1.2766262531288595 -0.3302741419067731 1.5184415907715914
Ni 0.5033089159843661 5.50322346218639 12.320400463356698 -2.517184556890568 -1.70682889050217 0.011790307766708728
Ni 5.014065052006914 0.6556327250337887 4.439754624491266 0.43432462996148424 -1.010764158949569 -0.24193129439530592
Ni 8.869430068243043 7.8653297260656005 2.4626094359976585 1.2596829404063015 -0.6787897465222373 -0.47734072851169407
Ni 5.332264695736822 6.379770988271787 5.956272031615921 0.6527663258752822 0.7211049623506807 -0.12811112854834067
Ni 2.5670373101497073 6.746079585266025 2.6288882534762372 -0.2364784988108508 0.37559883398550153 -1.2669283091148051
Ni 5.133041803974782 0.17353804078884913 13.309088788361308 0.5126800272429364 -0.1919094539512243 -0.9532133571182939
Ni 0.835695951816473 6.970698692724818 6.422758279154861 1.290915673168338 0.5003916967938866 0.2242963549223621
Ni 3.753844704469405 1.8922301656176401 10.744012907070966 -0.18245782162002125 -0.36562655326413807 0.007388322044271147
Ni 0.09899821118826964 7.479877140768363 0.16648169211377448 0.2844146603704973 0.5102547056308955 -0.01075235342049761
Ni 4.744822746379424 3.9495265116898493 11.571927694470258 0.9805128162641952 -0.17316534057450178 1.846687389394426
Ni 8.83635228113184 8.864754730059218 9.079814753570568 -0.11018951107291346 0.009096048763997238 -1.285754697792689
Ni 6.005725490417137 5.436597587673302 9.715671812459954 0.35444431139507343 0.18421697040297305 -0.3341549650184181
Ni 4.545304764238919 3.108795580290795 4.238573070342156 1.3176173508292406 -0.15432352527765036 -1.5082620791354282
Ni 7.9694781865155395 1.5215320992437171 12.567377277771474 1.3170517081337574 -0.7083173236677092 1.5782662762387079
Ni 7.11821621723497 0.46821898135499596 1.2880944002559462 0.5205229203261229 1.0258192535104784 0.3096754918198151
Ni 7.5888208198683795 2.213915564443181 10.411156493105612 -2.0999333374716027 0.11507974928567921 -1.0050809925218627
Ni 5.35968965778553 0.5705775342280501 9.540457289458443 0.8025395127780889 -0.8529591028812215 0.30002408477298004
Ni 5.404856928839525 9.361926688328918 6.982075348972125 -0.2714719841669002 1.266010425286226 0.51534626122119
Ni 2.5676459340552937 4.189619420869468 12.582236922642116 0.3740872824369815 0.21691343219472967 0.6422862522795648
P 8.816046374463628 2.2103283720299505 4.631974652709328 0.2805443787818136 0.8565383355920475 0.20139836727826607
P 6.3596771778131 2.630094435398218 2.5331424915531255 -0.3521398316316129 -0.5637413646951259 -0.3235712759653008
P 0.2144301899848123 0.7716115431879267 0.4543746318177644 0.7670636884689822 -0.6308533278522748 1.3608643344433338
P 1.844591512643992 0.37183047570128736 10.466318106415285 1.3073136549103872 -0.21760557316574783 -0.8165808213625033
P 2.1706940455722 6.068542854733145 0.5341901240908612 -0.9304796629662039 -0.8589556867842886 -0.6747202044385541
P 0.8713825223048048 9.061275700543424 6.9886890620795 0.7806897638928489 -0.408616940782735 0.8137544076573018
P 2.9469200645533933 2.9972237525075647 2.5155975242384403 0.0038841655457546006 -1.0408216404565818 1.5262711141183392
P 6.726391524077728 5.301234098126228 7.668382718847482 1.0906341931033345 -0.22327408430543486 -0.928932115973426
Ni 3.817860873447931 8.311930570725643 11.270154441089161 0.37265234976266787 0.8494518610589112 -2.2532045102253386
Ni 1.048732761920465 2.012507159565626 6.14078559016885 0.5775931829765537 -0.5456721658982409 0.3611050112447007
Ni 3.534537223823005 7.60808468863763 4.586437596524819 -0.27332754931840025 1.2500194491746084 0.5809345886449608
Ni 6.4865475974049405 2.9973159682508355 0.02747291423520962 -1.3677613186734832 0.3680966120711854 0.8140493131899013
Ni 0.2944872875052783 0.8462131573364975 2.902061716239357 0.8218904065008749 1.1968469789166871 -0.7740419195590282
Ni 8.002574416775396 6.587339404799826 5.209067229199454 -0.9691498258428922 0.11396877560968759 -0.5548031816652316
Ni 3.1440219942202066 0.07362412726990135 8.66520908319573 -0.05370211750914622 1.3827806749004508 1.9079925160618108
Ni 6.153169242332674 4.660251688225858 1.9534863174000738 1.7643079585552455 -1.6267161442099793 -1.5199158613242727
Ni 0.6388337830821637 5.417462820944631 2.1228294640275385 -0.04318836246201594 -0.26680671748074697 -0.6033072999132061
Ni 2.170030092220651 5.389383127118699 8.052620822805842 -0.48337202230743853 -0.9395849677015818 -0.38989159645908983
Ni 8.251759798241507 3.269066542095288 7.832476023210544 -0.7830387237409999 0.2639437941106551 0.13466384206519388
Ni 1.297715268751379 3.530433623247458 3.8218215396214084 0.4618709150108691 -1.2409241717415596 -0.30916435651135143
Ni 5.65264063100792 2.4841076922263587 8.26033494020825 -0.1905416270694202 0.7218294992215311 0.07087348708211019
Ni 4.4912017876619945 1.5594327697279786 1.5891022629678964 0.2676361553605778 1.1790523739374275 0.6560213424774702
Ni 5.201124687231547 6.654361807008978 11.983198843568427 -0.3403675215870332 1.4284866615779979 -0.5301015651534936
Ni 3.8409793602858975 4.52685239401045 1.3837092158236135 -0.8976243069990799 0.5527648110789642 -0.4805751762885917
Ni -0.383760426408219 6.266004425798713 8.191920080275711 -0.20275642396805726 -1.091542049629585 0.14272810713056708
Ni 3.967370258012732 7.469004904636748 7.6159350148622655 -0.2931949776662886 -1.137002495955229 -0.08388995394643617
Ni 2.4372805377934923 0.30901218922784773 1.7673534503953114 -0.3477928675168268 -0.0309545393999854 -0.07248299766107516
Ni 8.301482527013073 4.5215223240494025 0.49331180725638857 -0.0355491007492033 0.7245877786929585 0.2728128144655108
Ni 7.079079855790882 9.140258484654789 11.123350666431921 -1.5565214283624484 -2.204933333923777 -0.3740068069080333
Ni 6.264169332507626 5.110661043082982 4.231055642950728 -0.679198809035198 -0.10404431740712404 0.6974104469472182
Ni 5.00013125319871 6.419986273912143 2.3435681330095 -1.2947471310992862 2.3220337131839104 1.1952426105440448
Ni 2.726561324433707 -0.1386519029521072 13.024847592090836 -2.9658266319159887 2.0528464112861293 -1.320521926070545
P 8.38026243648924 3.50203117432008 12.039884783114363 1.3100490515636793 1.5141509338160375 -0.06885645665208141
P 7.419272954290855 7.335854592928171 12.517169494190304 0.5931424435650624 0.9390329518528536 -1.2064230526408966
P 7.3956011729932625 1.2739512717105175 8.35222055111805 0.2687946944450532 -0.6991639393032153 0.438954929644644
P 3.058390455019026 6.091246370726393 6.2023709521547605 0.009699486675951037 -0.7403998060245507 -1.5673390878032425
P 1.2147579861050497 3.3261112008825484 7.928234695337715 -0.5238476138239817 0.980228452254557 0.05886463554669217
P 5.360925348745359 5.157349873900942 13.37009319116461 -0.28370040791229206 -1.1384016902956007 1.972620022234209
P 1.6469547316662085 8.498741223443446 3.5299826882628644 1.5676185667168745 -0.5206057098479163 0.4074640581252144
P 7.77063337930091 5.987577432141462 2.719235705788282 -0.28568144289806285 1.028521740043306 0.0013254036796428786
