# total energy = -340890.43987992447 ev
CRYSTAL
PRIMVEC
9.08749985727875 0.00000000000000 0.00000000000000

0.00000000000000 9.08749985727875 0.00000000000000

0.00000000000000 0.00000000000000 13.30047461968659

PRIMCOORD
 96 1
Ni 6.3321335614049055 2.1288286327148143 11.509579400215452 0.9698910748842908 0.0776318888518663 -0.3711613670394382
Ni 4.752335321008415 0.4367970426386199 6.0585925452321145 -1.4606655603033878 -1.063888035357742 -1.0795553095813537
Ni 2.645407562987178 1.471638816909787 4.874437695550038 0.42930455103907356 -0.7478655182739765 -0.6281492986575504
Ni 3.264320829327746 3.979779694317511 4.433793005465252 -0.9125143367370349 0.835293053060026 0.39094112076952675
Ni 5.064763566637122 4.41007281329713 2.6534581791245393 -0.5671249364553781 1.198460346150394 0.17053278804766114
Ni 6.906636215866839 6.053928840297366 2.507658331164476 0.8505687482721738 0.2769255510823037 -0.6793913846619783
Ni 5.182810189985491 4.749327358550501 11.616514737469283 0.5628569052076435 -1.2517194625848507 -1.7046036007160772
Ni 5.769408306778192 7.975244413415568 12.632670794501887 -0.618527202186754 -0.7093529640210751 -0.814812416608171
Ni 1.8215257370143967 6.639463719604942 0.24806330152925965 -0.27564719859051234 0.45766818978343116 0.7370745983060597
Ni 2.588783351279427 1.443213117307501 0.47220557714320666 0.7586258421142742 1.3712310223896385 -0.014245197065104501
Ni 0.499313589263929 8.899879350478676 5.1397690643376945 -0.07496205532918704 0.41635004776093454 -1.1969665352136871
Ni 8.88415797569864 2.240486743652567 1.45133461594387 -0.08659346892052829 -0.4265943511967621 -0.30057250107728234
Ni 6.893413903551837 0.7817230965626388 4.6764865033196426 -1.0831977914299473 0.18995207311453738 0.04035140723385308
Ni 0.5793671931438711 7.4337112084923485 2.665281925209109 0.5479367935627015 -0.9138546528150131 0.10764180495039527
Ni 7.255169098490393 3.7370253102139728 3.6741897923431264 2.486562975349969 -0.1873693999890257 -0.04154259932847684
Ni 7.750910391554304 3.987540419208928 12.610831714807444 0.05859569815602167 -0.8681638356461178 0.05726978025574652
Ni 8.077905899479195 8.901987650449179 7.040207015248003 -0.34303581244781567 0.3813496204263497 0.5185830229909327
Ni 6.6948156813304935 0.8093781761757071 0.3107179781526362 0.10450660175552326 1.2669771600748696 0.4832267549788259
Ni 2.1186051953578544 6.360459298508591 9.36022210528786 0.15175242211636444 1.1785533228138219 -1.2179883888809926
Ni 8.86641917594683 4.610234085496603 1.7162397809874894 0.18325126405559408 1.0330751637419433 -0.2957426837888068
Ni 6.32915286144661 1.8536863990644257 7.02719916793 1.4860911994653438 0.9981688387830616 -0.2360385830599548
Ni 3.1445475810035357 4.742030096152599 0.5131175015707937 0.6695229765083307 -1.5776278713237604 0.30086792083051406
Ni 6.224301287913625 5.531979197600146 4.75865749466996 -0.5328850414359015 -0.11969719345303256 0.8959548897164569
Ni 5.615338833933832 2.953601033675135 9.192929411378513 0.16089860739200676 -0.08791578727637762 0.1787304933671051
P 0.08617040004435982 5.628070421255699 12.846210684014176 0.482713048567201 -0.32515893216739483 -0.3158741644313592
P 4.076034492970776 6.292448449460154 12.677027790131273 0.7724810028298115 1.1730478196145604 0.9779620248178836
P 2.321483630019311 8.514796543366506 1.47264207689575 0.71455739104015 -0.7494292632166706 0.9322742929727815
P 6.456141584669867 8.139528236117016 5.89886701246689 -0.41644466435726984 -1.7460284435197673 -0.2880160045685104
P 4.564224073640345 1.1006688971001568 12.71345775962157 1.238095958264145 0.3400589892076789 1.1842783982230571
P 4.028406906137151 6.188432925915472 8.148229517245273 -0.1989445064211348 -0.3470755297348281 0.3043579362616436
P 4.513661224347788 1.0633010976229826 3.9139044077391953 1.0009875391787793 0.17625863478784484 -1.2405832434623731
P 8.843882176262152 5.5873947718248065 3.8203485965481674 0.6164011569826867 -0.13761135472929203 -0.6318586291883376
Ni 1.3658875808893893 0.806632842464118 2.9459220962825743 -0.5148850053140552 0.9904231333993716 -0.7919313982449393
Ni 1.599518115120583 6.5683540330998635 5.014651457338259 -0.19065886937357487 -0.7142084923411636 -0.7905851686296901
Ni 5.958491916632657 5.595564434210503 9.031488158637291 0.886731571345976 0.6707887305946318 1.5131736575044326
Ni 8.928132387583378 2.6915084498421646 10.170407251452277 -0.7762823788537727 -0.4585014843180039 0.3628839575219944
Ni 2.4287252160188566 5.224385501903797 6.816347360880101 0.4726196688869409 -0.42308890914666497 0.2451189480946682
Ni 0.4669593634666083 -0.010664181100793715 9.485832254780405 -0.26501645834954357 0.9018496579343371 -1.1845835881683018
Ni 1.4125246302368741 1.2325466952550084 11.335968167644507 0.5597201593508747 0.8459451334572334 0.5955600518676194
Ni 3.9191024576664675 6.701086056242763 1.8329650818543446 0.4972986596908596 0.616223750864558 -1.2830002749760032
Ni 5.5014906355267215 8.03636693756038 7.880464515991666 2.045557848044516 -0.28157333426696024 1.438446343893871
Ni 5.296567513393873 3.1090518065001693 4.889001322846274 -0.20083478146531217 -1.4689545397850572 0.24026933331185069
Ni 0.9510795616931134 7.670331530181711 7.199373666771047 0.3751992845542377 -1.315436798238154 0.9486007980469471
Ni 5.200267277241243 4.618112947886368 7.08867428706988 -0.20552241674896862 -1.5057619384213938 -1.0336366926723681
Ni 8.339516845818904 7.160141112319963 9.013585783887772 -0.8008909214310723 -0.37896003714825055 0.27506484372448115
Ni 4.625401122784396 0.2642445038028628 10.73385587106887 -0.02748560701477847 -0.5643088071628217 -2.006675054936389
Ni 7.798565240887548 7.419407483692476 4.350386114132227 0.36116311817614577 0.2683619777830088 0.3392588619038867
Ni 7.126935387784555 6.185016025963279 7.027904357920133 0.8638816633309961 0.4165631922130052 -0.916743287216718
Ni 2.0232409716921285 5.38773331211834 2.6651756014605965 -0.2634920512852172 -0.23049836996801593 0.23083338470993148
Ni 2.6638915377285626 5.317723213097876 11.368474154689704 -0.8996932737129667 0.5932018360480881 1.5735449595036382
Ni 0.8542504330478836 3.4799035888114527 3.9745007656413707 -0.09400158845914133 -0.9270899205583647 -1.8094961250561097
Ni 3.6998029107347645 2.612129138452788 2.313723813877881 -0.881950605017565 -0.6503942260986798 0.7666829080907958
Ni 1.4502741047087082 3.5189525757651046 8.284466589089133 -1.1856547097452934 -0.24958135474139595 -0.6499640805397967
Ni 3.7714760222319605 2.513366189834615 6.980860188578345 -0.2824068859118491 1.254766991161923 -0.2780442380677792
Ni 4.497539999573346 6.718952080992793 6.005457024725552 -0.649904430946455 1.0963001331398605 -0.4782951220051634
Ni 0.8103887061615683 7.373570134333803 11.369391992176862 0.43924443586060485 -0.5830351799277314 -0.2377907898643711
P 0.47048258716731367 5.602807171609166 7.8618305975023794 -0.5618737153587677 0.36664805255011695 0.22908503456025706
P 8.776543802204309 1.7077502386062695 8.084055410643154 0.13101390401743243 -0.17689575415121148 1.109967603324624
P 1.9173261606740195 3.6013489371122684 10.612608630265283 -0.30041437823286327 -2.8105214594513592 -1.3632413193159423
P 3.774692997186951 6.091251202275175 3.9470883222749076 0.3103318944568913 -0.9265042232582238 0.20803567008912557
P 7.118711200399623 4.237310353214309 10.393788903326866 0.005895282438512428 -0.5526087451170741 -0.0007294219668568083
P 6.50366920900489 7.900517901961092 10.218448319530118 0.10443178265352983 -0.2332509930124886 0.3805196683258866
P 2.5724349390081636 8.333119245908415 5.888625400110183 0.0721469544778951 0.7911461833394826 0.2322361785947291
P 6.792115542469137 3.8076897092252824 1.445442281026312 0.09332873076183282 0.3979625463926824 -0.556035768520752
Ni 5.027223104662364 3.2626305543513956 0.17804502375890985 0.47344962098740395 -1.2794105007422159 0.5046702695645825
Ni 1.6487632769315768 0.9633567740213387 6.998417238332698 -0.31061265892210377 0.8494729441048338 1.3048952752768819
Ni 7.0733827510338285 0.8023717137737368 9.197743968811148 -0.6409672763578251 -0.5585528785156509 0.8407764447721003
Ni 2.8082192107092236 1.792327599922918 9.120933693635829 0.3557602019930195 -1.3416772199919216 1.21109294731274
Ni 6.061544165190816 2.0368449590017903 2.5347781570350327 0.6485276052035863 -0.8141917523050364 -0.17416807080740326
Ni 4.381138213701964 6.708074343644987 10.541304471262924 0.4978457904435814 2.1340606181726147 -0.8057644474732897
Ni 8.326212746005048 7.320181072580787 0.5407053336848027 -0.8863549047328476 -0.05434566463041608 -0.0700954712655051
Ni 7.955133776196942 3.985595694236138 8.16396452327512 -0.5400913293763537 -0.4577381237894181 -0.3376948598508765
Ni 3.1795708055135132 8.420413769687048 12.604500453646029 0.47144647451444616 -0.3834890353668557 -0.6017507540593636
Ni 0.33387656282861633 5.096015478699867 10.076758747762545 -1.265462523202556 -0.07958284193065004 0.78186321537566
Ni 8.709241778145953 2.1203227328338237 5.953531959202054 0.10279373282947457 0.43566854558388846 -0.4247174458890234
Ni 3.88016252071129 2.5221538022116645 11.287474542073 -0.8558348817671196 1.288128083120872 -0.23408145933358399
Ni 1.2058021831292 3.2246357173829945 12.687243048738347 -0.505163150040601 1.078420167535646 0.5186509001143906
Ni 3.2515528920063868 8.214363797569964 8.225904922408489 -1.2130374726336206 1.4981638143591618 0.36743223901430916
Ni 5.399119949459026 7.588062393832766 3.621732199327079 0.032289713271641166 1.4304098467426396 0.3971984145331482
Ni 2.8447509601980947 8.136074986165331 3.6313485916925328 0.9170248230128787 0.42327557123617426 0.31521956156649583
Ni 3.5695972125565176 4.2671809652963795 9.272239657768854 0.6199845034585709 0.18073235428848228 -0.21481386935322358
Ni 7.561336056706704 6.269566124780309 11.545849429707985 -0.8766885852876772 -0.09024263563734136 -0.9374990317068306
Ni 0.8797790376907039 9.078784960475545 0.09450454617775386 -2.115792673101363 -0.45057888703681753 -0.07133165766545135
Ni 4.462725787560443 0.2648969862937337 1.6886019676241797 -0.1097375111371594 -0.5338841721243773 -0.012831861657345643
Ni 6.086453002342309 5.658050083336244 0.26651001752116515 -0.14287388867981202 0.42192137120112494 0.8708794348050678
Ni 8.160347698325722 8.869472575904108 11.790165955039667 -1.26712191318285 -0.16641953721023597 -1.268639378268641
Ni 0.015618686031473506 4.604799760572637 5.82604705848574 -0.4044250141885745 0.8440785125621398 1.2115547174405068
Ni 8.068418549611936 8.998860399093799 2.29187110293363 -0.6562005483678118 1.180263363526393 0.3200169829551392
P 8.518531505814247 1.6563876893249008 3.665132281219853 0.5306034444905765 -0.13593499546813362 -0.4623092880998683
P 1.8327124493578795 3.3743795402878765 1.6191598373457687 -0.9743658228261929 -0.3054977062930416 0.38741845232824895
P 4.7314795088002155 1.030440698082744 8.265181096858962 -0.0050609594626751546 0.09088721119987572 1.2481278885788505
P 8.59993732967527 1.7128574135348134 12.506382717518829 -0.7376248143825748 0.6303159672915661 0.22400736292703355
P 6.271710774750302 8.036357850060508 1.4761534868466204 0.2623245133396772 -1.0502922989511783 0.6806296279444537
P 1.816772974580894 3.10290865658612 5.9766614638784405 -0.0286819413157248 0.7186770696354784 0.5968975397321205
P 7.007671039453225 3.731727297788099 5.977898272611136 0.14562136951796212 0.9193514142635263 0.933636977648263
P 2.334587804835966 8.677935341083973 10.394374138318678 1.6857687273977613 -1.2926442258236703 -0.630745855740133
