# total energy = -340857.86417268956 ev
CRYSTAL
PRIMVEC
9.39508796658907 0.00000000000000 0.00000000000000

0.00000000000000 9.39508796658907 0.00000000000000

0.00000000000000 0.00000000000000 13.75066090915112

PRIMCOORD
 96 1
Ni 3.5442405131328725 0.5069702133824939 1.8950061263580706 -1.082343413849452 0.7026853221929125 -1.117215800246605
Ni 8.727632604781983 3.6987991030151472 5.133245810359422 0.10283435625942289 -0.009923943981931298 -0.8578115458775162
Ni 9.450330945886732 5.915006371104005 1.9379632864406628 -1.0213527330986927 0.06132646682362341 0.1267654131537236
Ni 1.1869002356700227 1.8674710029475199 10.727688026687476 -0.9053558713153828 -0.022136683998039294 -0.3278246519250161
Ni 2.9745411773307096 6.713551256255902 -0.16185387558184242 0.5980581356991248 0.45522975554526757 1.1400160859705721
Ni 3.540980417656053 6.03288653810011 11.533201248482474 0.10559212151021816 -1.6659606915328986 -0.8843134488227866
Ni 2.645008471712766 3.2012258564796685 0.9615806627826826 2.3236450235350885 -1.628357536468144 -0.4659800520832362
Ni 0.53286401494924 8.076599993640274 9.92214661962899 -0.1399495159441654 0.1520871797479639 0.4810729418606166
Ni 5.965514363275126 6.410071129189021 10.106969605936271 0.24928593498816423 0.3731506295553251 -1.4634876031332151
Ni 5.630241258993389 8.030676804329925 5.750402553314483 0.1678593549805561 0.10267134831899737 -0.5886931495444572
Ni 6.691970739511656 0.5496643110058617 4.458157076830409 -0.5295189531771461 -1.0428450986445137 0.7790455434212066
Ni 5.384503341726306 8.89526915692285 2.3853686429844467 2.99378892145687 -1.272868328748324 0.7431264609270943
Ni 6.668144796776172 4.534520350708175 0.3290948945250912 0.7001545853512587 -0.18678910200552346 0.02114269551588617
Ni 7.902555991599721 7.48779104919301 11.286363166430561 1.0595755240253173 -0.09823876646894049 0.5746487556362491
Ni 1.068230881296245 3.8954852667246738 8.7188397420824 -0.17710015685253372 0.005003366751862351 2.2700100118184516
Ni 8.531998690909353 3.101337282676961 10.26856699562037 2.5840437806069625 0.3457971772430367 0.4228037738060783
Ni 0.34780521193744 8.590013358256204 7.544203854064941 1.3509501606534153 -1.1054946551549347 -1.362582088465389
Ni 0.4692226295013315 3.4462121667203958 1.7871044821456252 -0.880277073969884 -0.35346754930410096 1.6979742683250176
Ni 3.1854421089261935 2.546641902138429 9.354657008484313 -0.012945247306758351 0.20657502638319908 0.12253260601929865
Ni 5.076908166190128 2.8514279464136023 7.7003699434748345 1.4110705229840794 0.8771683531375732 0.16210265500243695
Ni 6.9120694620921705 4.099931772981326 8.618817758032513 -0.2750633010625843 2.59154060320464 -0.7450198212950653
Ni 8.141275778258205 0.6976529159690024 11.466909508757878 0.1191012117402465 0.8778679503077591 -3.0246976952205844
Ni 8.423795464377582 6.897788928591408 8.368390752429752 -1.1209104754893728 -1.0870014814467537 -0.16317557635164154
Ni 8.497960287703258 2.6108949078040347 7.844765866851993 -1.8897852490251645 -2.361901495913126 1.3939171511332444
P 0.42265023962196707 1.6090872974619979 4.308439775706649 1.517355299685948 3.087874584989385 -0.8050625363102587
P 7.69381593020501 4.318499096245641 2.772972386476218 0.47961795458164497 -0.6380925259131913 -0.5535163445330079
P 5.70259283036798 1.5388214355855445 1.7331607063552747 0.018425039474406976 1.4914064410306702 0.13474945980046468
P 0.5750620519352126 1.0370861651416199 8.488942882404551 1.6577478167048032 1.2345192966564804 1.4861565054856405
P 8.52657772523176 4.493783249879681 7.1222507299599185 -0.013672612391086131 2.7163887447309927 0.3238908640882487
P 6.697870854668549 1.9226577488577066 6.184318442752743 -0.25229078325275905 1.027887963114049 0.2650051454956339
P 6.39045418580113 8.848650731113121 10.471952796461077 0.9256321050659155 0.5283722411672127 -3.9781344812035933
P 0.971950021220046 5.3646891014939975 4.627605941413578 -0.2408267484772175 -0.9673153437373149 -0.6825939507596761
Ni 4.495239488493246 1.6593416222617237 4.141314316343703 1.7034787430830145 2.2361521827287425 -2.285244312269703
Ni 1.833827193430261 0.47620975632009316 5.5956250578857825 0.37388905038324644 0.1088013724761352 -0.2283782383012196
Ni 8.071188423050511 1.5927210544630968 3.003418858792089 0.2415610555400807 1.2429761691745818 -0.7899480492663234
Ni 4.84438913749908 0.820706957832784 8.707550604546533 0.7956427856582555 -1.0622196465163833 -1.06925495609661
Ni 7.008613384627593 6.984007649602266 0.549930191991435 -0.6693247444545957 0.8560300284970612 0.5198829727492787
Ni 3.576456269300055 7.231399102327332 2.2315532045494813 -1.5675532606965776 1.5543542455078005 0.40518348962115375
Ni 5.909557220162926 6.103283931206175 12.28402942205738 0.5385502101414789 -0.5442639726968046 1.5723915626254854
Ni 0.8491787714999309 2.116243533583515 13.500165292035083 -0.20851646638028604 0.5637123112294034 -0.876819968659219
Ni 4.731178329154213 4.3986110101673574 9.888389129548994 0.0715640853912316 -0.9672086429561214 1.2479499682400896
Ni 4.3891595518109305 1.2920218733937339 6.196116794048966 0.29306128030190176 -1.6461367148284358 1.4200215615297802
Ni 4.238189885479506 3.5078439428815846 2.9494346841240713 1.3190671959018898 2.3317432271621907 -0.8573495186394332
Ni 7.985730704153838 0.16220149383153204 8.778174419269288 -1.3966080677018464 -0.18515670860842304 0.7925248088545641
Ni 2.0079745414369383 6.817723990108838 8.355905620213196 0.4901242534296075 -0.18241128465280199 0.2040977684873001
Ni 1.5375061232894216 3.885244620990574 12.087669267895533 -0.19783816073083346 1.0310259945223985 -1.1552210758457846
Ni 1.9178098835377106 8.482918752088308 3.6527255922995265 0.6503998825256347 -0.9537543172234283 -1.0167710272652812
Ni 9.20503459774763 9.11803608444693 4.091509076742224 -1.999942621308562 -2.0238775348576046 -0.12537418923315183
Ni 6.686822231381117 2.737061542265713 12.373463142123475 -0.9071019074722119 -0.8518856673113845 -0.39646025081554304
Ni 8.852502717123196 0.9344908665352476 6.131928614489384 -2.4626776840919393 -0.6444264385510192 0.27835457021934645
Ni 3.142187124559408 9.019669514872593 7.254271443648126 0.3140664217986591 -1.2824390031558945 0.9676650137672496
Ni 8.744045823220029 8.210686687142179 1.822375520874945 0.07661090378651968 0.8657032899207671 0.06779484815678646
Ni 6.265302220825032 9.064521664170384 12.447112175127312 2.6726601934947904 1.664378177537127 5.724822155573915
Ni 1.5899119232020913 4.958793121998288 0.5114873716108933 -1.0170710750042031 2.1926041229344624 -1.8840861417578583
Ni 1.2979031983749691 0.2686177746581414 1.0461787311429611 -2.567660197042617 0.9869040645025198 1.9414471961758304
Ni 1.09853003954622 6.696104578156613 11.982367244485497 -0.6259237517611415 -0.6324078168235883 0.014743219747445578
P 4.31117092773867 5.847145651711891 3.723650989341607 -0.07970265533796594 -1.1682367713791622 0.548699639870655
P 6.6367558083379805 4.1972554878065935 10.763769861496478 0.8000733106257835 0.7467098074029785 1.0807755551417
P 3.9225337245856595 9.19362896112268 4.040659103374112 -1.1090648890046964 -3.32667658972709 1.187343410301626
P 4.471197458737684 4.815518032599182 13.505445331395233 -0.4322919158021716 -0.4835324591447027 -1.0480253572938725
P 3.107359533975638 2.9537874283154553 6.673292365397926 0.11813859071666105 -0.4190831304213815 0.20220157990585177
P 7.395907090220994 8.454554981931201 6.847182287998077 1.8707503438809008 0.17779281204418412 -0.19571545796087586
P 7.0749896801426555 7.904857788117935 3.3147758274951795 1.4644317122140391 -0.08711643130353383 0.199962663273004
P 4.776152614593788 8.096564555277853 0.42703492711197116 0.18492093844853313 -0.206696896673044 -1.0589312055730988
Ni 3.717260450600016 3.4187691151705737 12.124988435771673 1.1186700161946284 0.1589931628391778 -1.0645855756453988
Ni 1.3148613319071258 4.99065186482795 6.7765180743976545 -0.08675904796411511 0.8836246502858782 -1.1459674184580007
Ni 3.5443062787476785 7.101624754139144 5.593053622346861 -1.6930112678927876 -0.2959686837566838 -0.35738051120526193
Ni 2.751764854718801 9.091936530456717 13.363703520329894 3.394380163721651 -0.16772694316774983 -1.412209264574213
Ni 2.1155670872597945 5.09461790674864 2.7977509911176086 1.0567151717583865 -0.08077429113558993 0.769416762082191
Ni 8.677237353664815 3.9832259919639035 12.417603143763795 -0.30009967520592185 0.35630064787752186 1.2286957479961678
Ni 5.880084829641941 7.856388530005805 8.193606417468239 -0.8041006866176217 -0.018474661765419797 0.8392142424913032
Ni 2.4923946650111874 2.168423851388278 3.039570217251028 -2.9211732548726723 -0.362695238549956 1.2301371084283848
Ni 4.920207496282739 5.606311970291782 1.5537417745674935 1.194495447965375 -0.06178977961328714 1.39842686607814
Ni 2.6745090474972377 9.651855579828425 9.577733973906765 -0.6532561210275072 -1.3971127752524068 0.2691091403616785
Ni 3.524398087637075 4.580950874761315 8.086556907721924 -2.321029440289112 0.8875394119592521 -0.9879070518457375
Ni 4.67233689407837 8.132322259556739 11.55303052085531 -4.153712544984646 -2.0424979781722694 -0.6524364533396892
Ni 4.55626997903335 1.7782270636555784 13.568711852838746 0.3431322288163639 -0.6169593434790019 0.4744078711356153
Ni 6.181112838785335 3.6126649377947535 4.777598518610741 -0.2797910455555569 -1.244812193942056 -0.17404465785566156
Ni 4.820412873358325 1.0057253619669173 10.937454031673163 0.35017576592670663 1.442859128249586 0.7063959382752802
Ni 0.8903001314206487 9.198138603280816 12.114826708775341 -0.5285257360259413 -0.0882950249926673 -0.33631289190168534
Ni 1.0484824066787422 2.4927328881730473 6.7768065035940195 1.6130365898403574 -0.005540984422887232 -0.7341877636765678
Ni 8.809285313107727 5.446961885616488 10.368438658264985 0.2967022194885987 0.32254926245868965 0.046688662305790565
Ni 7.952988823068205 2.5225247116802323 0.7994317814429954 -0.6060259843959499 -0.5932144344535784 -0.3747709387675675
Ni 3.171762861046515 4.5338626945601135 5.1893072389465305 0.2948420263514083 0.2649616938522082 -0.6847181961915304
Ni 6.207851258747948 5.399958261205751 6.46485952337524 2.202095350254349 -0.659545810690961 -0.380262558009758
Ni 6.553167711919367 5.748422068800036 4.035213710468163 -0.8267577618955051 0.6735009873194723 -0.9076284693996434
Ni 8.621148679323 6.746800472084323 4.4564105300029135 0.8583324513779927 -0.1470814990032564 0.28385261721944016
Ni 6.772167209223837 2.1247460880691666 9.72793230352739 -3.084136715213508 -2.505092915833357 -0.19453146495510368
P 8.650743205985766 0.649629924528771 -0.3551080137072712 -0.09262527693690499 -0.4041375648551427 2.627174807468482
P 1.9810012442785883 5.1593970373326945 10.322978646784627 -1.1322611246155017 -0.08436380825906116 -0.6175370703593429
P 8.471268843179791 6.01512042701462 13.092224001918902 0.10250139840003637 0.3364566165684012 -0.4643026643808133
P 1.1666256361340706 7.3378454474349954 5.954407490443151 0.4857227819278022 0.4527941495205815 -0.8086037166942976
P 4.597448648989828 6.193053995416565 7.335853688815152 -0.8759730472778914 2.033199069368847 0.04202416695058569
P 2.961867203848782 1.3858036401072995 11.835633823256371 -0.9812926318530132 -0.9362394482681168 0.5551230268984956
P 1.5446557851276328 7.602514466678419 1.2745366754343452 -0.3773880646754404 -1.3160896013308043 0.9630645388807607
P 3.8046535575895555 7.242372564912129 9.709121458675268 -0.1539424877891478 0.9271179455828227 -0.6494794275938943
