# total energy = -340863.9770912972 ev
CRYSTAL
PRIMVEC
9.27803328057882 0.00000000000000 0.00000000000000

0.00000000000000 9.27803328057882 0.00000000000000

0.00000000000000 0.00000000000000 13.57933954410578

PRIMCOORD
 96 1
Ni 6.172805448143489 8.3861081263841 0.18591508690781927 0.17907296430818836 1.595218330712014 -0.4520022497469054
Ni 5.980453261730892 2.702783881142859 1.1589367679891822 -0.887510872714162 -1.833349020414307 0.20940503963282647
Ni 3.9437950595229574 1.146718525934062 6.111531460611844 1.9756133005345784 0.5561442690741583 0.6195530723481073
Ni 6.336729740519419 6.878158651878359 7.336360821110301 -0.3281193003472994 0.4213711551246098 -0.9990041902001633
Ni 0.6008333751802755 8.56225158861848 3.107142839714554 0.6220192745004127 -1.4609270414948905 -0.8679193237354794
Ni 6.62574975590331 -0.19749314466511622 6.443858552038474 -0.34285480678526115 0.7103474667238605 -0.30845961713484293
Ni 3.848537491613535 8.625527775736652 -0.41049359419083514 0.43739401291542734 0.7152461895770585 0.009744223870957412
Ni 0.5829842947143024 3.5255134841786044 3.486413996238224 0.3302103785483732 -2.2265961636091913 -1.8250055335456183
Ni 0.4723019964406635 0.8047664027601603 9.01888113120577 -0.12521915171252626 -2.599000916137427 0.27304524219129106
Ni 7.810591720674404 3.4991917037014413 13.725045692513051 0.6611185544947196 0.8731286358505608 -0.5387517846293238
Ni 5.87229922753199 1.64067174088777 10.028084358754102 1.3406153543863106 3.512036415485255 -1.3107257659157299
Ni 6.43910355997131 4.418143790109995 6.498827188138228 0.4389700991532956 0.3347599455922686 -0.5318843680855291
Ni 5.648680068892379 4.93745387007748 4.194875341129191 0.610927021241993 -2.552075712340798 0.08700355987475339
Ni 8.535289623843495 7.696230682196608 4.872728454157571 -0.7181291675518083 1.4876215200669411 0.892254043826102
Ni 5.348192404347482 4.088421042631175 13.073577450588287 1.1472712248710886 -0.03820350765291485 0.5585310241387801
Ni 2.1799481485206957 5.718729220320851 7.272822993453019 0.4892878735712412 0.12362326798031611 1.5565733646463062
Ni 2.5019422942591283 2.512482140089956 4.827767104777123 -0.09136980726324909 -0.0026734330671050735 -0.3483741939415936
Ni 8.440681518265198 2.546699526906937 9.41713607166822 -0.22949666817637895 -0.8171724321999152 0.8201284295044458
Ni 8.759317015948385 1.8414947717048966 1.8397560682641425 0.0507692601330674 -0.19814463622765874 -1.5810422963219481
Ni 9.007717801537062 5.538586925733402 3.875462344255314 0.6986070383584807 1.183906102485303 -1.3480810666357366
Ni 8.669709770319749 8.019115519132013 7.548455734585764 0.5440279454265985 0.27197951993093805 0.11547724183441403
Ni 4.923685268657631 2.848838681379551 3.21042776203668 2.863247329090166 -1.1952966037104318 3.0671481510753114
Ni 7.124434767840928 4.5622780374532175 2.0700748947509724 -0.40019632081920753 0.11031138136275839 2.2949232301203635
Ni 2.0378179563706578 1.9615339665633853 12.588074668365845 0.7689722183456047 -0.9171508070677817 -0.7414660425055359
P 1.710479663450397 1.1834502597758272 3.0055557974866542 -0.031917674644203094 1.131811952893225 1.6466727898375642
P 7.296004159657528 1.9313710802992836 7.615701064350439 -0.8527220471697508 0.25519972936943786 -0.7243000722492107
P 2.0123497549572593 0.6897002337514283 10.562200324264575 0.9086247718746415 1.7552008540476547 -1.381453471448595
P 5.311739011504771 7.6538764601739615 2.0395214032848656 -0.2021704695576002 0.022944010390683067 0.6548324643756915
P 7.683334215907128 2.8574115841504004 3.4945749543304734 -0.5063723398573537 0.7330932450608084 0.1904801777038655
P 0.7220935592212789 4.115030442140693 7.198258223216568 -1.6020770055050602 0.36226123633633095 -0.0931361551350525
P 8.158137570125952 0.5647251251763904 10.726741605855073 -0.1871166605482713 -0.19152096026355403 -0.04193752077405036
P 7.648606537258549 6.1320563258820515 8.76345409099765 0.036169507942021575 0.24465563530500445 0.04413427131505303
Ni 7.0465642343390495 4.0219996022236995 8.77312272950144 -1.5788362898095645 1.8354989768777743 0.4802324482371923
Ni 0.16217816650853367 5.171816991280557 1.4303795492828422 -0.2571080021357443 0.6184017323524833 0.004371389594818279
Ni 3.1346021070745156 4.094785773476199 12.858195329914 -1.6039559676953279 0.5816259582850305 0.4543674075449723
Ni 5.82613173382231 7.0240928376821286 9.842916153527076 1.2403739556650444 0.7027956225185314 -1.7803745250998049
Ni 8.707601258324237 5.87890518724286 6.483645542246517 0.9338766044628948 -1.0519799710662463 1.3229763011483087
Ni 3.6545152592066166 3.9188557060077605 9.72845584009295 -1.5308062829845313 -0.06555027509698388 1.1169075249775668
Ni 0.8246260330426302 3.1380999256292883 0.4446015002148555 2.030543634023871 3.3230857870520385 2.081694960086705
Ni 6.703620289405188 5.42310324522609 11.718480791319456 0.6764670119263317 0.6752827618102435 -0.4499052580085607
Ni 1.385989726753784 6.660004254853499 11.201298164388069 -0.919830410782474 0.2549289922065545 0.9511641878987489
Ni 8.4958023141111 7.656270192765823 10.07715958810056 0.38726212925604275 0.267764453408326 -0.494692075305948
Ni 2.8585342261799163 7.98962065126564 2.1307337486747095 -0.44737966337322954 -2.7868660248159487 0.61933504280003
Ni 5.047148057804478 3.108066931831412 7.9174885813609155 -0.45689351640093573 -1.7896127558686212 -1.0293087547209758
Ni 8.325967914521932 7.7542183903327615 12.38814603995901 0.29943967302441976 -0.013855417825853557 1.1244128322156763
Ni 3.3924015403979015 1.5487449869336887 8.873038797931688 -1.9350564621581383 0.5530512319711314 1.5574771074074982
Ni 4.5569431683046915 9.207789311656745 8.306265083002263 1.9714853944091335 -3.3537104539164306 -1.232643419790006
Ni 1.849269763611792 8.084052474211202 9.386189191590118 -1.1250581791091592 0.9346921583856548 -0.14461272574778963
Ni 2.610513839956611 5.1763261154652245 1.845717204660539 -0.11824272039469313 0.5397691701502446 -1.2560070342166112
Ni 1.7739692453345088 8.80530822702533 12.157663920086069 -1.4294215146874414 -1.0327339783524407 1.529507875888082
Ni 4.340301090708022 5.74419742173425 6.212520997495109 -0.2410625186371074 0.4895038462367892 -2.1592648853523846
Ni 6.943420338123111 6.362429892765363 0.5397764936278917 1.0553524870829052 -1.800169705448861 -0.649760706279739
Ni 1.1463752387018962 1.8705257379061808 7.106326830245835 0.4783827966229632 -0.1566678571401108 -1.0394720684072225
Ni 9.318207185981281 3.878653987711128 11.481521676398538 -1.2038457788320236 -0.2556699841376371 2.068033660549529
Ni 6.986693085442635 9.267669738586461 8.858454657384613 0.4367149845705317 -0.113021838315386 -0.15683729283843958
Ni 6.536105398141467 2.1152617003406537 5.3937410532359324 -1.4849290608364427 -0.20531364317227221 -0.8009546847894722
P 1.934766840487737 4.664716803138221 11.107736620966215 1.6685947867216362 -0.9437918066940779 -0.8883835051271022
P 2.037196328139438 6.264565197498139 3.544615099140318 -1.3749696634964643 1.0258809599863492 0.9681800057304552
P 4.778845890783472 4.6008932120552455 1.9764317046360609 0.30258336085972404 0.6223116089298508 -0.43883923000238617
P 7.304679120794697 5.823710167130544 4.9435179926435255 -0.8456049765089954 1.2812766074166773 0.713655705161487
P 5.175203473435709 0.7215433718464831 3.951166456981225 -0.4347501475346771 -0.438397000258645 1.4566124732799368
P 3.4748925344840678 7.0072810413392945 8.911848811233053 1.0629850639274983 0.34019011546890443 -1.5605881422326544
P 8.354414364625205 8.909732491836916 1.0301019975606018 0.27265854827583363 0.06693275726680731 -0.3395982475211764
P 0.3983171032855731 9.309207493678551 6.069000955956463 0.16674966685614506 -0.12347414399696155 -0.4881301058177142
Ni 4.876126069952684 9.21608387342854 10.704118049452001 -1.9329648697364321 -2.8066084975501986 0.6643193208202042
Ni 8.629081262491233 2.997166599775181 5.814428422615439 0.6308934370615908 0.6082834129715587 0.21800435126606327
Ni 4.465137028783533 6.2908776999419995 0.26009852997556787 1.6521662088519677 -0.7083394351548963 0.5459125640438212
Ni 4.71290690810769 5.407701709945128 8.382010019074702 0.8418537369966791 -0.003817573973877296 0.5395796798472579
Ni 0.9451254183528873 7.556355052138905 0.7245837833594779 -1.172944718377793 -0.8723303083189816 -0.18251695699273082
Ni 4.154499195806484 0.4260556394479184 1.887148262369658 1.9012677957434678 1.5495069447178282 0.445535153965323
Ni 2.536206071242619 -0.054862866520112435 4.759069762800719 0.04846735147276814 0.47282715691205673 -2.444289925613371
Ni 3.8789879969099923 6.228204584988445 10.865399957943584 -2.4133670107822693 -2.37196273680387 0.3526982752382442
Ni 1.5892899924624873 7.263475374901471 5.564528306845192 -0.9678843288669072 -1.8753477334435962 -1.5125578782973048
Ni 6.806560068888487 0.6118519675294748 2.500119160715328 -0.14419080771902265 -0.345201966861199 -0.08933863576583324
Ni 1.507773191873008 4.674421625971888 5.184944480599253 0.6312348795614097 0.8854105385417075 0.535451002390865
Ni 7.538745344932117 2.374239443893366 11.802524000377012 -1.1560571985938346 -0.03532901431859722 -1.919916006972274
Ni 4.191165983415138 6.311818221104128 3.5090236355913422 -1.7436465735511517 1.587054049733667 -1.1826516612529117
Ni 5.706064704863916 1.2107740678495826 12.495436289257517 0.6199032565986744 -0.646217726123487 2.2999325104094974
Ni 5.9975712331726845 7.6226094879469475 4.361018939070907 -0.14450422519438338 0.6728769805822282 0.5942400475046152
Ni 2.4240439266573457 8.768938336482336 6.9799024928690585 0.2751103522504359 0.46533213408659213 2.321340286661312
Ni 1.7387498309209344 0.46581201214606516 1.0613485581143518 0.09526734254544238 1.3128104163589003 -1.3802537947135392
Ni 9.177849098191887 1.5403112546623665 13.102664084989383 -1.9264972597342174 -3.8736821297247737 -1.1556910735036676
Ni 8.920958912132075 1.1874862042621033 3.971386074955804 0.11646531677929618 -0.8589454023716433 3.3989109617124686
Ni 1.363119374664885 2.7712743229766326 10.022584340612802 2.053438793454489 0.07367650374854408 -0.6338100964877537
Ni 0.026913719001816636 5.148993029358167 9.58599534995737 0.8358993191854571 -0.2179452158933537 -1.1444453253865192
Ni 7.5637589227137285 7.4080364117765765 2.6350978447963502 0.7216685481636346 0.10734972763127319 -0.9792594034730683
Ni 3.0513224801576975 2.9444024243879325 2.3693638373932777 -3.573875817389555 -1.0884289579218998 -2.111838316439305
Ni 4.004872352748605 2.0848761412773094 11.476008669010618 -1.064209937473535 0.5995774005571287 -1.089514991897227
P 4.5098942614313415 3.4134626759929523 5.678866150239735 -0.15225507278439585 0.07421437852988508 -0.3755612958793468
P 2.579701491361385 3.2863628977918053 7.946873968434327 1.412802932294154 0.4453438638901233 0.12396728158329619
P 8.726816065292233 5.336854647652701 12.920958441790583 -0.6358708356715242 1.849796367337053 0.7348675633524118
P 5.2574903507892365 7.3302586586077165 11.799671932940042 2.5125308601686407 2.069323583005546 3.4894742139140225
P 4.5360490373090725 8.005578868544708 5.956875923504397 -0.7258093098048854 0.35318961305236596 1.013991150527299
P 5.35795289538096 3.766297004426517 10.978923190014228 1.5421155373497635 -0.3888729253865883 -0.7133327746044297
P 2.602775960182923 6.7478765082547 13.194650218356596 -2.0145935384525173 0.24073650275625638 -0.6239614858284479
P 3.848880778845701 1.91102435326847 0.35835104703480597 0.2842205420818202 0.3747917647031739 -1.225204704123774
