# total energy = -340876.7720845387 ev
CRYSTAL
PRIMVEC
9.16238625739797 0.00000000000000 0.00000000000000

0.00000000000000 9.16238625739797 0.00000000000000

0.00000000000000 0.00000000000000 13.41007843589755

PRIMCOORD
 96 1
Ni 0.6919709069916457 5.250734577866839 3.5369083719829533 0.4679777992395553 -0.11003653043481694 0.06890505050182971
Ni 6.658040477133139 7.534450222064775 10.629096616890413 0.8459554178698786 -1.9861807916377792 0.21438809466971465
Ni 6.325345065089475 2.324882246227959 1.9028095874710802 -0.36521723364086134 0.34512303399414757 0.41596592494863843
Ni 8.520680330212938 1.1379134147600125 3.7699756594253127 -0.7330042848914279 0.5085287240787243 0.17990703017370951
Ni 2.4240834036237 2.0323913856438414 0.9708611212251361 0.12462342711005635 0.14736457746131393 -0.5606652968729634
Ni 5.282069939305227 7.920553184349481 0.7503380569831566 0.5824237715959777 -0.7696342774096359 0.4565006518378913
Ni 4.752163322700196 3.9677897490108456 4.8093366137456774 -1.0216208991584148 0.48224742178469204 -0.6015445515858286
Ni 5.369424131104526 3.0585694984327576 11.666688314399739 0.8603170859081893 1.2694058241210202 0.14471299877107982
Ni 5.193194791365939 1.158757843787011 7.812390296830089 0.6914418880686092 -2.059654435346898 1.3974675874886642
Ni 7.527798329548906 5.674797306946647 3.9507834436407308 -0.33980496421534384 0.2190837003731711 -0.164202217843943
Ni 2.5007176033519696 0.6773385759340121 10.113961599616074 -0.2768227069558523 -0.10422043797367211 -0.550173139092388
Ni 8.755420669409288 8.029145787790354 5.172562013464445 -1.4248446939500363 0.8709367704055647 -2.3141676801722726
Ni 1.0215236205050853 2.801280526341707 2.690383582724883 -1.6003024301031408 -0.0085705152778304 0.3547181338817504
Ni 2.9367464090512323 6.12361680404006 3.7004303980434994 -0.5978557898803316 -0.05313158971765688 1.9720664637235843
Ni 1.0742165046080598 6.005660241713212 9.330156093882625 -1.1412810687259247 0.1328139333406487 -1.3282969420302735
Ni 5.016241623102897 7.268676880180758 3.303384797698597 2.8881548909651227 1.0779200879707758 2.412730148529219
Ni 4.1757575951887835 3.127965412916487 2.5159858040247562 -0.8108891702943648 -0.5814398104161536 0.9789632123888883
Ni 2.489832688326003 1.539903955037166 3.995586596827157 1.5392361589194394 -1.5987368853882338 -0.24021199771135404
Ni 2.99051129236131 4.932662334494423 6.139227677963664 1.1559826366021575 1.0709128034150073 -2.7429891209273403
Ni 2.4039444783483845 7.3250530436107 10.568844764019406 0.18443962793674043 1.1172595090003468 1.2966744300289863
Ni 8.717076082385997 7.246971186833522 7.770764659242152 1.3264272358113867 0.6617507887620796 -0.5643458310483442
Ni 2.352479354021066 4.456309866312602 1.765744868337286 0.04081112047909101 1.39635944202615 -0.41499944727031113
Ni 0.29288667567597076 3.847029496450038 9.360248119488503 -0.15429395759129555 -0.3047721409809267 1.041630252400806
Ni 0.8816368863645593 5.4612953793918715 11.639652860892063 1.9833772607507132 -0.9814726090743033 0.7141583558295185
P 4.752823014519951 6.355232769478955 10.84477094625719 -0.8950902277233165 -0.7867172010338516 -0.2952276918256012
P 2.6684442485248185 4.496083785612031 8.1137274414694 0.8394824085510252 -1.0125590460664626 2.8137589925520508
P 4.756405507596679 6.190318976926453 5.467972926589619 -0.7310726150863539 0.253504343944886 -0.047879597290098184
P 4.704518913495629 0.7937604385412885 10.391215411641117 0.8440594863987464 0.32224638650629017 -0.17192632596107812
P 4.078031582001106 6.16631352459646 1.9605940096884737 -0.7507240707686942 -1.5773021125532254 -3.7906768923761356
P 4.45320381732792 1.2921896767189565 5.835985673194807 -0.7576449662582435 -0.48792904555050165 -0.6149209728927345
P 8.704019681786667 5.7305321033296055 5.713203281958721 0.6931647842969868 1.2312766213494666 0.9075819324324241
P 0.2545851518686912 1.418209139065038 1.145195679459203 0.658198295524131 -0.3418855008934564 0.6654171818700734
Ni 5.042730082143359 0.8904602644537897 3.6361700011288387 1.17531450416155 0.5025331686169215 0.15497658548061696
Ni 3.199532812973579 8.665876667263857 2.663429674456038 0.0035607207680648355 0.5314372532457815 -0.39394262660001184
Ni 4.369670340651373 7.925427573906564 9.382120568267954 0.5740936544637275 0.8707776191198809 0.031161770314785037
Ni 6.009279384335483 4.931700283923947 2.324999524773693 -1.8232533267412019 -0.22310259172457705 -0.4508953898359719
Ni 4.784918854028336 5.50358895494731 8.12145224943101 0.6329271796621679 -0.42242839274453053 -0.454112868332005
Ni 2.0093479838843247 7.10702489718149 1.3675732107056064 -0.45754117728726357 -1.253635705770957 0.9972563542711212
Ni 0.9282138775552168 4.5474572860754945 7.011459374703514 -2.198459296163659 0.9240277366932731 0.21249781962553727
Ni 9.122392568921084 7.830560225271162 11.30796806006672 -0.35105276921502127 -0.20584431886476165 -0.061884910430254715
Ni 0.5656170175424938 3.554291251433512 13.587091516208243 0.2690299503843109 -0.0565357303031994 -0.413747577141081
Ni 7.88666151710954 1.877977687889115 13.29811809575752 -0.6424502886612549 1.1814213883902365 -0.1637319630757438
Ni 3.8822771968750325 2.81320995341562 9.811832824793056 0.003399769710168338 -0.5278243390835426 -0.9730620164131047
Ni 1.8597170518228259 2.2622664976694944 8.291867138769364 -0.20964878021251634 0.885022301964353 0.15002026991660614
Ni 4.788913654492411 8.162330236289892 11.815928928801217 -0.9066013136867097 2.3391194650216036 0.9854843013368576
Ni 1.428434362271249 7.124790764382963 5.911953767432852 1.5117680354061576 -2.128446357309631 0.6130456102468925
Ni 3.3331570560196204 8.90819430000101 0.2754982987935807 -1.1998525985122306 0.02675438527570876 -1.2001647304360106
Ni 4.297599009343079 3.0654229634491066 7.132029965866142 -1.1232015855163946 1.5228944843366223 0.24613736205685355
Ni 7.193600286138021 0.7577614224326835 11.363338193471535 -0.3834352993107848 -0.5886106171329799 1.7367711865875572
Ni 5.549446698806707 1.4889977362793625 13.163413607356627 0.3717825455632049 -2.1890176911347847 1.040226430074744
Ni 2.874588779812043 0.32808123425992947 7.403999829662668 0.6735015015401046 -0.23505436476981453 -0.04215349343959837
Ni 0.6734271531860447 0.10927794994250703 6.819682381507382 -0.15390006458698655 0.8289794521371723 1.133388039131093
Ni 0.5156902578892997 8.823781234231458 2.3436257400567633 1.1476987993268104 0.8887419169077856 2.754481437837656
Ni 8.562515786449103 3.6346087304887504 4.891782515158266 0.1317986047022569 -0.7694365595765329 0.05563610130706547
Ni 2.6831590410599215 6.829257991518861 7.831311540954773 -0.4536503268732897 0.3942262192787017 0.6617348479224796
Ni 8.98557981541289 7.907368510340756 0.5500812751872506 1.4288461017999459 -1.1588455599722494 -1.3611204163181978
P 6.637397620606622 3.4404394382073664 3.934972829693923 0.036423790044672756 0.2942869251788867 -2.2430741066595563
P 8.714657212380226 1.7643824214817632 9.98211394329018 1.0966042946438403 0.482051246613486 0.12518804136427472
P 6.93881264553021 8.556047141660944 3.8040771453134816 0.18831865127617245 -0.19737407661022136 -0.5685878941541498
P 8.307453274249728 5.475863573744807 10.504396538183844 -1.1422537170518392 0.45209789478450524 -0.8101528063489725
P 1.1416425060189086 8.542450160264872 9.018022909365285 0.017074953204415752 -1.0266872579377286 -0.7168119914022816
P 6.34900234673682 3.658742456228141 7.881344584290039 -1.3415090698451733 -1.296588555183399 1.2975642888331074
P 2.6734010995593707 3.764641318071678 12.839640527175158 -0.7216623775160474 -0.1308624660412327 -0.4071115598818021
P -0.22016481493430679 5.882526931078561 1.6636942087756568 1.0713473198492647 0.16179309418181811 0.29143505755238835
Ni 7.279809179639132 -0.09259141185724579 6.966763421437798 -0.05202421558609105 2.2363799824688324 -0.688396416374066
Ni 6.6386345427686635 7.234391230326239 5.761961837347765 -0.4936127261988403 -0.23145610589559493 -0.8586103876297277
Ni 6.548714882781428 2.0634976874225925 9.523341345866207 -0.8324206166082373 1.4898519520593567 -0.2316026587757882
Ni 3.2456471036517693 5.09579862408814 10.14362482553911 -0.821556934420856 -0.7047853992550507 0.39863977496536507
Ni 5.962991008315967 4.738108221984849 10.161795670218822 0.9970660926371862 -0.07522122252784465 -0.43270714896271933
Ni 6.638717004246134 4.944381026681469 6.1917547228730605 -0.5235339392383047 -0.5489927456310416 -0.760775027246793
Ni 7.623655215913942 -0.05960407215355259 9.335412554951983 2.007240697631872 -0.025117106782601904 -1.4662715936362554
Ni 1.5953180678966323 2.9451758045258867 11.09089921549207 0.40718766453537614 0.103074497294687 0.23378578247003606
Ni 7.142593281129978 0.13812022604540286 1.5625020648183479 0.5579299002196715 0.3093898422585962 0.10129323702454814
Ni 8.208032219580733 5.527319535685739 13.032423550396416 -1.208223853295061 -0.2265219018187712 0.2724250921087889
Ni 1.331166468402847 2.4215912345268453 5.76897564412586 -0.27447914642434024 -0.2922410983934515 1.5171326421521807
Ni 0.8566492262140407 0.822753894019545 12.120203534515717 0.1409159936224928 0.19521846371979926 0.6860202028324057
Ni 5.738824063008477 5.877450969020998 12.668783094574385 0.8335421318071903 0.6507372112603954 0.19347988376213776
Ni 7.728262181277124 5.20472107343889 8.290794223323623 -0.08858093166420228 0.9073618460018179 0.7936620077828009
Ni 3.0020833863661887 6.04244722305097 12.84516544616561 1.21688744250733 -0.1526944743146596 -1.0226439411062904
Ni 8.494604178559822 2.9084621222792135 7.555090329875377 -1.280428657594085 -1.0975424901873936 -0.5109859273699651
Ni 7.922907917650553 3.3756705288483113 11.25828410365274 0.05034040012576492 0.6039356775258244 1.201533585759079
Ni 6.417692757468867 2.482795975581944 5.830031954521513 0.11868109348369238 -1.2579466744414851 0.7080933805823612
Ni 8.042467897594863 3.8665637042239105 2.0211271478215154 1.2158682572141963 0.2496188928475507 -0.01394437799523405
Ni 4.453322928350931 4.401207274590242 0.4907777293071422 0.04720828225468644 -0.6632996213064383 -0.03526293696735217
Ni 7.105888761269688 7.005120835802029 2.054437003525978 0.6341844491080368 0.3511952083301565 -0.28363073101662123
Ni 3.5034858189259492 1.6287058038853717 12.098479516395711 -1.2748308517913334 0.3495725851250689 -0.1627462021237068
Ni 4.657772418156839 7.83164138686465 7.130460449078306 1.0716527669048252 -0.007122212867078056 -1.1280437441000444
Ni 3.784954328688318 8.535046952065391 5.025172201112838 -0.16811800795858145 -0.4632207441705441 0.9148686959018244
P 7.313187753241485 7.780038826741549 12.900268037887969 -3.3194389343280704 0.12165200318655824 -1.4531057456782588
P 6.563218940429665 7.513468357241994 8.232285972581774 -0.8173742637980762 -1.1622905810980564 0.4614963052802697
P 1.7556323424836167 7.856553915446808 12.750678336565207 -1.2715097578379004 -0.05255540549921272 -1.482998162362317
P 4.3361634936396225 1.1240507241587605 1.4924482909921395 1.0542553973639843 0.7062889803837707 1.4954520718549535
P 6.6103777431558015 3.886739279044768 13.521247858926172 0.30350124468830314 -0.4603799322876394 -0.13674360741235805
P 2.2489627126377574 3.7096303502131738 4.293022397343525 1.0189785764395614 1.1811935886501463 -0.28011243345071757
P 8.411409710179539 1.544595096866539 5.933879358053339 0.9013858309240411 -0.85205664567161 -0.7982426851749478
P 1.8222062419606144 8.323459963265185 4.264901201049168 -1.5013167581658466 0.5996126246704383 -1.0908288256126437
