# total energy = -381170.6593539611 ev
CRYSTAL
PRIMVEC
9.26935492556574 0.00000000000000 0.00000000000000
0.00000000000000 9.26935492556574 0.00000000000000
0.00000000000000 0.00000000000000 13.56663789431697
PRIMCOORD
 96 1
Ni 6.061397949207946 7.567065595425963 2.068735530210247 0.337731883736399 0.25447493538827143 0.33555801601353175
Ni 2.6412192248038155 4.335101120145832 5.821253993712739 -0.4571364856496772 0.0888336711049567 -0.22050629175231057
Ni 5.220176193445805 5.221019704732201 2.552970332472615 0.11361576314564302 0.817851460544811 2.293505780947547
Ni 0.3974847646016098 8.009973906267772 0.5187612950048975 0.44632114020172814 -1.6698795669713307 0.11794087288355816
Ni 1.5254206412873708 8.325725208023986 11.317736676517699 -1.932448849331962 -0.19839891833030993 0.45262702781509795
Ni 8.610192437345159 3.9320510349249624 4.27282588688729 -0.3143739257367489 0.32473238615293754 -0.8467311196936386
Ni 0.9441950181861026 8.947559874484636 9.054658926728102 -0.2552472947779217 0.5554505854412434 -0.17137019634729198
Ni 8.766816725325864 5.040610252346069 6.379046687890813 1.2095160897439232 1.3589789444951628 0.21777860840850236
Ni 2.993065394133969 4.44727885188179 2.4408417283170727 -0.23722154762446246 -0.6405132195395421 1.141700929872163
Ni 8.719348359417761 1.9449979861087363 11.53005495585209 -0.23677623255692767 0.8721863265419495 -2.3158401827786887
Ni 6.151041879435881 8.140745963723639 10.935904144423883 -0.7337545327938911 1.9578094395839378 -0.5636457196575261
Ni 8.526731166765869 2.9896820796335866 7.336227145210025 0.8093886744894384 -0.742468001407489 0.9290719839853999
Ni 4.984845813895935 3.0268985391377905 1.444942249081294 -1.7853616939017511 -0.6435391508500594 -0.37031290299621383
Ni 5.96835216577004 1.0697762369564519 3.054067018043599 1.2948314632829763 -0.7780754661984535 -0.5951021383945944
Ni 1.4433497739274155 6.192818861499504 1.8172783271870498 0.30419544254185027 -1.984028521181467 0.09749186100058695
Ni 7.712752044747898 5.428458595702208 13.018124731990724 0.6150171321509666 0.043014555888313016 0.9151381475131272
Ni 2.046571575958566 5.288658186675457 11.257826982602987 1.31692469563759 1.0919729665194162 0.8169356335987609
Ni 2.613540931384251 8.458684833211606 1.648482449424285 0.17400943374235195 -0.16524788549963798 1.2628981049094896
Ni 8.473348952498194 0.2812887675617727 6.79696667207473 0.3009545670070494 -1.660813085893688 0.95456112939544
Ni 6.796569016754002 3.7875788710812466 5.828268114486545 -1.2343917699396807 -1.06918656475252 -0.9788953352654302
Ni 5.098886685945803 7.192342658460349 7.087306964594375 -2.056784827108587 2.3535837200760494 0.6804859032777377
Ni 0.7392912957526839 3.3574159230833427 9.302616021380494 -0.11984220367132908 -0.38125037584432403 0.5330740175182561
Ni 8.40173391734764 5.900954687051468 1.835389719522109 -0.6762163293681064 0.30719566282075483 0.6344209905988751
Ni 5.847887630846843 3.7555717889721523 8.595278972414569 1.375082792035561 0.10963389567975956 -0.7327057798144027
P 4.005158436197604 7.278176883867304 2.6021220132115914 0.3668138887040199 -2.0827948780191035 0.31699516540967987
Ni 3.4436858081656903 0.4335221621758174 10.879059826140065 0.3797416525092815 1.0107075946800206 -0.3881936399313766
P 2.00245871648646 1.9066970120934512 10.092398419640112 0.09044343879423779 -1.273940221656264 0.053184811553095505
Ni 8.452594867110918 5.071134237687873 8.90699995870567 -0.4648513377954317 -0.6326147906280717 -2.3752948865008965
P 7.703111915760508 7.600426003335211 3.4730863477062712 0.9610451944578868 -1.8937424339007 -0.9279388988222212
P 0.7221392816389658 3.184523917436417 5.712544854541282 -0.10627732050270083 0.20806935154053843 0.3630973590843811
P 4.177522088621183 4.565027465849885 11.66000945621499 -0.2312013095723115 -0.0037746365510838223 1.2854572211569282
Ni 6.467265918286667 7.8730840746468305 5.13440221884502 -0.770418463873828 1.7257599230787182 0.667898039310398
Ni 3.2102834544132994 2.5447252413819577 8.36170235479202 -0.6822990452270765 0.36078645156301736 -0.6427799040865317
Ni -0.013016954939415522 4.5980170995673095 11.417288620086614 -0.8474469148137406 -1.2389912163849048 0.05142052056382112
Ni 2.4161778290770264 1.9574189215347968 5.508543040329473 0.5309250894960533 -1.527496501885008 0.31023162143360117
Ni 4.6236468655770535 2.8035627046933858 10.185248619691835 -0.5906757271921246 -0.7743167704869697 2.168695434637665
Ni 6.8552996487387166 5.783752965016311 4.580761268679881 0.4165485369249858 -1.3685578464328496 -1.240357243494496
Ni 2.612678881388263 4.375200348991457 0.15499380847216468 -0.14164130182429155 0.032361189939524915 -0.9888614453392066
Ni 1.4461027723016993 8.794096436489218 5.619030041750719 0.8311096111062977 1.0647892070157725 0.3746714370752257
Ni 4.871815301518784 5.379025126577445 0.362006309121575 -0.6892140271793549 -0.9699615231109101 0.19712210850041534
Ni 8.60669789058723 0.02468614569155552 4.160412713539524 0.8444829470894101 1.230697351807229 1.2102606812194316
Ni 2.6974934777677064 7.213801214812087 9.164032678638401 0.8331304981910684 -0.2323752752757546 0.2319297030979038
Ni 1.8301506801916543 2.5988304653236853 12.221016762636166 1.446024413351445 -0.22441179745430384 -1.873854179617205
Ni 7.5680018002603155 1.678995311540334 5.308028357391755 -0.5744183847929979 0.47649380713036643 -2.068390015447683
Ni 4.2961976380688345 2.222744933203123 12.616091494990927 -0.3945725468745269 0.4397576280515975 0.3913913209330679
Ni 1.3174255890296305 5.497570905057959 4.246696502654065 -0.2957609386212519 -0.1578611061172636 0.05258703006809653
Ni 6.437557636166874 5.549544177396705 6.955696957464989 1.9670414997051673 1.0765383771319008 1.5229795878512609
Ni 2.261861610440418 6.698045044631914 6.5677040121740395 -0.18314147795060717 0.6584885730710401 -0.20901371773167876
Ni 6.87112243737475 4.045693324718621 1.2694047695757131 2.003643210088601 0.9799034648149705 -0.5463704775168462
Ni 1.2879305020701346 2.7677459177633126 3.5179101666911974 1.223787769171589 1.6571711182657267 0.31116287499861894
Ni 3.499051664359615 4.574964214190733 9.635040111607493 -0.10101658632439377 1.1523584095860089 -1.0723917019533789
Ni 6.193263790529691 1.5255689509641 11.135903451234968 1.4040388129482786 -0.7578930777133077 0.400960966899374
Ni 7.241257043716559 5.882156435526056 10.63884913129033 0.19603247498066237 0.10435079290394932 0.6105673239097292
Ni 2.3750218937847065 6.818148074718082 13.508708115352574 0.22732485733604074 -0.5392912020725615 -0.733882316621007
Ni 1.9149374685067106 5.114941208451725 8.164687780225112 -1.4187401237141952 -0.18385830151197366 -0.2014564742097111
Ni 0.1449235814222601 2.517445530218602 0.03331035339335158 -0.14662718507465716 0.4160862525765866 2.7457234891393685
P 6.200614388882576 0.1916179562049317 12.906512430897294 -0.9261483825807019 -0.6842484556439634 -0.33397678756934096
Ni 8.398647222200715 8.661553932267397 10.635687354369562 -0.028000084757351777 -0.3889089208308464 0.567522429004113
P 3.7317495471475435 8.485204457281725 5.81349461681337 -1.672299746377049 -0.9384408267948096 0.027476865264030096
Ni 4.648562891267539 7.788371441170138 0.08499256799151807 -0.028383436238699506 0.8969308804764812 1.802323775677386
P 7.6190017903455285 3.6029425929083363 10.278844075869118 -0.6747615991994509 -1.1364502229961848 0.23051456791793207
P 0.7664579207875334 0.7229957700220762 1.4115271519787527 0.41539899670157493 0.35771938260191943 -0.3967479572592909
P 8.574320034286313 7.034226004357557 7.621424799689089 -0.3052549941546162 0.15855376130891405 0.47097441997403405
Ni 3.9789354314809433 6.446901145800806 4.923834920631509 0.44061997605189274 -0.47111197399316285 -1.3407989311520263
Ni 8.441657028452148 0.23620262583613208 13.025247304215636 0.8570710681670658 0.5281482980818646 -1.2149184917064173
Ni 4.690617953975029 0.7409505102610906 0.8796404505833315 0.05286779453330895 -0.08281471860438641 0.7683744368606058
Ni 7.136124021625232 1.940011073228721 0.12807560214583652 -1.5700379747916444 0.9801749733088023 0.6368666239258903
Ni 8.99868036618219 7.235111461487098 5.457397521373969 -0.48586007883661486 -0.3639522508855087 -0.02930800493549791
Ni 2.5488222962015983 2.17003011248073 1.2783895551790567 -0.25653284635856466 -0.16522860222592833 -0.13618670646762351
Ni 6.173770337394612 3.904289317312238 12.366031183735423 -0.21290662502818172 -0.7333493269356725 -0.6678836411326949
Ni 5.180725819435868 6.214777963010203 9.570787724971058 -0.35287928090079873 0.8634404620285194 -0.8125799277332264
Ni 5.396711055527388 0.3284178750843563 6.388570023007779 0.8329852308624557 0.5404566831355725 -0.16307736021088043
Ni 3.498467695007495 7.506444015062951 11.791823389149878 1.041131972608149 -0.4369255579194411 -2.7988496795403863
Ni 5.508119430815315 6.414291555629998 12.102688813993348 0.36466341801992036 -2.116295066659078 -1.0185029223547235
Ni 5.154234003430136 1.058653011201771 8.690191603908305 0.9610552217602157 0.770218689158196 0.06112669210799151
Ni 7.229281037320686 7.617120111322027 13.523997916087863 -0.43206977248903655 -0.3161397593879201 0.016972623298596577
Ni 7.881185490738156 1.1032942238972243 9.110716276789777 -0.14478781787307324 1.2238823857679244 -0.4221635691189181
Ni 1.0273040532831612 7.659138096610335 3.401508389974899 -1.1245773828179988 0.09526065767722304 0.7917984722115009
Ni 1.2079915863131596 1.3856109629058253 7.571581625082364 -0.9997564949851557 1.5405654192538243 -0.43073125618327107
Ni 4.596172497962992 2.7323555211538357 6.3178884118851375 0.5108110923549977 -0.3007419367756111 0.5243127263858584
Ni 4.2542074608449125 9.03257839666958 3.820337697864262 -0.40844107732650303 -0.3983893495174558 0.21307143274082013
Ni 8.48789257017244 2.206069363925897 2.5419129191369825 -0.5899175088698614 -0.12957640023995748 -0.5996884722136963
Ni 2.409754166203698 0.17338606225752987 13.285740274293554 -0.05479920722806692 1.2698475396441293 -1.6667705890287037
Ni 3.8205499660890805 2.1309041658886394 3.464946000324804 -0.13452603093574897 0.7747145201460207 -0.02000703924954619
Ni 1.6175672973101078 0.5898007032226477 3.4492502018494693 0.8220747545975391 -0.03875835171512035 -0.2183599348332691
Ni 6.773488323313037 8.254564371258413 8.430647815761454 0.45976620996304046 -0.21400062942330889 0.11995250399694826
Ni 6.479983473066187 3.1986318754352707 3.4018754564248033 -0.812509222396291 1.2273464330571249 1.3474915126808533
Ni 3.026629727848719 9.317926214696332 7.71906447536368 0.9859316732869213 -0.7452404219463036 -0.10445106592723948
P 0.5439795016617186 3.903408728606659 1.8088534106133582 0.2493486699052996 1.4639622287767884 -0.3344634973977724
Ni 8.064190362467047 9.224648697388536 1.9263267247440246 -1.1730555329240444 -0.6677034068010889 -1.0539792608844623
P 4.456353550226651 3.9725210379624105 4.572662633394994 0.6496452637477973 0.7715278948879228 -1.1352801139474835
Ni 0.43731610909364316 6.72159847516745 9.780663529316818 0.32305936932588875 0.17578118093079403 -0.8621651948605217
P 6.6618482141552215 2.014684995461813 7.1841040559180485 -1.1658340754749406 -0.7566198674278388 1.2480157884810184
P 4.510384619330014 8.448377310678936 9.329573158996961 0.26516738210511104 -1.7002661496829878 0.23573519288692305
P 9.015096393525141 6.786307840995307 11.808442415362851 0.2463026839901242 0.8182188711865587 1.1633601600131513
Ni 4.2153225174775075 5.087633689223983 7.27900278337959 -0.26642619421287667 -0.606344286967317 0.9493685294509069
