# total energy = -340871.77910240775 ev
CRYSTAL
PRIMVEC
9.27493212211314 0.00000000000000 0.00000000000000
0.00000000000000 9.27493212211314 0.00000000000000
0.00000000000000 0.00000000000000 13.57480068521918
PRIMCOORD
 96 1
Ni 7.686906235737682 7.734217665519058 12.283117498435253 0.7067947163755957 0.3508455383002216 0.27836562596293996
Ni 6.324270278521333 3.215869459675958 1.3963855809545316 0.6587991623329235 0.8101960008820822 -0.6812407791658913
Ni 2.54669236747904 4.45205098959584 2.9429221137984403 -0.3542406800246996 -0.7193244734114901 -0.7540119974913465
Ni 8.68762505876484 8.559297095139058 1.5333958087281956 0.1469776264355404 -0.13418047467087213 0.6824240008407151
Ni 7.791917019502578 1.0207712267102271 11.131052184742238 -0.1261347215482602 -0.46739004505688536 1.172257462502781
Ni 9.19400853882243 -0.07411505670260642 6.5668236711752535 -0.9195051662325712 0.37105980846456743 -0.778812087254162
Ni 6.190785452523772 0.7316279940096873 7.203617337165217 0.3881085364167381 0.7599407042709557 -0.44401923154142886
Ni 4.494307581260994 5.78575843289568 12.501074698060899 -1.5875461588787367 1.4948517192667934 -0.049162834877895974
Ni 7.946261168295339 3.553801618876982 11.281406257649497 -0.033721046401529016 0.7706994854493565 -0.17791931031971941
Ni 6.5442716732310435 8.116836448653952 9.116564708908978 1.404123402242285 0.4438922190452614 1.3121527281702434
Ni 7.5066943006951155 5.735618148755684 4.262446330589424 0.30989943490516303 -0.30216092861032473 0.591348070668801
Ni 7.697934130270138 5.923175830198339 1.8458200490535606 1.1249548207620754 -1.8733831535180576 -1.8966601217681271
Ni 6.527613894778319 7.591801079694116 2.5288631650738767 -1.660131229335315 1.3337019150959288 1.5404967707994177
Ni 6.556672257747354 5.763322371605512 8.076735351260742 0.28082257214386475 -0.04364473327314419 -0.4076723174812786
Ni 9.113836023819449 2.2740464569020316 3.789052857312734 0.6922520426747304 1.0711249194258132 1.4593560974633446
Ni 1.0135924290919591 5.803863100790847 1.8514536429467592 -0.31520284939594745 -0.28647617088521626 -0.8570715823876981
Ni 5.018248508206673 0.5450061532384581 9.68095083323706 -1.2192456583268616 -0.17989366043727084 -1.545425575559603
Ni 7.47760811292911 1.447640711959793 2.5004373524892936 -1.1670581776900288 -1.4952888068042118 -0.02866728602770547
Ni 6.010137595662008 2.591258417292706 10.285654160881489 -0.20416410294886128 0.4422086606952514 -0.9268153267407392
Ni 9.113094029233581 2.919025250667346 1.3363712038631044 0.6335151909551541 -1.0324195324358156 1.023370791969986
Ni 4.466408584832376 2.7258284103720984 2.680575088073273 -0.6149687954115344 -3.0993486470672558 0.3045003753767788
Ni 0.3001331000104697 5.963280637564477 11.248962544382442 -1.1113241173525183 -0.20348867414839147 2.0473907874881965
Ni 1.0272915041335375 9.064372809739057 8.633139468831358 -0.1380561555761945 1.0252153013778924 0.8006307257911501
Ni 5.9642916051877215 3.203784222858641 7.736509501296156 2.0064883928468795 0.037767448556760765 -0.43456040012137415
P 7.651179196428163 4.513080044283441 6.383767114389118 -0.6398681297563755 0.2448970618918492 0.5138390805480441
P 7.233371320058503 1.3700837278719937 9.007708538202822 0.16776808081833042 0.09706480076549735 -0.5615739247301619
P 7.321093629972687 2.5994481825342186 13.167434993311215 0.6265860679354887 0.6206000255553827 -0.8775648172450434
P 1.004169097851442 0.4283775892453417 10.96021256881241 -0.42893354085290003 2.5521782993569335 -1.1832849239615362
P 8.323695264261485 7.570459460418103 7.961390437901177 0.8394343289219092 0.2863694701040229 -0.3784684422238127
P 7.681480400328526 5.934138800204532 10.50522612622463 -2.6297857627287677 -0.4148372106608339 -0.8193642976449115
P 9.286154991454849 6.862754299350017 0.13813434957125328 -0.9332667387930378 0.41928239091638114 -0.38539885079505887
P 3.963122932170782 3.7886429053040422 4.40532202556437 0.08157133311558856 -1.3301982728180446 1.1926509385574686
Ni 6.770969569078209 5.61660221718254 12.591008151840967 1.2722039556914477 -0.7504543620470754 -0.37250014045551977
Ni 2.0198669365808 8.462420427021735 0.8528031298277068 -0.2723435881385761 -1.3748413654487162 1.0330625653364531
Ni 8.840689266896979 8.212498100636918 10.336003130998758 -1.439191963810644 -0.7741421925823183 -1.5983941573368343
Ni 1.8885431698145778 5.8192223887183046 13.15548888047875 0.5900663757429 0.2227030422933132 -0.35589415646772254
Ni 3.6162497382100542 6.461474352380555 1.7463436174060032 -0.22272309689797126 0.5904692676082735 -0.9781664275192057
Ni 8.790521157960013 4.414283465175185 13.323748210236221 0.9582483484390399 1.5555186981295468 -0.39097480222093955
Ni 3.898829101305364 3.93435209210377 0.7787242453611612 -0.49645533785395785 0.2656360942114135 -0.08009140613595238
Ni 3.155434000657051 5.688102670463195 4.89484275116489 -0.9101743757499485 0.3387814080468359 -1.4004909476960203
Ni -0.0026415007256882584 2.0839010693411644 9.506270467832136 0.8008065892473821 0.12335921568565207 -0.08859327295937647
Ni 2.9287082800129163 3.806571349485065 6.442478363489115 0.17009647184119095 0.22289587503040967 0.19073317425493602
Ni 2.789046349088008 2.0177708018757246 10.32231982334213 -0.9052777097792796 -0.3718131416908242 -1.6407006314145292
Ni 9.27808580033354 7.18795197647109 3.4842850736202897 0.5535464264399951 -1.3407091996516973 -0.18759848528069625
Ni 2.2436525036784345 1.9230273681927694 3.4664744210797727 -0.8757287924775693 2.3162911542731788 0.41474850760176957
Ni 3.017803279910955 5.778097338796599 10.350500777713377 0.6705676157227612 0.13070819985155555 0.2800689818072919
Ni 3.029526794367661 7.8966959299593915 8.813752080950293 1.3482397037007876 0.580339121152807 0.8530190095848793
Ni 1.9551835585578017 7.995492509067647 6.622086500437431 -1.2023751078237679 0.36968041161853754 0.25744301687765986
Ni 0.859361434473543 -0.012207665923984852 4.054331689145311 0.7086497673064635 0.03700794468291691 0.5132037609568904
Ni 5.519271077381371 8.966058527111615 11.679894449989632 -0.015477783920624955 -1.076892675147526 1.4382152017196717
Ni 2.393396286038817 1.5328587901466741 0.8604966861899203 0.929480018057096 2.909525643331415 -0.8693660834843351
Ni 6.743534319265758 3.4933847097227217 4.152694201420834 0.6375351107478245 -1.6288051655285236 0.0405079874163754
Ni 4.96977771188488 2.409961315168309 5.753869360581561 2.333903725148619 1.3912164643726297 -0.4651066483393474
Ni 0.3562009933983141 4.359106892783614 5.3053985579509275 0.07921157463416036 -0.5248752837575477 -0.04239851957086892
Ni 2.9698240550022987 3.769369595936134 11.98786579530656 0.08847937308933149 0.6085477223765391 -0.8849600812678501
Ni 3.7733670917674953 6.548241344265434 6.947013349534664 0.5376395254017515 -1.416484237800483 1.2951729057827954
P 3.991281626704453 9.03078827979623 7.141241562304267 0.22359855752438912 0.13265786737875862 -0.17744237068330085
P 7.113956566395455 1.3970088564066603 4.980404001847735 0.9358329568583172 0.27981444259432453 0.27819104805828865
P 4.7761356748381125 7.3110859779958 10.009406794083326 -0.4640206143640202 -0.21899602575537125 0.5951556173403493
P 4.430060125057192 1.7063556741871395 11.572110461460055 1.1175353883695527 0.048980543663760805 -0.01549552453243783
P 2.1138405508809175 7.411264522020233 3.0016732451074284 0.6049769743061453 0.5494822836729504 1.228676207612142
P 5.811190297326289 6.935015297081187 4.609120113505199 -1.0585321703624673 2.221650646678458 0.3464600076380162
P 1.341748809624179 1.7124864044528696 5.648637833427368 -2.1287546325786693 0.3652640277183967 0.06209394111726726
P 3.2729566681261373 7.630264224039022 12.912852940927152 1.0281533009602937 0.04595384102229506 -0.5141370714044371
Ni 3.4935145587752485 7.927887527362795 4.93300167772959 1.0621900788300287 1.0688204396623529 -1.7378088838234524
Ni 8.537454629517585 2.4719920625468306 7.1321734609717335 -0.4984047482708449 -0.5698605902189864 -0.8377656829702346
Ni 5.106221241293588 4.856716286863321 2.940396549726794 1.406677021902074 2.822047714923404 0.34153017443656664
Ni 1.190799286061762 6.600069666088278 9.105677793347837 -1.7829949934417872 -0.35781682741173215 -1.0917929892981262
Ni 4.7123148655211855 1.3974355032935342 0.24768150273549694 0.14409876222584858 0.5687089931130463 -0.10792822584256251
Ni 5.375843523933186 5.080650252878129 5.629130795764912 0.988974573878303 -0.4596165717590536 1.0010137644310244
Ni 0.6948667997461148 4.379344795113149 7.930059716512923 0.5652038081732653 0.2514407765476379 0.3650197729180746
Ni 3.9985346237813078 1.9904468512511542 8.050263766916688 -0.2955444517350716 -0.3779292818908911 -0.3224903841962962
Ni 1.5512602558761879 7.783977677433796 11.37504504689274 3.021385600128216 -0.2805148110954588 1.3289998816345692
Ni 5.288427286785673 3.58844349110467 12.26137149210994 1.4921343203356303 -0.35242393853093495 1.257428597154486
Ni 5.451480597030053 5.040146623422088 10.195666912493945 0.22397830946131103 0.3241790847526288 -0.08029426617537785
Ni 5.812099240693977 7.679662513593151 7.073516933972444 -0.3419392369495272 0.20941326716294256 -2.801142332229305
Ni 7.823414689672653 4.019913342786615 8.860842767342373 0.6129810755575442 0.0705649547027559 1.3625152397831952
Ni 0.27556844175209416 0.1616611429026467 13.074596630727475 -0.4597214727680341 0.37717054934799554 -0.736873280928531
Ni 2.7850024785950307 0.628461994283904 12.358526408196965 -0.3136136505319566 -1.8885400637641538 -0.2915348163550463
Ni 9.019157514662759 6.714067859274495 5.912544902769323 0.10087234743704562 0.4611826306945928 1.0387627010450238
Ni 3.339717630989565 1.1677047045766364 5.392535619635508 -1.4711307215007696 -2.2838641440927248 0.4610044532455157
Ni 0.9460987465749877 2.45634525171735 11.855891855784469 -0.7728353008454368 0.5010172461930273 0.44783629129467384
Ni 7.738706732763556 8.473772944185507 4.45899605891956 -1.190473985510808 0.9901094588136949 1.0571928827257535
Ni 5.888274259865597 7.6377490944239605 0.2234859867835905 -1.2445005762389083 0.06766655010903831 0.20112763011538268
Ni 3.581802639561156 0.4178032389034977 2.6973534406462014 1.8933760517002163 -2.2318700104136204 -0.6881753015021954
Ni 7.056554010246281 0.5444765546027953 0.08868504788934688 0.8858378558871132 -0.17312574558581798 -0.8119672338498919
Ni 1.73087859525006 2.23057484910252 7.7641617845249735 -1.0066406236994987 -1.2272603011012218 -0.25693162445888007
Ni 5.375018054956408 0.2781774802146507 4.532069540722255 0.2409578747384431 -0.871255587197564 -0.7616705424778689
P 1.1986366038749872 4.469626986348576 10.255409534068297 1.1883194010616502 -2.7761838625117545 -1.4154164586576012
P 5.744318035274982 0.23869502080740934 1.7469409230476267 -0.6827793272976047 -0.5919044573929032 1.353878904264436
P 1.8103091156671747 3.664451561494471 0.20665847706934817 -1.2603539983313972 -0.12935862780219656 0.47018894795826116
P 5.5636145288192775 5.485695822370868 0.8964732211789378 0.4498093558606447 0.03292966084848522 -0.11052118338071933
P 8.998094143356445 4.534356739033191 3.136688434938341 0.2613834895826466 -0.9178426909284837 -0.11182704667633644
P 4.293792819362628 4.262712521147104 8.266497684116656 -0.9991461150946664 1.2626276248569224 0.6027624831533297
P 1.7029981486860892 5.775212834844039 6.4704153871402585 -0.48106548566144897 0.22275215036369378 0.9245134180804401
P 0.9046435090625711 0.9709648401338719 2.0216542160395083 -3.3196955304235667 -1.1195948420017428 1.4548337841129588
