# total energy = -340867.5563304697 ev
CRYSTAL
PRIMVEC
9.33334065784573 0.00000000000000 0.00000000000000
0.00000000000000 9.33334065784573 0.00000000000000
0.00000000000000 0.00000000000000 13.66028748128940
PRIMCOORD
 96 1
Ni 7.539836687942719 7.392808570526796 2.8064926412510554 -0.2935531323366557 0.20746128564289432 -0.15405895876235404
Ni 3.554910838934103 3.8498350744591296 11.270338467102873 0.6880313197251635 -0.9475361042278584 -1.785377634741351
Ni 0.5432293671536023 0.7993735717090892 7.657793315475629 0.15451044447747583 -2.4870288592427943 -0.824530158116567
Ni 3.5323801542745437 4.01987921025553 6.699948017211807 0.21822880857204352 0.4572886949568254 0.562749947316134
Ni 1.9515082251314224 8.66067758304068 2.6438255780126148 1.4066726510267 1.6544830299106021 -2.2540038661981825
Ni 7.182136402285052 8.132363827798612 11.054355627953386 0.052015730945658804 -0.24830505913213363 1.0609988867354048
Ni 5.645877842103278 6.127543560092457 0.6157018250297465 1.7528889180850262 0.87755376150145 -0.18478055621592693
Ni 9.24639138412214 3.103251811574785 3.4656831676773288 -0.3667475542424587 -2.403762654923286 -0.7854920703774988
Ni 5.207182825096954 8.023135740569604 7.80556996682266 0.6572999520795777 0.6119657469191525 0.009703857551325223
Ni 8.037042418342073 2.311355179170076 -0.0038378697315703332 0.48719448137732224 -0.3560697628136384 0.011203324914987158
Ni 8.533137481187788 9.14849397260842 9.521206936921805 0.9308162203700162 0.29812069710268013 -0.004504829848889016
Ni 5.909348719176476 2.114963022332277 10.52159080249005 -0.42339949840854824 -0.7746875235628271 -1.5486885625815907
Ni 2.335173864858226 4.09070993348726 2.1973661548056747 0.5368555960478755 0.6589238608362459 -0.8475803550678113
Ni 2.663726127238428 6.671546661197293 10.162216115495212 0.4449157752137692 1.2306883529461643 -0.5870669267949438
Ni 2.043954965625596 2.0344816247269 3.1281783648143398 1.5473616162400512 -0.9807244180543692 0.9210992501925684
Ni 2.9811063806967186 8.795311023891609 8.64091050058812 0.3619478188609702 0.6931046204830127 0.11084642793062201
Ni 4.1345859685264434 2.4187819316272123 8.46653662800068 0.17623883729350293 -0.2207538889867424 0.27448454574097886
Ni 2.7593088702369974 1.4273104731763735 6.41401085553048 -0.7698420225450677 1.370108478749421 0.5334319150783071
Ni 9.09445392945231 4.908907920229433 7.461385291958492 -0.30562600434078974 0.14608288253541293 0.1631814898889125
Ni 8.33151865350933 0.5474144371624451 3.424156334514207 -1.1650838275724773 -0.5499268274095368 2.2792965793267004
Ni 4.310799442582979 7.540695355295114 2.960307030753128 0.1721816365049938 1.1723255967365551 0.3758564585222624
Ni 0.11183395597670731 6.666543990535518 9.682958399429051 0.36280065377956877 0.5977208069643641 -3.2104712114773997
Ni 6.5111345330929655 8.395713371441579 5.227437107938591 -0.3886410118814404 1.0872369944963274 -0.5682788475541632
Ni 2.92931567267025 4.966065299208365 4.449197019773263 -0.6036114614171862 1.4581065413269598 0.3984911652026427
P 0.30106184042648737 7.257717795977309 1.8673746912761344 0.30287672373042673 0.10476268363038732 1.3779017495415948
P 5.681568537272357 8.293699956640841 1.4833301179133829 -0.5506099695194905 -0.5145749302728041 0.7256133917439954
P 4.416284860156443 0.1474714511033002 6.177810133568426 1.2148565281202302 -2.806328247305619 1.986881160138914
P 3.561033510490305 5.481265710644849 8.494307983512078 1.1844115813668117 0.22764958766531115 -1.1780786971702484
P 6.449441150491604 0.5570856448858234 8.968129028569875 -0.28357828051213096 -0.7170549606510231 1.3849254891575957
P 7.442788610440608 2.1439710454979397 2.2035681597585652 -0.034161476373057297 1.1830992903132915 0.12150287920320364
P 7.545343359006986 5.831676657147954 13.049781888157533 0.4046762109674321 -1.03375547763842 0.011391529666393285
P 3.6114802174434604 8.005337059689 11.894764165766128 0.02214054065278122 -0.9000773965252629 1.0180470657642273
Ni 5.100997406964475 2.1357203722423264 5.943168079517783 1.1406187525515776 0.4880030933215466 0.38037440099727393
Ni 6.972798901775833 2.5875847330989563 4.370677490401291 -0.2149902470300878 -0.8774236636814888 0.22990110270364922
Ni 1.678414673706938 8.421034724996419 0.013876811081952264 -1.460250841363472 1.6618011608385703 -0.46064012792756154
Ni 8.957020486365314 1.8676014914572558 5.589680863891318 0.11145063717352419 -1.0929795534070597 0.2928653622410118
Ni 4.4023781823839725 5.317754913399274 2.8031186385565934 1.4476467794462164 -1.0347368677150826 -0.7788866492458393
Ni 1.2085089651092447 6.0505248319190175 0.18910935102178653 -0.13634405798109422 -1.0439504158935504 -0.5098757250249218
Ni 7.714276827249746 5.418172326925454 10.534213212570242 -2.2831594047162165 2.0047161314378057 2.8396150343832063
Ni 0.0707448564964903 5.216320165727323 2.965320901423847 0.25748518296950496 2.8471128854221486 0.7271030889156445
Ni 6.993481584959587 4.922310597599411 3.6716391988194568 0.1098077022534625 0.24600469313373116 -1.7138374606095195
Ni 6.928596199809109 4.209346028229454 8.789616752677526 -0.596008709369264 -0.07152217640970263 -0.16388622926542099
Ni 7.352152538059092 0.20049602678179576 1.2217231089953278 0.05522858145600166 -0.165479799004786 -0.9705798734211994
Ni 1.9947029262931624 9.095172596692901 11.112930741397847 0.3132382694704089 0.8004718316157826 -0.8965490716570301
Ni 0.00959654099708321 4.015968540465822 12.356317467693632 -0.22908889121499904 1.0220451311800267 -0.48016585666531497
Ni 8.505725459296684 7.7026381512884905 0.24741659758566342 -0.8491153036550989 0.31711446459636355 -1.2269656526789385
Ni 8.455922752857825 1.7748094173539672 11.388636694908584 -0.5324135011161218 -0.7397079221638486 -0.4774898524950486
Ni 0.38201550507568105 0.8278355944387189 1.8041282407678338 -0.27515508944544226 -0.24743988291836094 -1.8397621230295025
Ni 5.975400771925317 4.600739674127806 5.706981357566908 -1.591235434804866 -1.1254572143197905 0.559384630388327
Ni 4.822677184699331 8.865591080016912 10.28832728287363 -0.14845266831917014 1.9128940671284864 -0.14558717384591702
Ni 1.6064826162623551 4.735307781593226 8.924115793421123 -0.03204365869910611 -1.302990602055001 0.6921661678291435
Ni 3.6183775562849743 0.8883613761076402 12.722481226776855 -0.5752329102744932 1.3161903885747268 -0.9855817461466702
Ni 9.266150066567992 6.702160018978301 11.839985855353776 0.39078068393226245 -1.423733977384361 1.7423484235650186
Ni 5.712807228886087 1.9946002595445067 0.6213764962281773 -1.4736246915672169 -0.2557304050619273 1.98241052596207
Ni 0.13981904499212677 3.726476309278767 1.1830345447654993 0.6231073653582688 -0.10959790023550156 -0.9069178164858638
Ni 3.6083442149390645 7.3678138838994975 0.4568819648636632 0.555933695725249 -0.941726696634933 -0.20656782729434747
P 1.7631520747111382 2.1418897105024626 1.0337626922244076 1.6036932009522444 1.0796311571246118 -0.5613137290902398
P 9.060835235937923 4.032833887267738 10.069789908350769 1.600784769056198 -2.3611425062599145 -0.7282410591748297
P 5.721281902320586 4.483438247118137 10.663397849069783 -0.9123379590601708 -0.08588975798528434 0.3753427521106375
P 1.2241143109049295 2.639310107739916 7.826893850518474 1.3252136751192598 2.839468224392697 -0.3991097726232481
P 6.5357185527256405 1.054947509142497 12.599470595207844 0.8901974184073895 0.7939520282193939 -1.9270685588566554
P 1.0336488254668075 8.112082478268693 8.320112377733668 2.1079713772847306 -0.4032065684004411 1.2288752109968257
P 0.7490435315157695 5.514884404159237 5.351390406927078 -0.9574412791567124 -0.7177162483841059 -1.4323088635375654
P 7.185823071895874 6.482079843223368 8.632946360894664 0.12688985454672985 0.859854544449474 -0.9326044226186906
Ni 2.312876513718339 8.417861389128875 6.313060508245368 -0.6179484468651487 0.30828709611272065 0.3366947007211363
Ni 5.788864622958476 0.7131232361633338 3.146811446361293 0.26656503378358604 -1.5691900249690522 -0.22328102628397029
Ni 2.5290086863204166 3.9957991910253465 13.28749834466338 -0.5009840789622468 -0.1952475171855218 1.4615374213853798
Ni 5.864100683041619 3.3090426425849855 12.450601009654665 -0.15714916765190357 1.6162442981443776 1.001141034037508
Ni 7.139492368229738 6.469041166144079 6.35192453928199 -0.31391421249151097 -1.1148311020645123 0.4563286450364012
Ni 1.5545332414425097 3.3061773069634093 5.361198814760024 -0.8902778939363377 -0.11170671904838826 0.36682417311666504
Ni 8.353946671420234 2.1754804039944897 8.853163736759164 -0.2833430245728733 1.0266790304076125 0.5023868728470444
Ni 4.171769998221424 7.111109678896797 5.720217901470879 0.675265792529379 -0.35297235483523726 -0.2848532905698126
Ni 4.344110135851401 5.909927386305264 12.03314214294076 -0.5300007779095711 -0.04831539927593615 1.2960429670925744
Ni 7.016096269686228 4.135799302828739 1.3496934778584941 -0.3370459134129679 0.34002119399120795 -0.4470978704667526
Ni 1.0231394837407661 7.5414606892396385 4.23179364615601 -1.2942367671217712 -3.0750668917017556 1.6513606822315363
Ni 1.2625023415614198 1.9468322213971891 10.15684757787459 0.09884528970468784 0.5935839019778552 -0.7354751150294236
Ni 7.34753253436958 0.8468690763054294 7.091615129995214 -0.5661147500233089 -0.021929453083239653 -1.1564760312988085
Ni 1.2259249790175868 1.8829921704148422 12.726702696814765 -0.3766961808147384 -0.785358373013112 -0.8382246248845241
Ni 3.8567324133006435 0.2419472598845442 1.3253483917499627 -0.23234493625845143 0.8677856263710927 1.2340243592979327
Ni 8.414361386333791 4.11780462179161 5.320640782370582 0.16972006233837866 1.393874213710451 1.2115372339390102
Ni 2.1094936846311576 6.114934216689364 6.731503109078214 0.8204778424240643 0.20066534576698344 1.563430753887772
Ni 1.3361984004147258 0.39790551776536615 4.529068016891177 -0.8847003998485602 1.5584158171716838 1.3905400071308955
Ni 8.670804257794458 7.848676934581004 7.279362746596193 -1.2330252286094572 0.2834399551620538 -0.45681046976882617
Ni 5.4262363333653285 6.692453344559932 10.114063543707474 0.5049834299296271 -1.2972814674853659 -1.8285454283780769
Ni 5.319332247992259 8.72477896756506 13.042296548846444 1.7964770870886224 -1.1804960483624896 -0.29133555586004667
Ni 3.718710969744072 0.07054792300588686 4.243363255395443 -0.43884051555396675 0.7960101963000034 -0.6558099977976125
Ni 2.2140831014890785 6.479363841054382 2.2653950091331794 1.105879035077547 -1.8218744441158043 0.5499584519784206
Ni 5.18815214323248 2.886130304849297 2.883153902472357 -1.5359047805533614 1.498010062390117 -0.15171025602451935
P 3.4817934472095846 1.8566628160550176 10.4511856795982 -0.1755595518382912 -1.610928028137787 0.42929478084706063
P 7.047829628361664 3.161165191157455 6.985816112171311 0.5098389582497155 -1.3016610846103003 -1.6118662236813401
P 5.750308592167822 6.4633384949232875 4.353396809934359 0.23419535920362894 0.3992162162941254 0.12589663739552512
P 0.06876898825190508 8.758033660788758 11.83303251646754 -1.4084012036820326 1.7895181392722859 0.3944077391618885
P 3.646517578757456 2.9205796656937184 4.549271899692564 -0.5100852699325668 0.13209093913169506 -0.39463399624008166
P 8.799669694039089 8.788208351552784 5.251014993434438 -0.8640441570507893 0.33075622374951424 1.1290541876424298
P 1.9534402266743094 5.344522934776083 11.602843399306325 -1.2164197588422923 -0.5195968089674278 1.242460148770112
P 4.344670136298614 4.508638267242747 0.7666340788968264 -0.10243274994563004 -1.4130656990372374 0.03205805687680931
