# total energy = -381159.68493114616 ev
CRYSTAL
PRIMVEC
9.34323076157143 0.00000000000000 0.00000000000000
0.00000000000000 9.34323076157143 0.00000000000000
0.00000000000000 0.00000000000000 13.67476264780783
PRIMCOORD
 96 1
Ni 6.431870587862266 4.893591761983333 9.985940199443355 -0.3934808564722449 0.9003172804502108 0.7461505924653988
Ni 7.647994823351772 8.300563419963115 12.985390037872744 -2.8511577449154832 -2.0426820691586176 0.20024625595169385
Ni 8.001449236183326 0.18127268809282082 1.1212568094750606 1.281892129513489 1.364430197417721 1.021151158610848
Ni 8.558679507959006 0.918430222757838 5.662117324673711 -0.16554587635603102 -0.15817966579894693 -0.1242418754009215
Ni 1.1551409694955446 3.1238998011054067 9.63977724375623 1.2474709717211419 -0.9513997009483227 -0.041863215892689196
Ni 8.022826547749773 6.7967517716928425 8.958856613950665 -0.371275009799167 1.1140692841978233 -0.033634400224993685
Ni 5.356081675680452 6.282967522112954 5.686608734992382 0.8043685955670277 0.19787415617509146 -0.21947836470842846
Ni 5.274804912867296 3.6640599906119014 11.957882269711735 0.00041240494707025745 1.048810572199329 0.45742573475532183
Ni 1.2899170706082905 1.3869838931012068 4.8155262675204344 0.6351151884524223 0.8870647863156786 -1.5762978396584273
Ni 5.338834072030252 7.0304913711061925 13.611462166883005 0.5777556766963469 -2.9857683651452387 0.026438910917818984
Ni 2.873398446032004 7.024306152462405 2.618744024965907 -1.993642133011831 0.38986408565526404 0.5997494073586187
Ni 3.7625376409223583 4.278171850157036 10.045918133826937 -0.11939586016252987 0.7266356623609228 -0.39021606967804406
Ni 6.701469506240657 7.566456450082383 7.132605406758285 1.7959554102571973 0.48090941969955886 -0.5483954783666749
Ni 4.984996586744928 6.158076558953573 2.4490130296082393 1.1880448072440248 -0.2936346363068685 -1.0396954972719386
Ni 7.365296695700587 4.571838930508836 5.216826429827778 0.23869350418429863 -0.16539675237267645 0.1978636146521302
Ni 3.1930490506260605 0.24673042721141958 3.9601703257603034 1.3626635924356016 0.08335310760635968 1.234441906451326
Ni 6.4631890967655545 9.246285219244372 4.931310383833743 2.4026215993403075 -2.5227574229926555 -3.1529461206777376
Ni 3.129599171759048 2.784441547682302 7.950999528344965 1.8816145402889142 -1.1481965648988355 1.1815887672060361
Ni 0.3286182373044907 4.757105849674495 12.642783115744267 0.03844416290881121 1.2357387708858782 -0.11292825016031519
Ni 4.46040221938428 6.535477671761001 11.177668325566103 1.3995694643230154 -1.0478628635740794 0.3324420960923694
Ni 9.15882323778743 4.150543320437791 1.9088462998403388 0.7037603004246461 -0.8644102821409564 -0.059097834603420794
Ni 4.783108060377911 -0.1508399174484925 8.061409418428807 -0.4246392843529203 -1.1991774268220767 1.3194901423719212
Ni 0.7964580848315674 2.2244176499632813 11.766353517411533 -0.7048172809342507 2.0207515876341136 1.4726846962514508
Ni 2.6100594921420393 0.38378721090868 12.172138430397153 0.6775954691038201 -0.060810446419153334 -0.011847900477521529
P 1.8539305277848603 6.297729826428943 7.018448881211966 -0.47343393725812016 1.893940923064751 -0.04614204577370117
Ni 4.9616758832178975 3.956157408226305 6.235062910284513 1.123930493262619 -1.4658627882336108 0.18295687274362682
P 4.38752502086231 2.261575677978906 10.06882306359317 1.091852638891468 0.5046378736647502 -0.8820822454994228
Ni 2.3225776304340267 4.088728506922233 3.4258291002588708 -0.8397526314932763 0.45594992154074376 -1.7948714331643991
P 0.9605962223642035 5.722560551940163 2.5838872346420723 3.6051322043006753 -1.7759792242455865 0.2405249009660825
P 9.270418783831841 2.9637568289686675 4.0347937740776265 -0.25162872418872795 0.04171357768870235 0.14977498667501948
P 1.3489102284887675 6.8808782198328196 11.598071657116783 2.0459193451489925 -0.6331891750743031 -1.5311369268510728
Ni 3.3084192618246875 7.571100035680514 9.43770559006985 0.24403291411934103 -0.9503344929086022 -1.3959218402680993
Ni 3.0504526655180726 6.160431053059667 5.18886120637956 0.7366470238503378 -0.7686878543359664 -0.5158694807145116
Ni 0.5399060536347254 8.242831598210904 6.659827661869815 -0.31842495587767095 -0.012840860518410144 1.1575466386551678
Ni 6.891501473001984 0.42177024618449604 7.284587066983621 1.1078793533370275 1.416409932919122 -0.7413390300093684
Ni 0.9136175246862142 2.1568287199494436 2.08069727421655 0.8117569176112988 -0.38979055210485125 0.5079317139246736
Ni 8.172392982870246 5.80128661280505 0.7298660775205882 -0.10488866768529032 1.326953797738818 -1.4543491311670564
Ni 7.862720948535352 7.429288481941224 4.940377054788323 0.832721692788424 -2.2003356872507656 0.9236690678022738
Ni 4.628542996897276 4.537754825353946 4.085321965052859 -1.2684390893323767 0.5918571490947356 1.8482881582226425
Ni 1.0841043873977834 8.379616493898293 4.482545675858264 -0.8380006817991761 -1.628045404544364 1.235350277198208
Ni 8.853075360296026 4.464148854846756 8.981625132550434 -1.1797956798613551 0.21168123726151286 -2.4790985486521238
Ni 8.970547798375094 5.982330391748667 6.8369295318318395 -0.22776940107262708 -0.25320635308849293 -0.08727095460352711
Ni 9.12611258752776 5.842966764421269 10.648797561569108 -1.7461300020946382 1.9782355686487738 1.9191287351842883
Ni 5.801211866960413 1.0671277374343962 2.503138364356672 1.1087797536641097 1.14147930077966 -0.23347082233277855
Ni 6.797517916600381 5.146858713308339 7.725980900354744 -0.7161643305159537 -0.47888493307036234 -1.2874413414664925
Ni 0.889419491807746 0.8704041489318597 0.03809235107359897 0.030252885347270476 -0.6348516503783905 0.5147150553950942
Ni 3.9209147424795265 5.086492100532641 7.853552436367453 -0.9733628354829754 0.6849159140246334 -0.013601907054150769
Ni 0.30803229736815 7.6107059901080305 13.133666172850155 1.2923714317782582 0.11966839709762614 1.9404403521778708
Ni 8.29607866928484 2.7725382719237133 7.535532225509561 -1.3445108327859747 0.9930173764891091 -0.9253564828070255
Ni 0.9716679506011952 5.61032032298575 4.702176062773147 -2.266244117018116 -0.21948736356949294 0.7922013640768744
Ni 7.993591579265766 1.055000224141894 12.352248820605855 0.06951980126769317 1.1283736166356375 -0.3925794277038981
Ni 8.773172052378092 8.489932017353281 10.84393653816532 -1.4365601826147516 -3.075572627693581 0.6229973221429658
Ni 1.4548250903406972 -0.14043716452101027 2.5677645559536737 -0.32546515055390396 1.0715296110633998 -3.7076122625444725
Ni 9.021524464418153 0.8006158224395516 8.153139387614576 0.6207131540944795 -1.5623781442535414 1.013311350851455
Ni 7.139648333969292 5.851861519933182 12.180055883990425 -0.41799606800478983 0.26110246800711806 -0.3489560345869926
Ni 2.797942515870026 5.4973419788155375 0.8307141054291253 -1.3144998882461814 1.0786387113043554 0.6716166258125659
P 4.442537962515818 7.57736000016894 4.110907467672418 0.11589556031875525 0.5250786580176053 0.35702827007216575
Ni 3.4044676721844116 2.3739280257002764 2.181329473498695 -0.7598494301087301 -0.3032659887490455 -0.36856069619179754
P 6.672384029445928 8.078932647381109 11.113656918541249 -0.3768411910330348 -2.0707245771181304 0.8042978902300921
Ni 7.49873671484043 5.2666015564182835 2.9041909310536527 -1.3509365338066603 0.8101432932672756 0.8617880140267611
P 6.753389838572271 1.913269385196788 0.4264951178886704 0.5605513970029185 -0.2339701305667003 -0.262072031009239
P 5.093779820384838 6.7588089123085195 8.028617482063094 -0.6950126361390031 0.628274254271189 0.8931678138896231
P 8.31332627293504 8.65472791831873 3.3573731184472333 -0.5936381522545583 3.140933669597894 0.8111719916421062
Ni 2.6122458080976982 3.685026200032837 5.564302109411358 0.5043532525447959 -0.48440869110206897 0.7938617824984328
Ni 1.9689363529908772 3.445858183652659 -0.06035820386817678 0.0300695656918708 -1.1988778933037867 1.9313849268438223
Ni 4.524020276401727 8.762539455978349 2.135779355776348 -0.318127222131594 -2.861943779787394 0.8602129562301573
Ni 4.571147531445935 1.7866966405330533 0.2870726282086199 -0.7528508873037099 3.2689005592588862 -1.1192621412526724
Ni 4.730402896677599 8.807172068457763 10.738435581428075 -0.6686747695754225 -0.6593468073062773 0.8057724178930898
Ni 6.617782189937928 4.171434784014089 0.32034200365695714 -0.567086627018275 -0.47394764366974507 0.19619136915602986
Ni 6.86793784547988 7.7618327447353215 1.9044839454826585 -1.2621303735055296 -1.101124294001381 0.17830214758043486
Ni 5.216363005591023 9.136334081781996 -0.009341361933623804 1.1476224375629203 -0.17310157721610187 -1.41711338674405
Ni 0.6716773717930271 0.665288470722601 10.408777442560059 2.17335992999287 1.1732195693057343 -2.2299483679108754
Ni 1.1265413406909612 2.2177559265599265 6.870624958594613 -0.029731208515845573 -1.1544955105336698 0.8028156492576108
Ni 5.762792502816523 2.3713212643685293 7.999694577480453 -0.6335676414596444 0.351236345980737 0.2155047247726611
Ni 3.128879743004408 8.219725788987207 6.288653812243783 -0.17750150605601045 0.1479695580351645 0.20484518817628594
Ni 6.755650900372567 0.13439209433591864 9.591984750694744 0.8721775847912011 0.8400742764987531 -0.7714373920566456
Ni 8.834052542835675 2.950237174319784 -0.08106934309428589 -1.1369675289522356 -1.289370440168405 1.1879602179500186
Ni 4.970766846571984 0.7415451157452629 5.945472281434652 -3.360590211755399 2.914215335497601 0.8941479184147053
Ni 5.6698460450092725 3.6152602972939203 2.5414820483328655 1.1304089018981112 -0.9087877798150671 -2.602759868959227
Ni 2.7672873763379 5.090789986599321 12.11571652957222 0.051085762932221696 0.8763995932923487 -0.275558495531448
Ni 6.506625775730765 2.17384274283515 4.565155717675148 1.035193752746843 1.341733527151154 0.8281273885495222
Ni 1.6066339008003088 4.326149339183999 7.595113072593503 -1.7448781319654079 0.8741215958914494 0.11933389657634286
Ni 3.0301871983906175 2.786198075031293 11.758654695413828 0.33413850995818584 -1.0294025999863625 -0.8153171241587315
Ni 5.696053806785442 1.3114999332474893 11.474342991841521 -0.43426498036814243 -0.15698770237337478 2.436983878870261
Ni -0.1767206661543716 7.236995453379601 2.2266618939485348 -0.1581300435079341 1.7694257393977852 -1.6673925388834185
Ni 7.855545347450112 2.1812892976072025 2.4351056308902965 0.12085393276529507 0.8392160422635159 0.39865443025338443
Ni 6.782858387820769 2.6434054820811306 10.127966647485978 1.7468445116631595 0.532627931119773 -0.8493698428680663
Ni 3.094945129538793 0.6703403554970663 9.718667745479319 -1.8517360075619271 0.3800951791939583 -0.9906401345061842
P 4.3680350418729725 4.288056988110401 0.602929881187302 1.4200141053306126 -1.7839478442733598 -0.10287497968937122
Ni 3.0173215698823155 7.448320642632154 12.934260142848178 -0.16243869818561701 0.4531543610734776 0.2782584109611143
P 3.083378210081076 0.8639844152005206 7.060881162889854 -1.089291563032511 0.17955993124693592 0.07756426883872448
Ni 1.6527894598642232 5.7558504824957755 9.529080516493588 1.8455103383671896 -0.12137740936893289 -0.5838679602416718
P 4.492169203355395 2.2149623006165844 3.9640402918664313 -0.528684887311625 -0.0244686745653256 1.3455732126122182
P 3.0577030124479507 0.08917179265303621 0.8431583542382806 -1.8550000230251793 0.5106295724718108 -1.4347233865163291
P 8.537591836540534 3.8048064160651007 10.937908882690227 -0.2294575874083274 -1.3838335416449974 1.2757608198047707
Ni 1.0063219928214497 8.056219253841762 9.073272881307101 -0.24115790656439112 -0.0038281154968385685 -0.43019466695351066
