# total energy = -340855.19867396384 ev
CRYSTAL
PRIMVEC
9.36729810179952 0.00000000000000 0.00000000000000
0.00000000000000 9.36729810179952 0.00000000000000
0.00000000000000 0.00000000000000 13.70998763298297
PRIMCOORD
 96 1
Ni 4.991018196349563 3.1672427277396107 3.040038566619014 -3.998317383909372 0.29745015339821673 3.0840001896356437
Ni 4.9119019966953354 7.506559261486288 13.519145011997734 -0.42014345336509584 1.1778781511236682 -0.07485535454799366
Ni 4.455021399734012 3.8917563983832646 9.267897004688324 0.0757261871887212 0.20426591863404822 0.7690935744148174
Ni 8.679794612456309 5.393858850639179 11.035470558227777 -0.86635660723405 -0.28328646030332505 -2.257285622273248
Ni 9.074841674736415 8.4123863539281 8.497409571756844 -0.3904155872833599 -0.4150701526072465 -0.4811842706275003
Ni 9.051348491130826 9.35057746126517 4.345174841971133 -0.8800130216752199 -0.860760344093195 1.1310136253616458
Ni 7.248396526171282 9.267798648058395 12.791226328498965 0.19133584083594146 -0.10902094468610903 -0.9101540640349743
Ni 6.807824395181781 7.358481013305605 8.929849951275845 0.12318746599447816 -0.1249754111328364 0.1424008056981354
Ni 8.471962369770024 3.723173134687178 1.5233718392953286 1.3419289309914115 0.9607708577505776 1.506249933801406
Ni 8.74127218981017 3.0301242183223014 8.145994447242476 0.2994617845116068 -0.32676150076782434 0.22957251571963688
Ni 1.3027007778491466 4.828008475016046 2.185043117253649 -0.9482907230056958 1.000133161598284 0.3586231253631114
Ni 0.4703947979133901 8.432844532953062 10.778284832103386 0.337771992945715 1.1461967608599872 0.6967985243948323
Ni 3.0457863407260275 5.191787496277231 8.04458220467835 -2.504950219607905 -0.4928213406457964 -0.41595692608757395
Ni 5.000207515774237 5.3108739568744605 13.801296460987203 0.09438056906511488 -0.05810641722442896 1.022493017350723
Ni 7.026335357688788 6.55918820202263 12.643418795233035 -2.45403337815338 -0.3338217500487154 0.14892138042547257
Ni 8.560164848569954 4.239639114788513 5.970863804825922 -1.0189482374222578 0.2538851243230724 -0.016507510736719955
Ni 6.248577964710937 3.1896961412573925 1.3825701082696786 -0.17489286478856977 0.794160287575458 -4.305380892027636
Ni 2.9360484436209733 4.509754522464257 3.665118368054802 1.7545763330897781 0.43682554200646706 0.8366475102053913
Ni 3.3942498296127543 1.7981840102325723 6.788116536733695 1.0984462329485856 0.7531591625727481 -0.8408615482867389
Ni 2.390319024291623 6.41872556718778 13.71382650489778 -0.488489546039662 -1.6640112811160117 0.44709555647390736
Ni 1.4069869074667793 3.5134112285946917 11.804216610444632 -2.5222383172643914 -1.5734359447295998 1.4634251253263957
Ni 6.443895497151184 3.1542783871853306 7.909798962674467 -0.3610972979352168 0.7186696134363106 -1.094809921747579
Ni 0.12562108774366515 6.731565221444501 12.398215716823266 3.3104056204812085 2.2492666086235134 0.08321966735228895
Ni 0.6166127006937255 8.94935734954484 0.28641356961966885 -1.3396056821748736 1.2326465051137996 -1.1927812934877458
P 4.917269458499961 3.4070923952918863 13.192284385962365 -0.9882698345017947 -2.0249311729331 0.8957044642685477
P 3.0373838743407746 1.889487064699748 9.776112268633439 -2.16174702834429 -0.2015690885281754 0.4389575007478053
P 8.15397070156471 8.477226791295678 1.0408070477055504 -1.418259584533351 -0.9537082944768412 1.0785052710502845
P 4.615024218381167 9.081707904235179 1.206166087399626 -0.1720489675818714 0.5083726581168342 1.3635848186982904
P 8.10585089128484 4.736059076980775 13.108311242249325 -0.5244531086184645 -1.46418925718593 -0.5839468931087234
P 0.7367876413288222 2.2526665788832774 0.6755929563772307 0.9138803638466261 1.0174508269411253 -0.6189956571827403
P 0.2973133576752762 0.9014001073652563 7.670080437295428 -0.16198592691891456 0.7746016487172401 -1.386349880308948
P 0.41219202797121834 4.982034957482833 8.981289531998227 1.429478593177622 -0.6181381942784516 0.7853403752909829
Ni 6.438865258077738 4.036434317357875 11.80782302020865 -0.0619864690051255 -0.9915924711171246 1.4298611733280213
Ni 0.5398083502077026 1.4027903579231973 9.727304898673884 1.0341113183159416 -0.41094533180559556 0.7110478352249948
Ni 7.79670195247493 5.2227370491611484 8.399601865497116 -1.2001145939243656 0.1839881422216186 -0.34544750721310186
Ni 5.2315235747680235 8.104576938744824 2.9998004009506856 1.0049622075558111 -0.9561138185945404 0.46215039392450086
Ni 5.555632088625033 7.821403517533916 6.344639606606996 -2.0582598689922165 0.3378406414001214 0.5370875095530233
Ni 7.147267176009424 4.785602716570073 3.340767241177304 0.2433178903301874 0.10573096108092758 0.5740342619807016
Ni 4.464576043784131 6.52694596200252 9.174586538240815 -1.3785725503563744 1.854121219964652 -1.5757766770476345
Ni 6.065925019286145 5.482108165929551 10.226417022336738 1.7826653780165105 -1.0220615862402591 -0.9795733351690615
Ni 2.3940846781231406 8.360931785528777 12.825391674816613 1.6159817885116106 1.3964077787655822 -2.7400302954093325
Ni 2.6587014818210215 0.2789234780682219 8.254907085385947 -1.5314056071314273 -0.6361778253889818 0.9560585398765727
Ni 3.5109007927070133 9.118109224606517 5.341150937755635 0.5388363739233302 -0.7507461822558813 0.7922551001329452
Ni 2.4335116357770183 8.746396101864498 1.528101388100138 1.2346645639850928 0.4903404832054717 0.8549452800733147
Ni 5.705134166115146 1.399539905486539 11.221638113895319 0.17931439089503312 0.45320501180575495 1.5416658514068546
Ni 0.32231373954328124 1.090372232080452 2.3836598120806127 -0.9691423696437245 -0.540777556810101 -0.5119403208634344
Ni 0.7948395977717716 4.608083050497697 13.622051338606951 -0.2476203743602832 -0.20664238928602477 -0.0747270565002455
Ni 1.7737821987124132 7.071195348233911 9.215757686798742 0.11166069630180124 -0.1355670706057536 -1.1202304187032126
Ni 6.251153971685234 3.323030262247008 5.4779621997956465 1.0640189045086514 -0.9251227695296648 -1.4856453701771768
Ni 6.4080281127708805 9.593612010167485 4.557117455058587 -0.08280443419174126 0.9112894631909982 0.6376410401980696
Ni 5.197941811121279 7.258944103818767 11.16537250119782 0.38076829400158296 1.1644081416616914 1.4857147899625316
Ni 3.7037547257500223 0.48503869501491215 3.1559710579498956 1.7847947656546874 2.0696827661171775 -0.03563240449162895
Ni 4.850162134995001 1.6540774964413516 8.805061616332235 0.296502958993599 -1.2691116899193693 0.4068050843849768
Ni 3.661573782458169 5.429501419865361 11.935956417299609 1.97574931189181 -0.463904143390814 1.171789007506795
Ni 2.176145120799523 2.4027306942586906 2.8965090783900362 0.5829395348901316 0.5118449329361507 -0.5895920072096427
Ni 3.6190087799446937 3.011970394627074 11.494206816940402 1.3243071041445902 0.23061664071343507 0.14113016651582794
P 4.684389060725421 1.8075606756190135 5.053501821518112 -0.31871369076268335 -0.18514488153388112 -0.8909852044160075
P 7.534651788453258 8.076493779075943 6.085986961601971 2.206326100506245 0.5776430623778825 -0.5021338762959738
P 1.2250177748024362 7.082754594074938 1.7787337524819162 0.1792470279922074 -1.9262332074395538 0.03154100803107471
P -0.42918243324387273 1.2661589480064823 11.721600788224595 0.5952180951471685 -0.38512579963933025 0.24047759266791485
P 1.7681711871574899 9.344282636949798 3.7134601832993646 -0.6917694466113571 -1.7813461449844545 -1.3740687489487495
P 1.1463980419468907 3.2872565508475877 5.804575529161482 0.2514991405893991 0.7355093107014687 0.06547519888467433
P 4.66277870403559 6.265804425895419 4.069411890277921 0.09775359930240585 -0.830168587349267 -0.5944017698934603
P 6.096331268880938 0.9448231543836249 7.312578442483249 1.616922555158325 -0.6721807258461521 -1.2763012656892727
Ni 6.286824642805683 5.684469906532239 5.45523151425445 0.027711864092971626 0.15938191363716422 0.43133829363965065
Ni 3.690134674329557 6.406538712374832 1.8718381383714822 0.9203873117272084 -0.4815254560170029 0.788873585255222
Ni 1.1850100446670813 5.44134168464904 4.952513917557388 0.606182307468156 -2.15143844732943 -1.0519791997352979
Ni 7.923151109369606 2.6003338474324944 13.401362479294402 0.2935719013897331 -1.661766450945893 -2.394257800756644
Ni 8.021432800912603 1.8078229599654874 6.072084954509045 0.17978361722196778 -0.9936267279383341 0.5987165952187302
Ni 9.415164981584363 3.2380876031818238 3.835451443033793 -0.40919775298686945 -0.3853667120055428 0.08189040701790413
Ni 0.5395376352929493 5.971109228035837 7.052444827650455 -0.4964324550358224 -1.0227059046924776 3.002247079526552
Ni 6.4249267185222685 6.228269662455388 1.6012721636576888 -0.08298775384714094 0.7369357587353501 0.6120320813807136
Ni 1.1571329655561429 7.583352371214605 5.824126017001683 0.9519296053098638 3.2505565095340603 -0.7886678970023192
Ni 1.6989093850922086 2.8927340572604296 8.025155365172916 0.7381991988288061 0.42978946109529204 0.4195664978157032
Ni 7.1804742477326355 0.8958612240056133 1.321410082321014 -0.8797497407115042 0.6798680671880807 1.4458853166704195
Ni 1.6847647649787956 1.2558642874073822 5.254298286610236 -1.2948648876240731 1.5153848062231385 1.798097910521497
Ni 3.895044320012276 1.9897077869470352 1.0620829918536263 1.9928342923985551 -2.5005196946403774 -0.32385178332019715
Ni 8.541355314008543 6.393949063744086 0.5583443596649352 1.1216193286309393 0.2774497990168899 4.0405444108993835
Ni 6.840272715759836 0.20169385224898773 9.484884844526166 0.3664973859048656 0.5516340399086307 -0.28579508565779166
Ni 8.541580129162663 3.2231280281347243 10.628969163845232 0.3081302588198822 -1.5003651928858546 -0.17165636012914307
Ni 2.8456259151741032 3.8257450487546416 0.7035749492267583 -0.18314430616408459 1.322745416084425 -0.49690116714212496
Ni 4.190376494141866 4.025174825055674 6.12999640148067 -0.9294993013308057 -1.1061898814497464 -0.4563556416195947
Ni 8.712355340611424 6.938797957053132 2.8266159204336 -0.33693021377071003 0.06387443005645774 1.3247501052192798
Ni 4.222553163075358 9.215042025224793 10.480613643641135 -1.6458230402427592 -0.2194950768789768 -0.10239752583232042
Ni 3.4154011886962556 6.188758399118716 5.997488476182448 0.09421139047710227 0.7568646364487933 -0.48171263232714456
Ni 2.016966624384142 1.4234827194003687 12.138027771661559 -1.0155309842105928 -1.7369110545995312 0.3551058562384723
Ni 2.1214588345597187 4.877411605134019 10.537318582618978 -0.5438091445475731 2.203642383026495 -4.57276765038157
Ni 2.6327446988181955 7.039908572618812 3.993637005851808 -0.7977598320012584 1.5811945056290961 -1.6265006857650635
P 4.84982491226382 0.44060772672223675 12.903401596566608 -0.5803108390180328 -0.8323691945450117 -0.6157295848369589
P 8.637847851616664 6.341173706314306 5.104296932132015 -1.208667625700699 0.28216803042816563 -0.4324310124831972
P 3.431203820571307 7.928471734683789 7.266101656288078 -0.2946435371873571 -0.49855104404072204 0.6193399278960366
P 2.8385442378193084 7.10043068556766 11.045135736395338 0.08839452668500906 1.3423102255902302 -0.2171628292013744
P 6.951537482453291 2.591135160709732 3.2164182325140374 3.088191602009172 -1.5661928900139412 1.7883770836893071
P 6.539751058489298 2.803079647256804 10.008921474942508 0.42628556170709164 1.0422727710808115 -1.5811790790101286
P 5.254670168344344 5.253705336641243 7.515965902226612 1.1797735683741681 0.3051390374020422 0.5859433547134618
P 7.861804674188982 7.617439968958121 11.108627282838196 -0.4215493325736869 1.2010206506784025 -2.539132521916569
