# total energy = -340861.2732695551 ev
CRYSTAL
PRIMVEC
9.29781756583462 0.00000000000000 0.00000000000000
0.00000000000000 9.29781756583462 0.00000000000000
0.00000000000000 0.00000000000000 13.60829584540415
PRIMCOORD
 96 1
Ni 6.95277786927769 9.039319723765933 3.550336337973408 1.1140556573510685 0.24429953751716635 -1.3565435955807927
Ni 3.331203512032951 5.697358636711846 3.434624997318246 -0.85360007889933 1.4034412885735956 -0.45067633184663025
Ni 8.05032945596294 6.531819175170623 2.4443088607183516 0.8995490348256185 0.8156451969221115 -2.297792581248359
Ni 5.118234766559383 1.5385284821929242 11.553075844076211 -1.9550750713719103 0.01747450263567958 0.8793645894579435
Ni 5.009757128035979 7.704255385209563 3.6161593082453365 0.024952299069963477 -1.3799360063628041 0.6979305811167464
Ni 7.23457612661611 5.740593488784688 5.815572949878408 -0.344420094389852 -1.08654613907689 -0.35414863453152556
Ni 9.263248364050298 0.39603868324134095 6.051541334237854 2.2627957534581995 0.418812393258498 0.28767790450280134
Ni 7.8642987204202734 8.297167918937085 11.937333262573146 -1.524063564944059 0.7403707525588281 -0.07202868373247595
Ni 1.0251029915558783 2.8222967607738405 11.926269789351323 1.6056639515253701 -0.33148667415763555 0.6358255842558856
Ni 3.778605199536827 7.904428101397989 13.144565625385718 -0.5018847363996453 0.47990823212855405 -1.586422843907571
Ni 5.159061483860856 3.9713024703345954 11.504970795118263 -0.5847475346331478 -2.694791478176191 -0.6568752058373333
Ni 7.178361521103768 9.086580530881255 6.119365194868077 -0.7373196244373301 -0.4507904888269914 0.06886237018935237
Ni 4.593224195130346 1.9233837503647568 3.999696145874389 1.2337880749174106 1.605321737694603 0.18595452191937006
Ni 5.311722351857409 9.094548760607367 1.1175484031052616 0.8658367301748379 -2.4122436958111035 1.5441194551536697
Ni 1.763749519130649 3.0378666629907896 9.467060246066964 0.9067476094565867 0.15667017113295598 -0.3791392430385922
Ni 1.5952172764054209 2.682392498593188 5.033654378960197 0.0010793491071078186 -1.3547391953822023 -0.2938832619825648
Ni 1.2197621018778122 6.349554055776236 5.53340556917928 -0.604132624027979 -0.8314893630432195 0.7098797830588226
Ni 3.4318709837302945 3.1269955429843916 13.571580917910042 -2.0454696592060837 1.041042755328452 -1.9954077095526863
Ni 8.64032247494834 9.012997601998576 0.46680530315781354 0.682552041778147 -0.32798663142417706 0.9538404491793315
Ni 7.3117666087470194 4.999529528620898 8.183239899707207 0.221139040240303 -0.018227064530987967 0.5869676822129182
Ni 3.5058351231366274 0.10181296283183232 3.2969773154812665 -0.8483773970478098 0.23269794872249602 0.5636174375227518
Ni 0.5183347383562846 5.940292016272961 9.009807520762836 0.8720541718394593 -0.3181997272407423 -0.12152601913165521
Ni 8.695319066348523 7.197347664745217 4.763855885080961 -1.7510912027546552 1.9734471461211947 -0.5503454030041941
Ni 3.200457600237621 5.605449709240873 0.7757085585097279 1.0175415868827187 -0.47598421448379963 0.296220908976806
P 3.2396386038150298 3.598934171266811 4.071820247167772 -0.22669827949563537 0.5007277399770667 0.7297204719338336
P 3.5646438197733405 6.834584011309959 5.469595576428592 0.6043555386720624 -0.946111198855874 1.0327136666374666
P 4.046159200235335 7.539367887003163 1.6866259812868214 -1.4122156923321163 -1.694331786476424 0.34137282292309595
P 0.34667935868239697 5.104464698619625 6.872584192045808 -1.3016543997420809 -1.5955422897103362 1.980243600217738
P 5.240101262498894 4.23715497040314 0.22414063052678632 0.7693637973570685 1.005891918458932 0.10699003029900929
P 0.7929058020353034 3.62804563832919 0.4577120374960419 0.23505282210791778 -1.6365688686343427 2.1318458699094833
P 7.427849862108183 1.7359676399922301 7.506594939350185 0.3534359247352171 0.5573999958581303 -0.9713164944769078
P 1.2805233402210412 0.41961887858369173 4.156232344267493 -0.003500299843774617 1.1974236773557636 0.012524357719255851
Ni 7.325332124698476 2.8625563111986576 11.58332722358249 0.798037254032361 -0.3854893536263361 0.8522379084444807
Ni 7.004343565964997 5.232105139319831 12.714843738143458 -0.268596462391318 -1.041696072641735 -0.16274285968959712
Ni 9.167955030954698 4.192841571482891 10.246366130225505 -1.3055347086330935 0.5102403074531922 -0.3349244961945909
Ni 6.761726312203986 0.6333431639971009 10.339678098379876 0.4314665916873988 -0.6722612013751003 0.7509894086149389
Ni 8.579365982434458 1.4284702146690067 4.046400013712472 -0.028841349711724522 -0.4057031095700497 -1.3621519429065057
Ni 2.84633161939928 7.407394663278023 7.769778965753158 -0.5069935183811204 -1.315253478582754 -0.05831519080112537
Ni 8.15430695074371 9.334079138908557 8.69446273734295 0.2067704302234568 -0.5393454523492648 -2.4049836718145805
Ni 4.878927535881798 5.877224919152515 7.514500873698042 -0.09349559535700028 -3.392496830656009 0.47028999231249974
Ni 8.675542608206817 3.32092012571197 5.418728145846806 1.8602952099858479 1.243465964326807 2.95786701074928
Ni 2.5740822207874845 9.105343526899103 1.2378333402624944 -0.757010160887722 0.0026747186186857163 -0.27757269774799936
Ni 5.076069163516301 7.815568858116239 6.7965410606129195 0.4264154024167366 2.1830236783348793 -2.495627399545083
Ni 9.005085159178364 1.9185953742749693 9.970634698903757 -0.5204599282986714 -1.3759099159225465 -0.013527859283105733
Ni 6.846299261549052 0.8483551971550454 13.074959373111975 0.22582127620732076 0.6285575898395627 -0.413015841181379
Ni 4.202102197862364 3.851946385160605 2.217336114935353 1.0224855611515553 0.4250663445880099 -0.7444469795107308
Ni 8.50990198677076 3.668481847289359 2.983850061570924 1.4341099213020463 0.5778181545031661 -2.1601912538213957
Ni 4.163023470279106 2.392440055175653 6.6115228574123455 -1.2985667619556926 0.268162460177693 -0.37213710068914624
Ni 1.4219989335845558 3.8760277328742943 2.6349197012354444 1.3713829745864703 0.3706278631334714 -0.5812454350171603
Ni 2.690844214837105 9.088895687476123 6.196538011145451 0.5055660419059744 1.494691025319213 -0.8411741944311513
Ni 8.958512390569146 6.443285355506625 11.24130979066984 0.4561916052379047 -0.31413609869432996 -0.601373573225603
Ni 4.95037196670496 1.749812090473189 0.8112764301483182 -0.460659154090955 3.863558925247843 -0.6538112222000289
Ni 2.0413451628912367 7.76113013577506 4.330105253450923 0.9667103631634641 1.5396305661443805 -3.4556526373788876
Ni 1.9163174089507014 0.40204786278858323 10.34978947507433 -0.633491022585438 2.3843693379983386 0.3038290603413671
Ni 2.284018203558149 4.7268152391266 11.47846178721614 1.3440351787011369 1.193445666544622 -0.6686883964221774
Ni 4.5555401401946 5.8573182915637085 12.215718291052223 -1.082207659602536 2.2593635878481995 1.4678101417679688
P 7.964055005987909 6.8298421243084215 0.10289708836983086 4.364237814264845 0.2990144125615431 0.5570035317506601
P 0.4098831337223 5.656978214657578 3.49984918813351 1.0178997415530857 0.347313356777247 -0.3599858100385929
P 6.499248919942416 6.0696432554207815 3.6756411668799154 -1.453338430514355 1.136512700803004 2.926295920811218
P 4.843995634970472 3.776987379265714 8.275000991877546 0.23651577980668947 1.103885401686286 -0.7634492316448465
P 5.420795050710418 0.20994565232041942 4.925305050320363 -0.936194196852478 -0.48699136422758066 0.9924334789611811
P 6.968305224753313 4.853442217702947 10.586669045563482 0.8732888155775089 0.4793107077538713 -1.8377772313889897
P 3.080803984898828 2.614713683918305 11.270567233469325 1.4220355066360153 -0.5650361722471494 -0.4473002162855458
P 0.0658713189237091 8.382428906788256 10.150672990970952 1.2779773678401152 -0.36137934795200993 0.14173231887620108
Ni 0.21753732043170426 7.439481431988425 7.397156836263528 -0.3850224412922466 1.5183086647381527 -0.874772342101571
Ni 3.962915838814229 2.0260037637686157 9.141331659895476 0.09890751040119095 -0.3901692756005087 0.9067483807875351
Ni 2.5271282416546144 4.804396229598811 6.209478713750823 2.262147064130607 -2.311244850098523 0.9077261713197722
Ni 7.456375566658609 3.365047568279218 0.630306496752587 0.6336591727321861 -1.5204413948104396 -0.5763641956654589
Ni 2.840092783756081 7.750697984371678 10.299942015088757 1.1975452905352924 -2.139444765302664 -0.0026806321559566734
Ni 0.17041784014466294 4.79426160836023 12.473595123140536 -1.0848533247554994 0.3769260374373573 2.323139030432947
Ni 9.325990037552993 2.9642744362904594 7.73890184311903 -1.374411477000149 0.35602502561863203 0.3212552262376145
Ni 0.7971837279361021 1.3895216565328499 1.8155643973309772 -1.6071809023905288 0.5346645019338276 0.016834040838203265
Ni 6.194587329002466 3.5650715193852442 6.13048259543227 1.4118086867016848 -1.6563583925564442 2.813731995968857
Ni 6.536402999272108 2.691746103149162 9.310632832140367 -0.2886114720606642 0.9592389944870836 -0.67408025686171
Ni 2.9089710169078233 2.041038334908784 1.9944860214983975 0.08619957591621928 -0.8078118169206218 0.5486739288390422
Ni 0.12316075215640054 8.447151015450416 2.8105210747200227 -0.4687663565791217 1.5774720624721865 0.12693973394805882
Ni 7.4708615665574225 7.246607502655306 9.689827588926834 -0.1954714602708698 -1.026595983775503 -1.279924721374473
Ni 1.5348558442211453 7.032144040738716 1.8175243772916128 0.02400381911376511 -1.2335281363878048 -0.26342700237523664
Ni 5.491328295403874 0.5521332352960661 7.687829860548943 0.9139742091120131 2.5953792602244397 0.051155182717576415
Ni 2.9567803952645004 5.394538013666611 8.938786140642751 -0.17162859221500118 -1.0552943801514598 0.4350085434023863
Ni 5.391553414200937 8.173172222755708 9.280395399360563 -0.7962693634986608 -0.6779397398171164 0.6240589306382607
Ni 5.0504071868021 5.948725136881578 9.9671926468097 0.5441433879585403 -0.2731673695914521 -0.13796025342827856
Ni 2.6975851326334075 0.8777995260892973 12.783864227905248 0.017900791539820785 0.45863749567523593 -0.7428462106825142
Ni 1.2954277419141085 0.31120911412913244 8.047210967923105 0.3543190986711188 0.7274751275430826 0.5488091688653258
Ni 4.87670535746343 4.812550415677924 5.018780660065374 -0.927214361951371 1.5677239819464872 -1.0556232242457884
Ni 6.477836045894298 4.625636387458502 2.25433678027382 -1.098832926864043 -0.7863528757158973 -0.38192966129953576
Ni 6.070080252850334 7.1648517920582115 0.19661258181021438 -3.009798666621565 0.40646724142958385 -0.08420697096622272
Ni 0.9861916246903215 8.190763693749647 12.22667297980754 1.1685476177513618 1.2787638682971525 0.3933800692283225
P 1.7194919071163002 6.37285438680732 13.084145616950247 -0.029478726185407294 0.07156897048723802 -0.643430393186337
P 3.6379850053971183 9.208818939526768 8.533599334615502 -1.8125408254197042 0.09088001211102413 0.5567019413498413
P 1.9454102803777806 2.3798043209892037 7.157896094674192 1.199127547420748 -0.7965205602775185 0.7264675122141747
P 6.83847049908769 1.3666490251136698 1.6497341004148605 1.9859049122685735 -0.4167511398540952 0.5913640115084009
P 9.085297432045545 1.3111689471956824 12.085309890037593 -2.7082429756954065 -3.3250699073616024 0.9632352601306701
P 7.081980343343108 3.288591613742665 4.292532772326977 -4.2739414425714335 -0.6303046544376564 -1.1446461285434157
P 5.569783280735192 8.427746470014712 11.47324943064151 -0.38852762623202763 -0.23534207121356243 0.7949316185238439
P 7.3534580230899484 7.195264953591602 7.330762050206119 -1.1489619823099504 0.47217229693687707 1.141771635209098
