# total energy = -381161.78136908566 ev
CRYSTAL
PRIMVEC
9.32363565901005 0.00000000000000 0.00000000000000

0.00000000000000 9.32363565901005 0.00000000000000

0.00000000000000 0.00000000000000 13.64608323450025

PRIMCOORD
 96 1
Ni 3.998515749120391 2.8781037734640003 2.136103672480637 0.09021486772319946 -0.2713259455073392 -0.45458723686526226
Ni 6.660273880337797 2.9255237845166717 3.2820465597110595 2.066830641380363 -1.3102280003437048 -0.4868972618518776
Ni 0.7906536290360872 4.295147218180698 6.892595572316745 -2.882012268402495 1.4397576065061268 1.4751167027317111
Ni 3.758441454076108 4.6369889966382525 9.626547546943891 0.4327189760372612 0.1970102655128994 0.35089464637060214
Ni 9.122981713489246 3.0112825854727205 8.718741503264093 -0.8149083187560869 -0.14413321500820983 -0.17455605027444132
Ni 6.287645456875147 4.38587551695253 1.4599946371894341 0.34430465185791026 -0.43420584499543285 0.2668591679852372
Ni 5.116242517701836 1.4952407771387877 11.393305648083711 -0.5182122699150753 0.8761409403143234 -0.4559676621525567
Ni 2.6319318206870306 9.085948232580632 9.657483370119817 0.26664319531968916 -0.07572053076176638 -0.6260301954320187
Ni 7.544061306150355 4.763380201874196 7.963239845457023 -0.9383063580994744 -0.07032147123338212 -0.7450167359712717
Ni 8.432342724359176 5.51978811706906 10.91904959574294 0.7584867454332486 -0.0339645298709028 -0.12645945187753058
Ni 3.2625265960579193 1.0991354390417236 6.448975122083106 0.8349624091934846 -1.7132484208752687 0.5740969968978371
Ni 0.20115464263823385 5.604940881706111 3.669895818416236 0.5737882074081666 0.36000355065040573 -0.19995520707383627
Ni 5.020582015656928 3.397644724287433 7.99406658209553 -0.1187757100800277 0.35514339434462705 -1.1897070254377962
Ni 7.162687312422781 6.854373327859327 9.484969071553861 -0.4602256660979623 0.4138337090969841 -1.714580252312815
Ni 2.573062385023137 6.474668264917916 4.930684452823907 -0.2722525710866666 1.1039008283052536 0.8890599623688367
Ni 3.8682738823498917 0.7400896880331684 0.16939181297776715 -1.2626206828783868 0.9737880959458518 0.6112604933220118
Ni 6.028653505042452 5.618516095251665 11.097227070619043 0.04500047597009024 -0.24059097831732754 0.21819384156905003
Ni 3.09002068876407 5.085353312704294 3.255737124558007 0.24912087016520967 -1.1314471133546387 0.6709309125994509
Ni 2.5466764960575334 3.135809063573285 7.081347914777577 1.752602754303175 -0.22630927158733286 0.8276244807711746
Ni 1.5246941422420883 8.893825395822603 0.3745369716857106 -0.22037362282918818 0.44344870374993955 0.7299958370824072
Ni 7.1658480249172465 5.448499598683546 3.4124898170121796 -0.5047499737625823 -0.4677155467171042 0.05469713443256386
Ni 7.211710988811877 4.0720046455256504 5.606097944893613 0.03528324868232633 0.2631603789774113 -0.3613042717397003
Ni 7.804032239729125 1.121558782844648 4.238991892862347 0.03573010641175782 -1.3305996220215215 -0.6603647070478305
Ni 7.396766509726821 3.9513940944093804 12.61263766881765 -0.7411971051148654 0.3597572389675546 1.4023596254736428
P 4.858248194886568 0.9505260099877478 9.062036836523676 0.8688366933434264 -0.4601382485904785 0.03220563819826711
Ni 1.6384984393142275 8.839366039833878 5.120447477392114 1.859366270413675 -0.4724965130455153 0.5440042912775147
P 2.085967686355288 6.9004134408318185 9.515536611120549 0.2459581561665119 0.06865616771581724 -1.0329913457788855
Ni 2.2340270209043265 6.650912950118198 13.552771554479934 -0.7412384998757622 0.037299764891722854 0.04104457664613577
P 4.504677282747484 3.004103386001514 5.584496013393823 -0.41980766729223185 -0.10677174364061612 0.7561953782959105
P 8.722727357515964 3.4832077288942673 4.004688928302061 0.07907299217376704 0.07903622539856066 0.695408328915525
P 1.228733974950517 5.94778961281677 11.445966474750362 0.8751109563879123 0.14258412535353507 0.19997474745786203
Ni 6.384471413379666 8.703772406184845 10.678100743672166 -0.4973971329419369 0.472180010246361 0.9943723478551069
Ni 8.069196438379922 0.8457171566166738 9.62022985140923 -0.518607705581281 -0.17662193166453452 0.42543581211228665
Ni 0.708451795090772 1.3577730927186975 4.400998454020448 -0.5378814662092285 1.5737323929240963 0.04905741964828326
Ni 1.3096538089902598 4.527436277434776 9.539458263176751 0.6753390689694756 0.664191022772456 -0.2883106529907938
Ni 7.6373722520046865 7.6285427690186705 3.7894761077902097 0.6672478073209089 0.790427045785271 0.3480139823886974
Ni 1.3970535698254418 8.031333153896066 7.326608948348914 0.5579090742840649 -0.7390263227157917 0.6392019569272862
Ni 1.348850373375912 3.355585803748975 2.8875523458589623 0.45577482941546027 -0.9213866995260003 -1.202019267146246
Ni 0.7192905215651585 1.6433187589591804 10.346432916465236 1.3079024375343218 0.0844190869770288 1.7858376050969051
Ni 6.292018242007608 1.7407787226897289 5.777137244295488 -0.7561616968444977 1.274565771055405 0.9506641083338788
Ni 7.6622383883549565 2.2532989758484616 0.9870084640278571 0.03224497607663479 -0.9933307939644701 -0.28678676014709964
Ni 1.1847357381912655 8.835338229221462 11.608259271523746 1.9812345033760976 -0.5203881945204715 -1.0397392060256803
Ni 2.955751011381154 1.9312139813902403 4.332290717990299 1.4556711924125898 2.4302586443312855 1.429754472546828
Ni 4.140486749572419 8.421200979725288 2.1625082087175937 -1.0700059753300217 1.0794964313189601 -1.1149681418630086
Ni 6.963021654402145 1.965552931588232 8.076434376755893 -0.9699463536022586 -0.21987868547064066 -1.1260627091142736
Ni 3.4632924430884264 5.455296529092 12.193321139702965 -3.577751755405193 0.29098819982295693 -2.856039498487817
Ni 5.204211020313308 5.2810191310195425 13.26804543581545 2.45512121190092 -0.04352414853487988 1.907483437635876
Ni 8.888790632557082 4.161101308054027 1.5480666321569203 -1.0734309418511705 0.43724154649796304 0.6632386861615158
Ni 4.750653439175238 6.140322689544583 1.784403081658337 -0.7413811961012134 -1.0231216520736572 -0.454852574711507
Ni 1.033972549295928 0.9450343885740587 8.182791886012899 -0.06162342923875193 0.46271217996524183 -1.165195156339361
Ni 0.5973933087254775 4.70139667189422 13.172837130100874 0.49655689642882866 0.3663860571379819 -0.5097487125287543
Ni 6.119773396512713 0.45084253842895944 0.08193051614711752 1.2387418193782602 -2.0366834283730215 0.2873822276392535
Ni 8.814145605327887 2.288905940498511 6.355622219868229 -0.0765743941216294 -0.03233342202538302 -0.2442681700585987
Ni 4.9462073738623635 6.869058054050432 3.9499815636043314 0.4854533303164994 0.10591788028075305 0.7184518409985498
Ni 4.118688089359847 7.79804646562456 8.012339043295102 -0.070859088904407 -0.7909132413930702 1.9675850309134633
Ni 9.206754580046116 7.1331127400556795 12.752346755254466 0.1420159115548909 -0.18737145687155474 -1.604020502384676
P 8.732312054991809 3.4154621920659727 11.126143394307356 0.8112069586450996 -1.4931131393091315 -1.6313883528746678
Ni 2.5430589254148996 2.9045176333366345 0.21054167903772836 -0.4031618312054347 -0.5807186159794128 -0.1819932232787769
P 2.488133387642331 1.173015928145413 12.1346297854805 -0.26110992420628576 0.7050782479051211 -0.29902778229798177
Ni 2.1054820558270215 3.4059987018539277 11.379796632351463 1.2217869366914764 -0.2577890873631689 0.9119101274941327
P 0.4409958467905941 1.8922132133538025 1.3143249504643826 1.347026657229293 -0.2700753609296897 0.27866413103996523
P 3.524735202199143 8.068599725696602 6.133546271134618 -0.6856005987964838 0.0002812786858446769 -1.639784804468479
P 6.6251237738359166 7.38633336140438 12.525535331960562 -1.2890804197318122 1.9524564028021405 -1.7258843644717246
Ni 2.801985611797857 5.659530768594312 7.388494580154283 -0.2910295945838536 0.2693613655818006 0.4276577594642699
Ni 8.730158295150448 9.288979723080624 12.675819285982106 -1.9395715764196726 0.827067065605808 1.1134961853031726
Ni 8.289924189394656 8.607720311441506 1.2966753081280267 0.8700016601858049 0.8098213911514827 -0.11489360141680213
Ni 3.2758873659829053 2.270044225524159 9.530165395497592 -0.6988482078350093 -0.20974416813980007 -0.38071635771772494
Ni 2.3131380696227524 6.877020438918497 2.2088774460294793 -0.09932814287837731 1.2276487947888923 0.6178096072944392
Ni 5.07621614974094 4.192326163935937 3.7552247997675807 -0.9381081260457392 1.0684800256037985 0.1940000179316659
Ni 4.360934791516845 6.9266594752622686 10.264352289783721 -0.8653600476487354 0.7392559222280946 -0.725792340524021
Ni 6.704756946152248 6.691209703513724 6.071865759314141 0.4202357559685859 0.5287735903706894 0.3221985639874903
Ni 1.7593886995008046 4.22657187777716 4.9614431269219725 0.4941454587738587 -0.46373727879564647 0.38537751063882014
Ni 8.966503135923974 8.560850394893771 5.579801562830508 -3.5119644245967385 1.4321111457044626 1.0277974602827717
Ni 5.862683466358103 9.024169822585549 4.973642171841617 0.1755685506993557 -1.2597289631528887 -0.5249128218637025
Ni 2.247602234449881 0.8300012363197051 2.67077035746269 -0.7603219988697745 -0.31323852658072504 -3.436846817526294
Ni 0.6988232765272461 8.48724961486039 3.00376214093574 -1.035425923362307 -0.7381827437685738 0.031583431233235926
Ni 0.40361925608907095 2.3860395769803677 12.805948336760917 -0.30376581120359947 -1.4688221279722509 0.2879918361987943
Ni 6.259059189889797 7.8948164803150185 1.9175753671220832 0.35769110046714525 0.08521458629513066 -0.15627602101833085
Ni 5.562965873888745 2.623139632243722 0.03937464582708104 -1.4360431337690172 1.1548086708987144 -1.1762562992495291
Ni 3.60737990883911 8.960797070889717 4.163624283868193 1.1732144270994118 0.2896455697521334 0.8376443269010219
Ni 5.98315416293922 8.954056082295324 7.407298488587438 -2.779402112338736 1.5393847686821618 -0.9175431574101941
Ni 9.283665250744795 6.131250792030968 8.538340341279053 0.8738459736325596 -0.26122048164222106 -1.1774189520990623
Ni 7.439739146561615 1.639123122904579 12.005346388457586 -0.6176720532753104 0.6598510006362055 -0.9584568649054203
Ni 4.859684034780809 5.193665988362744 5.727874882833063 -0.5573069219236918 0.21842858328767542 1.9295699851222705
Ni 3.885848935600832 8.73342156763736 11.708626344858349 -0.2537275156992856 1.2354019563717498 -1.4255954560731319
Ni 9.205850187385458 6.428795977387609 6.049254078070543 0.21482518220713326 -1.6333673309779095 0.0776534861184211
Ni 9.244487333630497 8.181583542829175 9.507894959319769 0.8429629109004579 0.7258468479110403 0.25947238860286276
Ni 4.2633722677938515 7.801533505367718 13.564165969640666 1.8498051090878014 -2.068111564975316 1.0560150603675686
P 7.788844037211468 8.628120426302544 7.903524756037235 4.489942390254222 -0.7035900933953689 0.9590595314864255
Ni 6.84908682643053 3.5019389129691425 9.854833037038313 -0.02434860404769355 -0.10453745499345866 1.2472213176041809
P 4.697387508553157 3.898202752872714 11.599279678003331 0.9583288239679881 -2.3093969982565064 -0.770148498041893
Ni 7.418145606333934 6.064791916926083 0.1147963319081605 0.8450053952517835 -1.0952845473911523 2.328875161585776
P 5.648193227611212 5.982221799371532 8.038375295922823 -0.7099841698471709 -0.6118281929000237 -0.3243863156674284
P 2.6863072639546623 4.733954807677925 1.26527143844112 -0.2496201783991314 0.6244494812084601 -0.9670500058910702
P 6.502256902885838 0.9376407454822837 2.394791673790266 -0.0602525170331543 -1.4636727225608277 -0.7126475756119468
Ni 0.2631978438865415 6.478724046437364 1.1661071141088362 -0.6935028843626959 0.24055266888022442 2.5670487887108626
