# total energy = -340876.0267541222 ev
CRYSTAL
PRIMVEC
9.12505732564442 0.00000000000000 0.00000000000000
0.00000000000000 9.12505732564442 0.00000000000000
0.00000000000000 0.00000000000000 13.35544377100805
PRIMCOORD
 96 1
Ni 2.3508702277843465 1.5912548439289116 0.6978323592957614 -0.14658244787965077 -9.487370665144951e-05 -1.6301357114144894
Ni 7.050694421347997 2.0698458422164943 7.799632575812487 -2.0985472557573535 0.5029792550154047 1.6200752418546935
Ni 8.910262446211322 2.935585640922535 4.000155872765917 1.6638387600938895 1.302482552070331 1.1951310246668452
Ni 8.37470371603102 0.2838440282324121 11.6712154805916 0.18443808527484365 1.3705010862021492 -2.6099497018394473
Ni 8.420913005524008 5.0519875248043595 7.748561455860993 1.20878178268106 -0.3524190534349285 -1.2909881782774864
Ni 7.2412712402779125 2.7235740627076614 2.5556045729086474 -1.8566424437246087 -1.1528271216923114 -0.62357350636141
Ni 9.157359869232781 1.7082380768080836 1.8785901190333651 0.8393106588598512 -1.2364327116291094 1.8870148853688793
Ni 1.499794395945453 8.499288121530187 6.213620077225937 -1.3961426980296536 2.132748841339727 0.03442784266056651
Ni 8.902205020732982 7.072393807290795 2.0769588242780634 -1.725566061900357 0.6312605905930224 1.1203018953710964
Ni 0.42689481192015905 8.66311939790403 3.9337126815111274 1.391768737331674 1.1611407837643293 -0.4675761929257624
Ni 3.769488115173394 8.575947726788996 6.385477753883751 0.42939479676003467 -1.0940969548409545 -0.12015947780143178
Ni 3.1319294959819066 2.31619501055027 11.785163719457074 0.3151529699946185 0.3141954911773557 -0.9342165043008168
Ni 1.179267637902255 4.075569907721449 5.696337011539426 -0.7043799362865159 0.561844147672413 0.04839998856994245
Ni 3.15372925755354 3.1121098718154823 6.854748418781101 0.24793430605627623 0.2555386007660954 -0.286697542867403
Ni 3.287128468275897 5.428971011538934 8.370003399084368 0.9156806502801585 -0.13853000988881947 0.2643438577625512
Ni 3.5699596151627877 -0.2487262457257434 12.004900571069413 -0.4954595495995918 1.2103848655021219 -1.1798249904373939
Ni 5.188699131278288 8.536135102369975 8.241056303753723 -0.5842412844206906 1.4183508586955766 -0.02293912529467662
Ni 5.688542387707493 2.9821964329308663 5.8728293047322895 -0.8802804164039936 -2.788326411411559 -1.8464999559739685
Ni 2.144178557897753 4.012041259725755 13.319757433414074 -0.22565672560499847 0.2944735872683961 -0.8426862602003035
Ni 5.282449968610629 3.9628663266535353 2.972975562663753 -0.8493770419569178 0.1002758515036273 0.265333218259014
Ni 8.125836031919189 3.400479928402658 11.603863433642992 -0.8546133506551927 0.705529733620243 -0.13431185804241383
Ni 1.0862376800860962 6.8892356598375395 7.897928604119642 -2.2374086808436626 -1.083200619643425 -0.014041822805046785
Ni 2.5858130746595442 6.191250912087091 6.002497279579116 0.44665435517143076 -0.4832586366580258 0.8896420601245516
Ni 3.3360113995187772 7.509173793639817 2.51338749592616 0.18980963399940212 1.122810263615247 0.6424369189248161
P 0.4247768861517303 5.187166121674255 3.3160895747120835 -0.6194597413033525 -0.8268487789474147 1.0474322037945638
P 7.870033304360544 0.060220814772706355 2.554936618724033 -0.6242689897665378 -0.7992243323619267 -2.3727001291905263
P 2.054643496976502 1.3563576223395477 2.796162067458616 -1.721534829253777 -0.0372884520378132 0.9877949517479052
P 4.6476288665692 7.888420294551771 10.342041403552134 0.1221302283745574 0.6513013112939815 -0.28530194807145703
P 4.062630576658838 0.15899134605253828 0.8891720330048258 0.8876607680284648 -0.993748855338495 0.012634658044875013
P 1.1930920995100514 3.3631219443615246 11.331532490038008 -0.3895393553259936 -0.35805902532952527 -0.12232511799418289
P 8.097931607102925 6.651965923384791 9.179771009634592 0.35897382383431076 -0.6543573245114859 -0.25110704735730305
P 7.070021292427412 1.7463625656512334 10.09026465121551 -0.5876330837110589 -0.0675595922175288 1.233412950966179
Ni 8.254444587628944 5.990554404759127 11.43292738775903 0.6273352873966874 -1.1029842300282553 -0.5387412431063625
Ni -0.19343478683457593 2.5193735334276215 9.406372641753563 0.6231539023254881 0.4425387903411605 1.1792053545755241
Ni 4.244164463936393 1.1574678763306216 9.763550191907463 0.5712764967299064 -0.00884022399944929 0.3373048235013094
Ni 6.987284399095473 7.965390151754253 10.428638196065656 -0.3894750777469615 -0.04756489426315679 -0.4207985704505914
Ni 5.853094543597516 6.470742288050911 8.812749347809083 0.23608512002717405 -1.419096992832982 -0.36614823009556297
Ni 7.020517857297185 4.322740331200242 9.535386350001525 -0.32958431492860013 0.0502036174375845 0.24216912143772484
Ni 0.03869845493894543 1.7938037378617495 7.260273259322187 2.715101907598769 -1.5846459545128064 -1.7377494913404266
Ni 4.08074381513506 1.8590022713189789 2.2582454225063957 1.183742323213929 0.7087325568282569 0.2725906711523757
Ni 6.036864069880952 0.13564579979683833 5.9900762517635835 -0.40106766768056734 1.0873470377116305 -0.4828549734617039
Ni 5.613260666080881 3.1296938569760253 11.293657115255515 0.23024074543125508 -0.25897822257526365 -0.2660392431871031
Ni 9.32954969797147 6.619124842641255 5.435425164473055 -0.12040758925649586 -1.093710003815181 -0.6143185634220453
Ni 8.69554072601789 8.802084893498172 0.3626671845454835 2.193507865695654 -1.456733572238833 1.9368145824998257
Ni 2.875789141308088 7.615918712377769 8.845229988794529 1.8470666271107157 2.6043858345984243 0.3946244831583849
Ni 4.317146671156956 5.23519129754345 12.745566861212142 -1.5075835650111649 -1.69068467664214 0.8229039353670536
Ni 7.5265205273140205 1.1142242304168621 4.31720050899424 -0.803333469434294 -0.38505252319923366 1.0002630023079289
Ni 4.472592019994452 5.001717584872116 5.0721037133287075 1.7815942564395186 0.25352748387333757 1.8448881314021581
Ni 2.944519071888893 5.347803628039696 3.574771257806874 -1.3314701975519327 0.24356445912335473 -0.7446264425113884
Ni 7.495121205602849 8.779007623923178 7.748147178265618 1.904745212769107 -0.30255790693842727 1.2682904795696546
Ni 5.515850680824627 8.63455796897175 2.821912066277784 -0.4601801575720074 2.556484125821139 -0.31534168896665693
Ni 6.854615192946465 0.8188671175570201 0.47363244222310996 -0.9586913495137296 0.9931575016113992 0.9443461365356511
Ni 7.444997266585275 4.9643048504879825 2.187234227633875 0.4045993349829096 0.8354696878472063 0.6187663147807537
Ni 2.913603378207564 7.19166742951885 13.401119180630964 -0.059021729949846745 -0.5356119534487614 0.4746868358286148
Ni 3.2292664807808245 3.006916212795896 4.401941264880022 0.395074683321926 -0.4353965228694244 -0.6178160350523425
Ni 2.8403200441004945 0.8464019775580265 7.833769414673718 -0.975177520094211 1.2627384394031738 0.27680445212340715
P 6.009516273551866 6.1807570963452 3.3931506824862345 -1.440061768010107 -1.1185993108576928 -0.7353013084557207
P 2.2567817633368312 7.483651008744103 4.363343185569912 0.639439269749073 0.05751043551164289 -0.11942825606236204
P 1.4663601864860702 9.31148208478108 12.332095920890154 -1.154609667514031 0.5899776726838355 0.4256661829555378
P 7.14374262927849 3.2757951472746543 0.4555785166184733 0.37650797606333225 -0.3729310573453513 -0.9867127744273201
P 8.267584669949224 8.610212316450562 5.731327955751475 -0.0869397965163535 -0.06577781772675768 1.2941976863537192
P 1.2937871053463743 6.143535988161569 12.54539595717699 -0.48291488016536194 -1.0089538452137075 -0.31551395287846307
P 1.561516282622108 4.341820825736151 7.865514576051514 -1.4747896584095956 0.7791733272483226 -1.2852373918366382
P 4.0797035586180375 4.443501337746495 10.5272015885478 -0.5656087569211677 0.4708052413860214 0.5559493794545329
Ni 6.14725901148565 4.686492485042866 7.064695909064831 -0.5442462320849918 0.5238679255389559 2.0314394063652625
Ni 5.016372426682097 2.2315418552132904 0.0956953870145994 -0.37905593929616654 0.7779980759932988 -0.3175579798916854
Ni 2.2962476355835095 3.0044433223036764 9.304951281366758 -0.04332694492240926 -0.04404659669725317 1.0707626509903883
Ni 6.906135265710568 6.713779060633115 6.428508785965523 0.6736141158585689 1.4020510930942887 -0.4076787452391818
Ni 1.5509768415943823 6.09965358824613 1.6927619798530855 3.0271993785965154 -1.5438152936496896 -1.3704517210214529
Ni 4.547964992192733 3.433412259717863 8.719128086288512 2.039564092354926 0.0364754692182146 0.5208515073101353
Ni 0.8392771329221406 7.5454093956494255 10.41075490903004 -0.795113909737979 0.831262334634078 -0.0775454997856471
Ni 2.842628683563711 6.4022222337849435 10.850977779448119 0.8665424979926108 -0.9472147163326976 0.9656340993801498
Ni 6.692691053520497 5.429363388997109 13.29649218766144 0.07096578968560037 -0.6030540462518196 -0.3197668146175461
Ni 6.702682991118211 7.346610900212168 1.461740170042488 1.793728834919524 -0.6536986078815644 0.5761587645228723
Ni 6.982192617196364 4.648130744713377 4.740207134055599 0.9984825133687385 0.5354216918148262 -0.7711239745812848
Ni 5.3110935230574094 7.791375311582193 13.224145996925408 -0.5957333442206901 -0.25682158124357707 -1.4515363443086098
Ni 1.558997766844054 8.597090484244616 1.5876686964623348 0.09280242594471759 0.8162257520159297 0.03651634975847905
Ni 0.12898815808789574 2.0963541332862285 13.115232964604608 0.6652873411604284 0.446762855724837 -1.4627581811663581
Ni 1.8217264127923474 0.8021965506188798 10.200153152147445 0.13645358697576498 0.10454234008946511 1.4116811599848849
Ni 0.6551645044892309 5.028563503057025 9.805246228125723 0.6991220303216863 -0.2092798269088718 0.07456996209709094
Ni 9.160097386382839 4.724242846542174 0.5122022338560026 -1.4190465992110206 -0.16748243125711154 -0.7480092429406924
Ni 5.536281683821231 5.998885581952472 11.135849289117518 1.2990326458485177 0.4950682276984441 -0.9663426954114002
Ni 5.824414488922068 0.5190286891225322 11.638881753026542 0.16702554622535104 1.0222737022510653 -0.5478730302043017
Ni 7.473056817373377 7.553777073071439 4.0492103550835346 -0.8142711993927202 -0.27511652289802296 -0.07627177527954607
Ni 4.672503772406066 5.99301817019418 1.5768107909394857 0.8457132199520855 -0.9376571545512496 0.25441682845682634
Ni 4.92249383854942 7.493670321513318 4.717756755907969 -0.2715041229564163 -1.3244369448542352 0.19012922212234998
Ni 3.5278931016235533 0.4436429418442177 4.146411376530666 -0.5247346444146253 -0.37353809480173095 0.7108971685797435
Ni 1.6817206606811823 3.5546112690081255 2.3468990029053276 0.22035253978326563 -0.09589649148900903 -0.04954361525608242
P 1.7635359232392678 1.8733833614139537 5.503591166520948 -0.05267161936210283 -0.4667099882707252 0.8927587513766626
P 4.935323668926028 1.7297458365503775 7.474373563122555 -1.0568642957417411 -2.193283922610307 -0.0939041436493286
P 3.7994274277378683 3.9084627358247035 1.30323062700836 0.29990941357198675 0.471606140020762 0.014897485937122729
P 7.471980060627686 7.460546363997608 12.608540440265957 -1.3044468748855536 1.2273448903952282 0.5205684288520777
P 7.897855603662307 3.3582582888915873 6.262982073970077 0.8952635200763872 0.530928431930163 -0.8555188931885975
P 5.414297919614619 1.8271558218066302 3.9486166373817637 0.3442336894106588 0.02876395950656982 0.7908060263912445
P 0.9153618595794367 9.113933722175684 8.554095039885794 -0.7946066310842573 -1.0192305445493672 -1.2054650596030012
P 4.772943276641717 6.506348261116006 6.81999746357254 -0.9324208458529749 0.14364933339325583 0.10306961219868056
