# total energy = -340885.96248848253 ev
CRYSTAL
PRIMVEC
9.10338062682321 0.00000000000000 0.00000000000000
0.00000000000000 9.10338062682321 0.00000000000000
0.00000000000000 0.00000000000000 13.32371773117664
PRIMCOORD
 96 1
Ni 6.558657914774064 2.498186085083998 11.384357176672449 -1.1446078191063125 -1.3345892027968884 0.4462231811712831
Ni 5.096736939969658 0.42842056117685623 5.593177049761574 -1.1138404560164687 -0.6772347433302918 0.3493278161041145
Ni 2.883113425337372 1.9756520454816986 4.334911441047044 1.4811559669472556 -0.3793909540380821 0.8589916822285465
Ni 4.375776516025697 4.474211369165412 5.114895453014862 -2.012306542190554 0.026367948470567493 0.19386400657443387
Ni 3.857876097088164 2.4400792074745645 2.0343051259199845 -0.8617216795651997 1.0840758231595267 1.5655825101234522
Ni 5.259478072826283 4.014927617144242 2.869822489835292 0.49445321982226453 1.4811775642138105 0.1867399939351429
Ni 5.529393304084266 2.902221420966731 0.35419796910212753 0.5505400355135035 0.41118161618611765 -0.2348095957488601
Ni 5.740655454903963 8.536913527073294 12.178263898747717 1.124475567132812 -2.4816526825325456 -0.3929722922669425
Ni 2.4420455376584345 6.609400157574468 0.17013216746904913 -0.7371874697348401 0.2697213200243806 0.16602770108845602
Ni 0.4381648196435862 0.17991192911965453 0.350765084322789 0.3528623116199342 1.8882413015768127 -0.7181841891594599
Ni 8.311786927781222 8.859701192164206 7.001413569194156 -0.4180037813142736 0.19432371981967175 0.008765147787139743
Ni 8.587082256903402 2.5627654662153345 1.34540225633943 0.9289598838875679 0.7338319229990459 -1.4984988291010775
Ni 7.640203239565535 0.6389644552766114 4.725269858095308 -0.9815469139556644 -0.20429394365850623 0.12868654143583644
Ni 1.2775046930228142 7.65241087279039 2.58212289446987 -0.9860977665511403 0.8504718176829933 -1.5273237237525696
Ni 8.003619291742597 3.9586596223919455 4.029279096472343 -0.6308281310412943 0.7050255402903148 -1.7198335302919543
Ni 7.50240536922651 4.190204104923034 12.58630290136594 1.9306945856450166 0.2707474472960498 1.5316303215477236
Ni 8.688421088416517 7.396815259028826 8.89933731077794 -1.7969319152378538 0.05113281412007323 1.1216704935838488
Ni 7.02599815852081 0.8847994244865799 0.11426836281010361 0.6414838109829275 0.15947498757160278 0.9314955058252279
Ni 1.9783102325821145 6.924759464192985 9.098447358993715 0.37399472272317524 -0.0682134237514438 -0.2540699866403689
Ni 0.17861742841527392 5.061251962855202 1.5390630209993519 0.2751620314239777 -0.3059329940582473 -0.3024077545138082
Ni 6.626150377659281 1.423013126629141 6.96280158088452 0.46766258199198163 1.2386903973150345 0.8177460453151982
Ni 4.093362343367472 4.691545474765854 0.6032928588622977 -0.3201578794083777 0.17488515147908593 -0.10204914135396619
Ni 6.22462757478927 5.795867457520477 4.623609677251218 0.9043405426769909 0.4346357334439998 -0.4207612894547527
Ni 5.748875807478194 3.3606312484617384 8.994241872967171 -1.0757739881620505 -0.48868957786560996 0.3372012080439096
P 0.3038781231560357 5.577750461198681 12.64952405812953 -0.01789796332634337 1.3090864305400938 0.3289510522199754
P 4.290013568515361 6.191054307575798 12.330700915238038 -0.06727985619358091 1.3665906954041496 0.1724850266780255
P 2.4173389630333357 8.733601165743107 0.8777342908953718 0.8204256490298902 -0.06582666868682212 0.5781547119069784
P 6.680315491520496 7.823618149494231 5.729038631072316 0.16806581456440733 0.5237023464953691 -0.9884012178733366
P 4.863044059645082 1.284341331763952 12.43064237784734 -0.5021822130354061 2.009714613093662 -1.3585968785653957
P 3.9852141832546617 6.601771524731494 7.962413750333959 0.2724536313538791 0.28946687808242405 0.34292268390871905
P 4.965903155698504 1.1517141815380652 3.621639732257231 -0.7004340642648905 -0.52222859016332 -1.9099421835890136
P 0.11938810399254844 6.136297473983327 3.514676832283031 0.1402999573050487 -2.203133818821193 -0.7807339868672231
Ni 1.0391963987944344 0.34112278371744487 4.44231403429847 -1.241718385508081 -0.3093916420308091 -0.37463132786590964
Ni 2.2957360065697903 6.8518049730192425 4.586116494402681 0.20906231158142705 -0.407293336875305 0.6311726588649066
Ni 6.41753731055952 5.9409662390051645 9.028470583575267 0.5127214220038332 0.3231431872889467 1.4171591523803206
Ni 8.819992246506622 2.447707840317539 10.312637130433986 1.271118693047069 1.6475881025629817 -0.7734215123662099
Ni 2.43524531243922 5.381244890138485 6.797401350589429 0.9469403796253886 1.5944657688167057 1.391467146930855
Ni 0.6642327084773798 0.28270639117166163 9.173046831020352 0.3633542122901936 0.11832936657122847 -0.3275883675444939
Ni 1.6681671629791397 1.224295434112092 11.367009774828091 -1.3134927871379056 1.2258497939069404 0.20051133668762242
Ni 4.260372961669629 7.195093450953087 1.6935774289154095 0.9083823168465324 0.5930984777010043 -1.9986064189956418
Ni 5.943915734280969 8.107452449507473 7.782863225419396 -0.2653483877676656 0.2970562603939078 0.7941065515193872
Ni 5.854201919641932 2.6361751264131215 4.8700054146988085 0.26895230306884005 -0.32216873919081934 -0.1627631714045713
Ni 1.277286211891273 7.978175343298548 6.748742871581097 1.1482348743359385 -1.4379853450970526 0.3685925778709975
Ni 5.420735354664526 4.965721088088886 7.242400077960009 -1.145776385493117 0.10755515877385992 -0.3301129337385605
Ni 0.8822868914738579 7.43664254863266 11.755075960671268 0.16317814745480283 1.3629605548507302 -0.8880466906129737
Ni 4.768150421512427 0.7467521215223792 10.292025256349186 -1.1939583445149824 0.4418988427643163 -0.6185930224276831
Ni 8.80073859678957 7.431125900061249 5.0176449496757085 -1.0119882611646571 1.1241333533020448 0.21486811962992672
Ni 7.467612249028601 6.03826316958477 6.727664904415676 1.328400043267041 0.9303505935875074 0.7528313469196841
Ni 2.6375952537681377 5.69772391255615 2.3598565773248903 -1.6555834620636327 -1.6181345731885552 0.4781390560432733
Ni 2.4570205985494753 5.655083678383725 11.26821442782133 0.10208539390854031 -0.5914971946521556 0.4014397063080054
Ni 1.2790340609436013 3.332520009536792 3.269626574470514 -0.32823062911418316 1.7655048070768242 0.7166484692412238
Ni 1.7361603117908047 1.2455154140130147 2.2329217709136957 -0.7043601387921741 -0.4335358155116017 -0.6926037695871943
Ni 1.0838211699116898 3.3870947755196457 7.804687669784249 1.0102034013500922 0.549151382696093 0.5881681302789226
Ni 3.6997503781353425 3.312183057542515 7.250553975856731 -0.32750737779491335 -0.7857368393984532 0.443473643450604
Ni 4.477169967821697 7.240837937869491 5.89421309753148 -0.7609231227888831 -0.8625955975297208 -0.37538260420963737
Ni 8.425797664923717 7.395895817600257 0.3299420118108326 -0.46438982477798085 -1.074299203388737 0.12209346159935103
P 0.32643447931155095 5.73553025169323 8.00482275864217 1.0122008913960956 -1.6987538268035194 -1.5292155414586437
P 8.514510107709857 1.660429289570395 8.131837674801597 0.8466488443924773 1.1945797801490652 -1.468961995984225
P 2.0918749040810463 3.5431722338642695 10.178974015509377 -1.3018780857171128 0.3359549943416343 -0.2820793273691013
P 4.317879016167324 6.107503481522315 3.4910271601317624 0.8726396120292843 -0.15469864922888196 2.133176415795449
P 7.288239240033414 4.230950835955436 10.31630124107754 1.6098139691380018 0.3672610035437675 -1.6116034569382567
P 6.768035665834219 7.994342947032584 9.931712546578055 -0.22867340094413519 0.38344609794406226 0.7644115955581158
P 2.801064657063234 9.045237189744945 5.540880859913083 0.997611937838327 -1.0283083384809195 0.7835868829349859
P 6.978533132693522 4.163631337299356 1.562072725502815 0.188741597746204 0.5454721340722929 -0.3751290934379346
Ni 2.866172034262461 1.9675864503756422 13.223230020090933 0.15822928808995976 -0.6646862172413197 0.9737454156333745
Ni 1.5390994345212754 1.3034493273933117 6.7275310847226075 0.054542868242886705 0.3844979362473443 0.26562118181307803
Ni 6.951232094631374 1.1502940541830486 9.555956862159164 -0.6243137269615441 -0.9682807929743776 -2.3086788891435592
Ni 2.649593509241933 1.7475031238699765 9.071519559531282 0.6630479103069483 0.23513124075433697 -0.13814100198051696
Ni 6.593997237800826 1.9660115655524504 2.459585020830939 0.048151362894246104 -0.47254073601988933 0.45654590325352984
Ni 4.573256148797347 7.409896816779845 10.332863021186398 -0.5074789426579712 -1.1316106355156963 -0.9161689027704867
Ni 7.568049845874109 6.5280432462168765 11.474318603260562 -0.10098110510076803 0.48434595618493365 -1.1647277297846392
Ni 7.961525260399026 3.923930225857402 7.9319292601176485 -0.9911114177156479 0.25334056467351207 0.9382073706277649
Ni 3.325610543751807 8.66589932510683 12.135108413240076 -0.1507887726515145 -0.5508524245475996 1.2865802790177778
Ni 0.20472683397247526 5.188872253816607 10.501514068651208 0.09908131697489388 -1.2953994199713046 -1.674485441174458
Ni 8.597050458529962 2.614163152410362 5.8665524759403365 0.5322998583563929 -0.4011239748397995 0.489321555022654
Ni 3.7642205187009083 3.3529479953358785 11.441742156209747 0.6061918205498528 -0.5847531910601026 0.23057138929779644
Ni 1.3541460532913117 3.65713745410436 12.578801715849696 -0.9852642149062516 -0.03158214568165529 -0.32495658634860164
Ni 3.4464306094939974 8.794448160877284 7.941095453923843 -0.0018488802832806865 -0.11518593584624034 0.02909486048342731
Ni 5.754283215483834 7.9396043202010755 3.426446868662378 0.047550238975137465 1.2064690753874836 0.6440019494190908
Ni 3.2382271945158756 8.70973210212225 3.318871311181814 1.1551208028224944 0.8452283098958668 0.3986140639337522
Ni 3.616754858291193 5.0115110919076935 9.390476522115843 1.2926578526704253 -0.6968772001515676 -1.0305323427154316
Ni 5.567727639289236 4.878947665345173 11.224485429343394 -1.4183832545954087 0.3771312114696279 0.09239362054207315
Ni 8.06108893271837 8.798726749703295 2.538887299213996 0.15082271121324348 0.27137273958487457 -0.7927801193984798
Ni 4.57235491412974 0.5653754584833517 1.0904302241408061 0.5520492730691783 -2.1140566642468626 0.40188476426522396
Ni 6.301806034506139 6.133666597024354 0.08247844783283546 -1.7668937170045502 -0.4761245967164058 -0.2337320464139652
Ni 8.238131476310452 0.19014685979430376 11.190790176831477 0.4051024998715733 -1.2822407711021595 1.0649558145006242
Ni 0.5605725149416414 5.160141985018961 5.5490356681478525 -0.9271135747074484 -0.7057966141283845 -0.6714819000069145
Ni 7.273801278590745 6.34170615115382 2.1659436490256483 0.30387096932289603 -0.7127563332756692 2.2774692963099743
P 8.820474725672108 1.8411951157791555 3.3088384755538405 -0.40042951987593617 -1.0956427020615196 1.196400635407888
P 2.169472119300036 3.7859047710063556 1.3348232178826036 0.283234524019467 -0.588973142678721 -0.450823656057772
P 4.757636017057015 1.5199459219895117 8.00403713690667 -0.2592222202652697 -0.12381121562140614 0.841239500451448
P 8.627437542575127 2.0277597953542346 12.442713460364981 0.5477843271452373 -0.5086948173429433 0.36437185492143054
P 6.316444270319388 8.088581141770616 1.0532055910164548 0.5130880613146325 -0.030149527000186787 0.9716563943148299
P 2.234889011435613 3.6055850104411578 5.590179306569222 -0.5314534511956976 -0.3607486563465465 0.005536870657829174
P 6.868282091689629 4.057485920892338 5.98580038787348 0.9355236531480147 0.43514995407625706 -0.2657255686014262
P 2.407689379723607 8.726464115446099 10.249522483222023 0.9402390563458131 -0.505539302433097 -1.2069663267388762
