# total energy = -340883.65965042764 ev
CRYSTAL
PRIMVEC
9.15779944187074 0.00000000000000 0.00000000000000
0.00000000000000 9.15779944187074 0.00000000000000
0.00000000000000 0.00000000000000 13.40336516773396
PRIMCOORD
 96 1
Ni 6.4629887720188925 2.137119032855006 11.38826304460048 -0.053983396194990894 -0.7735112438665388 0.8976461613759509
Ni 4.85032775743807 0.36860234474738085 6.4835965681830015 0.907407868748405 0.9521540626158441 -0.4409699031921438
Ni 3.186190751994492 2.183375078015615 5.189970392897905 0.11810053838987404 -1.1307796549739686 -0.08912857663755618
Ni 3.8497282709327365 4.663719277486035 4.926098474534559 -0.972538539809467 -0.8542053165834965 0.9717080734883717
Ni 3.6167446944268864 3.283666369632489 2.669950027191425 -0.6775281062009945 -2.9188402358641214 1.629449483980742
Ni 5.319967188040229 4.652033925352808 2.92606162627758 1.123590336314381 1.3501150663466297 0.18784505407386357
Ni 5.531420777974589 3.2388023099924523 0.797697449723017 0.6223355201892508 1.5420782563539248 1.5603374596744288
Ni 5.439806152002162 8.28805578767973 13.024130838837113 0.8972414697383645 -0.29310010395963715 -1.4990246196975603
Ni 2.359946609740362 5.5967525194467305 11.593415152714407 0.6457068479253396 -1.090922927988347 0.10202934385962428
Ni 1.0099129685739021 7.596422139944663 11.69440919691164 0.6586952897652075 1.6634248124849225 -0.4681132963761551
Ni 0.8558201714465079 0.03456702990758939 4.863371211233805 2.0500904458075464 1.0271315445639988 1.0642456758074768
Ni 8.58590405788437 2.8190179397455415 1.6106288988767752 -0.75785373983494 0.051516422711737085 0.8629748352460105
Ni 1.7878222451860415 1.4139733971180286 2.972544784865229 -0.13198783789492755 0.5970201813529138 0.427255896040161
Ni 2.069946573687898 6.420707211831497 0.387080952532983 0.7770249134467521 1.3430789854354548 0.207116757819282
Ni 7.911542019963779 4.161075137567141 4.0543171743788 0.4648197132265478 -0.4601284783984656 -0.434062120328717
Ni 7.581055352421499 3.9679463043871612 13.115098924166432 0.04207610323444366 0.9175925225908906 -1.29672199543747
Ni 8.306975801400146 0.28824906479237594 7.231798859070236 0.11182447557317515 -0.3367250397384394 -1.0290848116356277
Ni 7.086863861420293 0.8543622497696975 0.6232551063767774 -0.5533739054178728 0.3290973479898526 -2.2664919713628646
Ni 2.1512495174487145 6.98301441534599 9.40220649302578 1.0598403476509295 0.40379715079658846 0.6316426565227896
Ni 0.36283201529663855 5.299444559411259 1.5059213669914349 -0.8129712496343742 -1.3541193024100164 1.0086455699446693
Ni 6.6804132472125515 2.2476811459462813 7.110512047010916 -2.333939720592877 -1.0623849684496542 -0.8434537344939474
Ni 3.3781107556434486 4.5487064738487195 0.8970064588163994 0.24391850002866375 0.3415260606715086 -1.554435492367697
Ni 6.33940426807068 5.858207694527978 5.056419455778383 0.37023294168789783 0.2434302475383356 -1.1482222759304483
Ni 5.043245961230069 3.6772960645717974 9.581784530318973 0.7560367412308593 -1.2817813149672377 0.10313388977771269
P 0.1669366108945203 5.87972852329999 12.757577516786768 0.06277116968994996 -0.7829515633438322 -0.13906017136067664
P 4.248458860180986 6.054862280506778 12.91367312465988 -0.20144207603200795 0.0661321157423829 0.30155106294046774
P 2.208650604573382 8.466129198518779 1.1795300673754725 0.11355251400787542 0.61156079817125 0.671418907979463
P 6.710734721282394 8.280381551717625 6.217325306356562 -0.7270943471648962 -0.38506435027377556 -0.20862959491938265
P 4.856784006069674 1.7474455072899568 13.020564791720593 -0.456410149006614 -2.751063413295043 -1.1530672627275755
P 4.197852860268587 6.133546093617042 8.934160519532696 0.0893149816167494 0.130067223833447 -1.201515073816318
P 4.562992641033544 1.2767987187452785 3.725867201440306 -0.3000024875064253 -0.18275144160104012 0.28452573202706477
P 0.4813165407158571 6.057792776339562 3.6892094459120144 0.5438263709387537 -0.33733670518050934 0.9083146968333906
Ni 0.7952596435021194 8.152721827001947 2.769242552245748 0.1828314029093561 -1.0095907074667583 0.239430125240007
Ni 2.2989190340226235 6.914926176231137 4.831149493772391 0.02997469198521935 0.31787268291862675 0.5582232630903741
Ni 6.284906203380364 5.7205568105824005 9.294456740154029 0.6925806296587427 -0.6589930235112844 -0.9981870936155066
Ni 9.147240534654253 2.8188164681570376 10.868158644197877 -1.7878860029855013 1.5637380007155457 -2.3040740433816964
Ni 2.48286259432672 5.676013273924076 7.138203401070835 0.7427855326479079 0.03141605241743622 0.7808651131284488
Ni 0.6717841173676897 9.097000846720954 9.050595529428863 0.9880775159853306 -0.17135425550769198 0.49325302886657635
Ni 1.484918869669847 1.3478632426903043 11.72905681545463 0.3319425307481315 -1.1829915610908337 1.2934870334399402
Ni 4.1768082370694035 7.168771219946621 1.7711742815159819 1.017614606212499 -1.4021508518969465 -1.1936868360211506
Ni 5.61903344557537 7.798150146833971 8.535142375380856 -0.5765781114484779 1.7264890879352588 -0.061432139163552266
Ni 7.062696428599297 0.9952971206078891 5.027307727019512 0.42824371387472693 -0.24194749234522203 -0.15587390048390576
Ni 1.2477959678001889 7.711379996785116 6.96452298664112 -0.851208952959334 0.9623477153193942 -0.03327470289272979
Ni 4.951832806846145 4.589202263138011 7.098194806713744 0.8500892375325941 0.3191962868260568 0.6347902010128358
Ni 7.912888216486964 7.663118393538944 9.272944153401546 0.770378611774828 -0.6333228724386899 -0.3944061964999917
Ni 3.834306536612708 1.533198788514973 10.896480054861843 1.817085507367593 -0.27442463903732095 0.5632528550944816
Ni 8.49084609930842 7.633401334234613 4.890994797577591 -1.3794091873250567 -0.9056736596661177 0.7401843475796349
Ni 7.163908428424095 6.33893722029733 7.12773512048816 1.1485529197969897 0.36513598678096476 1.1988208148136064
Ni 2.6997559171506875 5.58151394111625 2.8934516181183216 -0.7352660843424111 0.3781861350967035 0.03780601510418005
Ni 2.9069694459269884 4.490270555383099 9.485990284665037 -1.1398829028268176 0.04041954146762717 -0.9402832793201871
Ni 1.458498618177399 3.703679684866336 4.067197619343836 -0.9997413254765041 0.2798895188066341 -0.05074329199113841
Ni 0.7058795206021903 1.0068359479494784 0.866561354453611 -1.0148586407339169 -1.420389229281844 -0.9582362642541818
Ni 0.8019942892378374 4.084818141318401 8.201371720945962 0.12806947667712784 -0.11531294834240785 0.061509786479023096
Ni 5.7119393212741185 3.0451331666433026 4.865582819807609 -0.34768333852215605 0.08204698720042643 0.15375633992027068
Ni 4.483457152571876 7.035900707328274 6.391421484882554 0.07187364621185041 0.26733379362881055 -0.11017382734362961
Ni 8.982180356872663 7.689373804640798 0.6300868247869563 -0.28150802824666354 0.3849550783894209 0.5287332240510572
P 0.417559940753838 6.3251547320837656 8.396779014635932 -1.226645036114726 -0.6431961656883439 -1.1305603398743111
P 9.219339889940231 2.01441367765663 8.47841896541752 -1.125859591964532 -0.22041553181071719 0.3895267569205033
P 2.2553645397078634 3.302485647558652 11.127540493477428 1.0500310748699917 0.04157705211083807 -0.16844299539816796
P 4.546343761583537 6.44488380245197 4.155016337432859 -1.5269162039015058 1.8922326821243929 -1.7662812802315322
P 6.895099540362453 4.1054781369395315 10.785768669639086 0.7837162094239986 0.4133662825422623 -0.448598366271679
P 6.528421249285285 8.405806773360803 10.741832295086114 -1.3534716415236885 0.33266655339834966 -0.21058363332195992
P 2.884661046399916 8.8890363783875 5.9014618130198775 -0.8570970363089949 -0.33528085109274514 0.2097598518690839
P 7.219313115262678 4.506049443882749 1.9686054488904687 -0.16391014052482095 0.4784882118525759 -0.9017234167691179
Ni 2.778705306445799 1.8952798642544604 0.4839530711854154 0.8877376440129874 1.2071105656262242 -0.16620639275816537
Ni 1.562531220241251 1.2807915193174477 7.034341134077264 0.05084382212474469 0.5253954179270758 -0.834547176032937
Ni 7.122771593171381 1.0066161607620194 9.234141641235636 0.7667605554062666 -0.570365811990179 0.4031561747784799
Ni 2.23172825925656 1.8930728345803947 9.35620595047059 -2.242664529925963 0.6242990716735248 0.11575903474089096
Ni 6.222285170553549 1.8403422251892272 2.6147422330416075 -0.03821584894808902 1.5068045207532952 0.9618720612345563
Ni 4.1875503358564545 7.293994970001297 11.074181659042107 -0.5931419293444301 0.8325118907704631 -1.4338772364659498
Ni 7.865505761990629 7.339994596776537 11.982059341618191 -0.9438290876899166 -0.5542249405642583 0.009192465132545458
Ni 7.439988609270832 3.574014402065097 8.659726911032005 1.5438703152573412 1.1311349814308584 1.4094203889751662
Ni 3.190678073738444 8.885318311799656 12.75546023354758 -0.6460140947531133 0.41401959985554504 -0.6046303896000038
Ni 0.1328805861977727 5.593858654811855 10.428796730228068 -0.5423744689835757 -0.7855828303190923 0.0009821614076112118
Ni 8.73475493059087 2.777789526498054 6.1522655515289015 1.5742754099117597 -0.8172475084122248 -0.32163986327054284
Ni 4.291766093909855 3.679887721823916 12.160726177863378 -0.36812592264722405 1.03609980950088 -0.8854527046335524
Ni 1.0705559167135876 3.6853274547135224 12.85727206923815 -0.5609236927406727 0.7668919387778083 1.399540153746977
Ni 3.195513391862538 9.077980097206286 8.18924129975813 0.6301293052020568 -0.33410405717582464 0.9041070865099462
Ni 5.726967270216616 8.419149687199452 3.9427742609634895 -0.06205126080478991 -0.4890593025002029 -0.42019101877357956
Ni 3.2419068040153087 8.648131305333655 3.2056831281822484 -0.5882362645126966 0.09134075379752656 2.1062597939102625
Ni 3.644849981023186 2.6199823259026047 7.7630281542780475 0.19774585812734333 0.323603671865133 -1.3433021571898545
Ni 5.969832112358638 5.872695333301307 11.475144004023013 0.08958957543437474 -0.19345134451704749 2.3390359041688624
Ni 8.07929459079174 0.5380216350802384 2.601700610805768 0.7342733814118386 -1.5084713669327567 1.2235142037952282
Ni 4.519749511901017 0.4223100913427922 1.4968212616506913 0.5365051546869921 0.8114964648610604 -0.4630531082444283
Ni 6.292305705358146 6.168574676618296 0.5086498248162074 0.30928134170518995 -1.5401087913323799 0.45753937751505075
Ni 8.528933387335144 0.3834865162380832 11.037845342275475 -0.6104441680683035 -0.25508402972718003 1.0382484804127665
Ni 0.23369422174530036 5.134741535809289 5.8887278928464815 0.387300695803462 1.2069352163906246 0.11956298186801345
Ni 7.6586585451934255 6.699690415112587 2.7879272105195927 -0.170978360225512 -0.7359962776402164 -0.5916774289837616
P 8.968471131054917 1.7126550270751173 4.146411669043846 0.1215692136647648 1.5688087303702336 0.02736013718050772
P 1.5322738507677502 3.2974763312444857 1.7596473593137134 1.409360225161192 0.2863419593001972 -0.11450999282513828
P 5.196162896904558 1.484286981505903 8.699882945960683 -1.4076753812596015 -0.04406099487495638 -0.32196202249665196
P 8.446265931452187 1.9649524026789134 12.725597565231556 0.8484072218444808 -0.6553443710151036 0.10646989612948114
P 6.608808413098357 8.069385851757136 1.4091893626710077 0.37544662467835344 0.5825271299430612 1.4683858117657809
P 2.1267432460470532 3.757362705403158 6.307959132004955 -0.24861821949717824 -0.4912920484854635 -0.45056731707259173
P 7.258435234630351 4.3148437485930335 6.284100317026349 -1.0992306765230941 -0.35229589759350294 0.27190830037337044
P 2.4483926370935913 8.892259923803564 10.562937429633939 0.3142209450986524 0.17499699446660186 -0.5153951121812543
