# total energy = -381165.1674837606 ev
CRYSTAL
PRIMVEC
9.26012994813406 0.00000000000000 0.00000000000000

0.00000000000000 9.26012994813406 0.00000000000000

0.00000000000000 0.00000000000000 13.55313620737954

PRIMCOORD
 96 1
Ni 1.2246336258598767 8.366267854507248 11.35011405676408 0.5704331748930047 0.8573955413860203 2.4848362224668494
Ni 9.013875021530648 5.623065567459594 1.047907755554954 -0.5765169191932393 -1.024732448204203 -0.9503278080403827
Ni 6.383748177630526 8.807605633592615 8.201869994804431 0.2948260855118084 -2.3386098723750366 0.546660240843123
Ni 8.587399750532397 5.551642187474586 3.9838763094860385 0.0303421026269671 0.6345330906967072 0.3224315059339028
Ni 3.0094865752427618 6.523594655594169 7.109853463690993 -0.025424867831007825 0.22728474812672472 0.27667281164154933
Ni 8.832274618978335 3.5208309344767947 11.872384442971315 -1.1297920942497188 -0.39184717752356385 -1.8299165976939902
Ni 8.225226819818845 1.3754533574579335 5.384294976478469 -0.4262351680851305 -1.0258557631753689 1.4572501068639356
Ni 5.51695374180833 6.037632311728852 7.866768127107627 0.06155169546055206 2.3619837712142875 0.5298323706525068
Ni 7.776379075587901 7.652913766973859 2.4424508702849077 -1.5567877946499575 -0.26522831725003354 -0.6349663215793839
Ni 5.094580708244717 1.6709903952151621 4.173390418836637 1.2823973512846818 -3.1952669929331354 -0.09449832558990176
Ni 1.20359461129668 1.6269584787327673 2.0750524484102604 -0.8315325575763292 4.324759296554248 0.0748296435163808
Ni 7.935745906852255 6.167144485003883 8.30639185619491 0.6865351947956112 0.5302231783330222 -1.893776629572745
Ni 2.984817589857042 0.1717957772796383 5.610306960828796 0.959402002427509 -0.8359486843661538 0.14673080053205698
Ni 3.208245998035215 7.22745711023703 2.7982482017349195 0.2995188630017874 -0.4971438792805503 -0.07665024166488735
Ni 4.222989525264187 4.3119978914532044 8.100329895161025 -0.5039647588571257 -0.6906111646371976 -1.6192242067083082
Ni 4.6119057104048995 8.734107984566167 11.293570779112523 0.942080737540242 -0.2297949161430881 -0.3582647135824282
Ni 3.811534184557092 2.2511282576138028 6.662829965000959 -1.2741209702085026 0.26804187543942865 -1.1408797195224483
Ni 2.495817923466756 0.1973815155006385 2.918586364566394 2.1990241675281936 -2.2134668253160843 1.562057784799645
Ni 6.556319953774775 8.405290040849374 0.3211764847301947 -1.0793146543254575 2.165252984615019 0.31009483874542076
Ni 1.0740176171141045 1.050876553120518 4.684018044035814 0.12494841454964285 0.31807862828184574 -0.7128128975452175
Ni 1.8626935992148532 6.894731391808237 0.25009202549035175 -0.1185373688169765 -0.754514648159378 0.25145260362217986
Ni 2.437580968102344 3.4599455820326845 1.554382212606423 0.7331521233232019 1.0233682208668247 -0.23529733401855604
Ni 1.7469882792469205 6.619001771370849 4.7440986912134 -0.7164965170443919 0.6178533160481812 1.692510416996969
Ni 8.132051395287647 5.298544323900074 10.380157146583919 -0.5170617012503997 -1.6168155972668157 0.4276125080486313
P 6.473821458729212 1.7326072979015665 1.1127814458390155 -0.3607345152791594 -0.5709911042790037 0.012896139236377788
Ni 6.806806460788187 4.127721311432246 8.384254730338037 -1.2315707555511177 -0.8150150195372802 -0.6033623215208577
P 0.11154566972946967 6.2570881242874785 6.251925602007997 0.16318534654365444 -0.28108790999010946 -0.8156248852071373
Ni 3.955075454250803 6.1131208886299 4.896422267866503 0.5520302469057847 -0.35558562408836825 0.22185586380166955
P 0.31164781132107083 9.130784158352988 2.4000163261670164 -1.88486904267047 -0.48569064313828614 0.6441703566761551
P 7.33782859552697 7.903900320988333 11.936314526044113 0.2140659354436055 1.6446205352942258 -2.0781530083717175
P 0.67810355199742 5.956263552500503 9.179199820211359 0.7355908146716815 -0.08901236277466605 1.2016222888181434
Ni 0.36833925104701565 3.4228495026576113 4.366616914163637 1.5110046748775718 -0.7769385243805329 0.7295358667268533
Ni 0.5358716646361189 3.2636215733379954 0.22341544399666463 1.1778930635220035 -0.15589395508856377 1.2284988014940132
Ni 6.203897939581932 4.271642246441579 12.175812037202707 0.024539379902260967 -1.4085896655437546 -0.4385252983063931
Ni 0.811428120649065 3.1792617922329245 9.730447004117167 -0.10839153863222623 0.9916024984194537 0.7844114357188103
Ni 8.765851709003948 7.728809789579476 10.092017100390546 0.7975811403315489 -0.27972573953526014 -0.6486471615005861
Ni 2.1748155291739684 8.003567096403687 9.302574379554835 -0.753816850761405 -3.1098346342002445 -1.791294000225786
Ni 6.20943549711221 5.290145386308164 1.6098689094649947 0.961117442456719 1.062504524746654 -0.31684192766126723
Ni 8.744479329773377 1.105715040903639 0.5837622771433744 -2.052802702532387 0.6858682506355737 1.2604432156110938
Ni 8.755350721981648 4.1394816760868505 6.956025115969881 -0.46979968293964247 1.4132747297242498 -1.1951492794992902
Ni 4.62305490650265 1.2562199280936197 13.191605663133908 -0.07822684212338786 -1.270429123179212 -0.10173135300323126
Ni 3.2918649687683437 2.6378868325462297 11.888594299922405 -0.48681730054356154 -0.9730324487267501 -1.0942864451439411
Ni 7.53401370227692 3.8541400410734954 0.2783437550373838 0.07219503410701116 -1.0583120839318612 0.6797775643568034
Ni 0.7076424395657042 2.1897150777796828 6.919865235702352 1.6468792494214155 -0.7836141366284956 -0.07272596690981668
Ni 7.074276045578404 6.255791706136577 13.071863852651848 0.6873078112955775 -2.3263937899248193 0.9297463843446052
Ni 4.930417129822027 1.5376352681356744 8.458742287223995 1.5187532084747393 1.3094332723565514 0.19606461377017845
Ni 3.0252658361651594 2.856314770713784 9.308076748592448 0.4130114703060048 -1.4263269349225176 -0.04683804339946127
Ni 0.528377441710945 5.967264586523864 11.815406865239206 0.345867625469656 0.18442600108998564 0.42080165577438494
Ni 4.628861007792757 6.945078716711451 0.08977140087211898 1.2462607534631247 -0.17678159717085037 2.896076974025677
Ni 2.8228394020315855 0.6464987295043785 10.06745923656062 0.9655613371606855 1.8884649875518444 1.5203953720638523
Ni 1.6447657080483604 4.475929966634661 7.828779371234362 1.1073355650184156 0.18184024264068038 -0.409548708568385
Ni 8.725903509696892 7.930643575415495 -0.005557929815506457 2.385163294654544 -0.7778497233408926 0.7200945188082953
Ni 3.0825860386942914 2.4328305215922557 3.9961552414010026 -2.631362363187268 1.1460846607621553 -0.24600469313373116
Ni 6.017102604296366 0.6184164603299286 6.0133226193735245 -0.2892480772033986 0.08281446149407028 1.9537239566606546
Ni 2.9857158224330234 4.981986791838947 10.043645887154494 -0.7630517390961117 1.7034879990543954 0.11493268218485367
Ni 0.6675247798860662 7.114779852664418 2.3667159739351895 2.0175953013933188 0.3856518473461294 0.5644579311461762
P 1.1502192239981475 1.84909046876004 11.505094364613562 1.0934102131865748 0.5690370658764264 -0.18562824892820287
Ni 7.772119415949225 1.2403295456154306 2.978694792132928 0.38699242053442384 0.179746079115813 -0.8585353114174181
P 3.345916345531274 8.373481495504048 13.041816583965817 -0.7007922189352577 3.620775824375203 0.029216730773272262
Ni 2.4965957743572966 4.573346530545238 12.53106672505527 -1.0610083998171016 0.7094594076919524 -0.008516522111443398
P 7.013112889244816 2.6277562507099015 10.406842988207258 1.8011600943865884 2.2964111275197996 -0.08428487539200968
P 7.972369719615215 0.5636622397266161 7.74286574037414 3.126169881025158 -0.12982888257039576 -1.794137126101536
P 2.307763210548887 0.8375139058711272 7.944997702384866 0.05772769372877155 -0.45668345727265863 -0.3245418674086863
Ni 6.607732193587657 7.110862817822766 10.081919855020958 -1.9306881578871138 0.26638274256945094 -0.9433246372496721
Ni 8.77475995372657 0.5630519971827276 11.995541389268034 1.3591620070402464 -0.27120407521749423 -0.33535361331220953
Ni 8.355581664891963 3.654787969983486 2.345301924121196 0.8275262646304136 -0.1075081075860084 0.5513723016068117
Ni 9.217144127462307 8.093732978798867 4.5327510481756965 -0.3920991456333699 0.6938073029769922 -0.3759289636314106
Ni 5.953605895291155 3.146360551588981 2.713310588539732 0.3586436941884017 -0.05937834195831708 -3.807460539592378
Ni 4.084828390896716 5.012684121626358 2.6479442593583284 0.17298176380878597 -0.2867029421840417 0.26837251930597006
Ni 6.886471356161066 8.778982572846648 4.294812942850044 -0.7377042614702586 -0.9152422771911591 -0.5357425654893547
Ni 1.7075493870705762 5.236492195120153 3.040361699519439 -0.19062030282615558 -1.9663300754604394 -0.5529075073044155
Ni 4.768383381218674 3.760103424484911 0.5178866408312593 -0.06811186517657303 -1.058695949633841 -0.710180602128693
Ni 6.856746339986831 1.6897606780142818 12.517608052622984 -0.21109913950579773 0.8290123622576367 0.3796357230590365
Ni 5.167874634418881 8.546071791907595 2.2007985269569232 0.3397777105218342 0.328276394750454 -0.3364260204407819
Ni 0.44823379763519733 0.6511056440049025 9.67443155385562 -0.3196675700355205 0.43255031166988084 -1.294080444049565
Ni 5.301646467332588 4.467706971506088 10.17401369640912 -0.09166985500217116 -0.5720550267671438 -0.9056006403363371
Ni 4.958845727845361 3.827220844182996 4.482808390938158 -0.8821480657403518 2.596573280532541 3.231673556586628
Ni 1.4960202454917457 -0.028772148833322415 0.3506792577928465 1.0800186223710173 0.24277924421789804 -0.39166462919911255
Ni 6.091655908102835 6.152680162491684 3.7030823241434514 0.1068056822023451 0.6579468416349572 0.9871992271454354
Ni 8.267212247648747 2.4246075264636824 8.547149670998774 -0.27262846636884663 -0.049735162441598216 0.9453028440219656
Ni 5.240548131906544 1.7547853084116265 10.681605851109257 -2.773292399896572 -0.036635391834846584 0.991469315275699
Ni 7.610094927475522 7.448922370929554 6.290850556988805 0.6934823155374057 1.0328267951765633 0.2326493548727477
Ni 7.298250801405886 3.2015324040394773 4.4428666737218565 -0.1098077022534625 1.3573144123085463 1.9479785695364453
Ni 0.8226976984322564 8.67185213293396 6.771485548266883 -0.2621892733133936 0.31590758877245595 0.5808710823968771
Ni 6.73551272261827 5.247669171606851 6.0286648021764755 -0.26696895409022414 -0.7939836527882778 -0.5805602360246775
Ni 4.247408487149376 8.735848888940234 8.20332013110751 -2.9649038629914033 -1.0093852763241715 -1.2243076462308011
Ni 5.354318084777773 7.670202429029092 6.1164758336018386 -1.836841606948598 -0.6945891754483392 -0.9023826476196717
Ni 2.8911235980654815 6.920780136511701 11.62892915240061 0.4491863775646651 -1.5330158890413403 -1.584795335606477
P 4.564160481933138 8.693493055924362 4.184476646052771 -0.5121889465391308 -0.6991161167844153 0.9945590099446162
Ni 7.191796350957599 0.3767668950408385 10.39701706463639 -0.8191832919823568 -0.4064253324480549 -1.3631207345776784
P 2.3941509600471536 3.6308968354883073 5.779220059748609 -0.9435041002503299 0.4184452397270665 -0.42406001481068256
Ni 5.238057157030883 6.237836314746595 11.688278249335905 -1.0720001229419152 -0.2088586802110532 -1.728870700793558
P 4.405108495076858 7.094861313788786 9.507999243668852 -0.7866140997970841 -1.149871124387781 1.17946529310513
P 3.3629457239563263 5.371977152018979 0.6642513240550407 -0.5569338548549893 -0.6002032070665857 1.3827145975492057
P 5.9359560881796005 2.617662709392171 6.544456801681065 0.579235603675983 2.4466198592981283 0.09059590521170204
Ni 3.9808834355833866 1.6456083798464463 1.7907220195546079 0.4697120083218426 0.20366890847999763 0.7022050401223842
