# total energy = -340862.39807904646 ev
CRYSTAL
PRIMVEC
9.30256862520872 0.00000000000000 0.00000000000000

0.00000000000000 9.30256862520872 0.00000000000000

0.00000000000000 0.00000000000000 13.61524950104107

PRIMCOORD
 96 1
Ni 2.168828751820855 4.0824322314484345 3.1323925287522014 0.022414106029142043 -0.5690224105884072 0.8634335200499841
Ni 3.0878015964103422 9.31447589086177 7.5267957008725155 0.030884348283682295 -1.4366694544991063 -1.3975958855364123
Ni 9.25377663072687 7.53385262941479 8.285887159395106 -0.33064489498263056 -0.637487802449657 1.5480074773541663
Ni 0.6277345385632241 0.8960708509456387 7.911317374079582 -1.191942085415902 0.2634555416203269 -0.7398359631012807
Ni 6.030083112163176 0.08845533407582028 0.987411841802125 1.904776066007042 0.18826465810978543 -1.820494533049142
Ni 6.7168545418519345 5.612295453631603 3.268503991524586 -0.6965059328550779 -0.6500216732506096 0.8017758951391869
Ni 6.268991679026702 4.147438580846547 0.0465426112347791 0.6999046741239817 -0.2818049906617921 -1.1664056317076943
Ni 4.599292245602488 3.3588505377974065 4.818545415264631 -1.6478547259608072 -0.43179337889919833 -0.32761407857610675
Ni 0.3862184617202626 4.190909483928599 8.008435260038564 -0.8949917544722393 0.19004000484265338 -0.6836560734756033
Ni 0.841553147647465 5.972397884255663 9.915768808427686 -0.6240751285881769 0.09748800434584501 -0.4544841356284947
Ni 0.9384245155384644 1.6060326539049412 10.244699261919786 1.2389793893103629 0.6937736215255794 -0.13148338745468324
Ni 1.1671932826246667 9.07244166094762 2.4217441962299944 0.5593764028582108 -0.9489352985682303 0.8341476266016732
Ni 8.578791555458174 1.531742341040985 11.919483479342428 -0.39182763713953805 1.120359488081909 -0.3706839131823874
Ni 3.993192690839377 0.8518520213479015 5.375109722473361 0.433700366113924 -0.9283245642964141 -0.5556691292099527
Ni 2.0974315377924473 3.717659911385643 9.539225018054596 -0.5082461598412988 0.1460602568275936 0.14338579531922402
Ni 1.6663877190015288 3.871570908923103 0.674614833038294 -2.0620836136136806 -1.5073987026938682 -1.6258113730075225
Ni 8.295519038926704 6.4684666575819 12.41675321427532 -0.33334609596387754 1.3519724312703427 -1.8827316846124929
Ni 6.534654433192601 4.220026523656145 8.784014591153197 1.5809132269432515 -1.7693480920823141 1.2109908745172369
Ni 9.02903587584579 3.8867620034518833 10.342701822152916 -0.07603189135459809 -0.9029763153396126 0.4446468378230987
Ni 6.992536162403318 3.3179378410811933 4.328669361857443 -1.896168269733373 -0.13672483835928068 0.48051629802619816
Ni 7.924067474606923 8.251713243374942 6.683480646731633 -1.1190819069210662 -0.6309332891605909 -2.584203189002962
Ni 6.30125298694208 6.338184184296187 7.985262561648366 -0.3634837958895224 3.5941124561514037 0.7728751529444366
Ni 7.3200330900736885 3.6895196413614166 2.104318229329285 2.202982637955309 -1.088907697330531 -1.1918425837235604
Ni 5.801937617173378 6.411330281221969 0.9774878616163915 -0.6802293071822415 -1.764087100793691 -0.511879385718512
P 7.734974162612728 5.094291223539375 7.280727877212081 2.7101291369745257 -0.46095380251323836 -2.024393555262075
P 7.561220786244963 4.527327574889294 11.746229650908646 -1.3992334211398354 0.06131772507287504 0.7489674930889036
P 8.03932629959871 7.289139259742959 10.430792495539496 -0.5614949918631105 0.47927214120645195 -0.6525254135090698
P 3.1266026100536632 8.680784917622013 3.7135184078435652 0.8009243457721691 0.5561051883061068 0.1951361884186381
P 4.501103633997296 6.044148595890987 2.747721084190626 0.627148625307178 -0.38167357942467167 0.37769711127542693
P 4.465512006522028 5.54902868456226 12.638191557302317 0.8605132610793955 0.06467687135309506 2.5265060914018105
P 1.7941026833528004 9.017491388209404 0.5543177368910942 3.394053633620167 0.45325617675866453 -2.1221836642293708
P 7.097115638638805 1.6284425416696882 2.9084350501474967 -0.3207541182314798 -0.5167685954900133 -0.08144920571542748
Ni 5.124366427833034 3.8874410909599058 2.4586279504842268 -1.6307702596746945 -0.12386983677348344 -0.14212724032177457
Ni 0.7564169700492129 1.9081056615831764 1.6479490977734237 -0.004893837757191572 0.4575275504405088 0.05848102695502832
Ni 6.447656811616878 7.874019655522514 2.790663601376025 -1.2446972656307467 0.47396178473713213 -0.020341796881145614
Ni 5.55967082304415 6.643494485848284 10.88853747699175 1.3522609090450388 -0.0710200399623035 0.09827707590604365
Ni 4.5652727522211345 1.0741582940255652 9.04889872032702 0.8293018684735975 -0.7646671632123476 1.0416207393191093
Ni 1.7338499465108463 8.758945099024839 9.330285606202652 -0.518995685048319 -0.9759491081529128 0.9707637072972313
Ni 9.183607355754065 2.794966039354936 3.8182197477277513 0.901633428158473 -0.054412770422925645 -0.3283622695960409
Ni 4.219031148815619 7.182057392553253 7.015053029707 -0.12441311087146316 -0.23591645565979372 0.03877917765072676
Ni 1.2452418332042552 5.138217952482975 12.145646596962916 -0.3760780876147652 0.7823236999518463 0.690845906355823
Ni 3.6306622898099206 5.671013266654054 4.639737023117967 0.46305053714126704 0.7319881849220878 0.7404980221653118
Ni 4.221217252437335 3.251331449883356 13.408325164756727 -1.2615480186394983 -0.10894381159127044 0.03037115609268963
Ni 3.820695161233023 0.8887301940609721 0.18639649735617048 0.19098154282031624 -1.4792829182942588 -0.6438373988167686
Ni 8.491579974804582 5.151846215486444 4.984215789773206 -0.6677597139603209 0.3884417513864407 0.4135200345113072
Ni 5.296566275244091 4.02861687207979 11.195192929963849 3.2608810313885197 0.8600031542121963 1.7708809837870727
Ni 0.603726469512473 8.789178446984751 11.985367991216668 1.154375697126354 -2.823543325632324 -2.57485311524663
Ni 6.78644705757135 1.7198588833318593 10.014533249029405 -2.5070636664064825 0.5968078082317916 2.7681681912961293
Ni 2.342451892228178 5.986565696238108 7.967494655616539 -0.598506278980137 0.11021625054579083 0.13959701770075314
Ni 4.14473153338306 7.989538952435187 1.8547098480585307 -1.199047843222748 -0.023725882862030107 -0.652289900459496
Ni 4.437120567145519 3.5553114841252165 9.220764605525227 -1.22213403561825 -1.7854887063979186 -1.1302240395808147
Ni 3.6803287035816035 2.4688551944064194 11.031130039309879 -1.6338008189709023 -1.5303406562020225 1.5100888479315218
Ni 1.1325784248527182 6.438912397130012 4.726820228324837 0.4654899998206951 -1.5834992425028729 0.8144820298519456
Ni 8.415484963631634 5.334316098635267 0.6625940538894328 -1.0160418624087406 0.5181672756097527 1.4382092881824005
Ni 3.2685877146420137 5.053127357470879 1.1885212816608792 3.641994881654979 2.1255248127874617 -0.7633337891129047
Ni 0.49478408860215606 7.399504933649543 0.5117649973301632 1.0671803329557688 -3.2833758700569264 0.4633405575778601
P 7.041960709391321 1.821852245495698 13.53256375922104 0.2935644451905654 0.2618871686919425 0.1132583798062243
P 2.564504204782978 1.7537016279097548 8.647466837913331 -1.4748673057250663 0.5550525786718763 0.9221315481118247
P 9.242846112618286 1.1019543690114781 5.207846748219943 0.3192909034223921 0.3071534967289097 0.728091678081159
P 0.4628241839095179 5.001042275862402 2.1425769032230484 0.9919231149836659 0.0596562782100521 1.7320868937380105
P 1.3173367398778917 3.0618102197334207 11.88874035062307 -0.5577787193537878 3.4648548727034454 -1.824002803312717
P 5.533000358859206 8.848631162926843 6.927547487885551 0.3695688257413377 0.6658691818058274 0.4068768181631767
P 1.2071385122061629 7.594626310098515 6.647318771800998 1.1822318001066736 -0.1950081474812061 -0.29241413363620605
P 7.608812727218166 7.426352146637946 0.8891218321991605 0.6464444974223125 1.6533795124337785 -0.8356874602849673
Ni 2.2863760086889933 6.544980284341986 2.673272627660418 -1.0568753514853348 1.0295743496775365 -0.13194438625150176
Ni 7.527917590646044 0.6629977853668052 7.997815447721321 -1.3790263500643412 0.6268236378675914 -1.297395881576043
Ni 4.632846610553689 7.7581375584343215 13.139424186460108 -0.1331252939334804 0.5688097803569687 -1.472573367484567
Ni 2.932467305876616 9.339313749031913 11.311494572896036 1.6730988452395767 -0.9724323532489059 -0.1507887726515145
Ni 3.9980393290815655 2.4140630653344557 7.245192065148432 0.7499643097845342 0.5057776436961483 -1.9917698556897827
Ni 2.0278669297788405 1.7173192821032268 6.202072721523803 -1.5340358456654226 1.4765945728288181 -1.3814442154772144
Ni 1.1856216710273086 8.64538864408741 4.587917064714679 -0.07496514065298057 1.2355135422489496 2.207481297156611
Ni 6.312304438442503 0.6425423672655588 4.984243697479015 1.4017405038324053 0.534735207270763 0.26984061921106434
Ni 8.796471660769543 3.414600831435484 13.277005455071775 -0.16872761651812232 -1.283583915393615 -0.24044031167207625
Ni 4.980251035034586 0.5328818280590865 2.888597322601493 -0.5701156436525859 2.0864347887645356 1.7248690358333325
Ni 2.5659368003478478 1.633224061931656 3.5170779271666817 -0.25435229376747814 -0.21716925695927763 0.30410313993836013
Ni 5.003377220581768 7.807887695323433 4.835223990513039 0.20140453792585314 -0.2605558514750287 -0.5991930206345164
Ni 8.620671719309106 0.030068692495638084 9.980917487125424 -0.15648556592597565 -0.7202320728274242 -0.32056617059038983
Ni 5.963858126278063 5.348251346402636 5.853889672050831 2.134187887779099 0.33850347179510093 -2.3962486059344283
Ni 1.6940442554583959 1.3594866782183106 12.680916394382406 1.0657914230280419 -0.8767070972304385 2.581425883368141
Ni 8.689566542383293 7.000108453246201 2.769096526326714 1.8462081357651625 -3.3423268946698377 -0.08490142593008604
Ni 4.320410541451656 4.750338052010209 7.085866042427136 -1.9918040513618278 -0.2775606135631414 0.37436213336492297
Ni 8.358702084878619 -0.25735276963279363 3.205424204084165 -0.6719608965258621 4.296175828489601 1.9144511272029607
Ni 3.8866503726286465 7.803738749726472 9.542152536393974 0.08629830627761266 -0.8830631213554534 -0.31838330400645815
Ni 7.457348305223308 8.900623218849288 12.127334490667813 -2.1121478772599236 -1.2524105751146044 -0.02737273558599802
Ni 3.3428687249373663 5.290780077572994 10.925938454060311 -1.5652199845777108 0.8835732282226524 -1.0296214008653881
Ni 6.2399583624165835 8.805820742215607 9.639188559749249 -0.14639347179729625 -2.001204775850437 0.781429470272351
Ni 9.078041807246654 0.12498093943883527 0.2345828724631085 -3.885710521644217 2.9881880303303245 2.2658700215081495
Ni 8.24404792684603 3.007725085875289 6.228908771429881 0.2182540053830241 -0.8534895214633946 1.3695929725655833
P 3.0417073689822303 2.321018774166751 1.5241179558139253 0.12498980931053956 1.1453966335561951 0.8315798658744968
P 2.0922314019433426 7.253352278327028 11.02716714508498 0.4753769199171039 0.5801635148068912 0.16261276186963608
P 7.46842766442954 7.30311171778474 4.676906366228313 0.060586760444121465 -0.44312371631035297 0.08562133481524609
P 2.5022049028483533 4.204723798304128 5.671472813543044 -0.4628847009873641 -1.0198728061190565 0.6450203633812762
P 5.980212041882225 2.794445095513165 6.304623307546964 0.505927024789819 -0.28540144976379883 0.06529933542844238
P 5.086188686286118 0.7549815837137623 11.349100206473867 -0.16939507489879216 -0.7758038965554575 -0.19132169976855437
P 4.6700289772600785 5.551568285790894 9.138664786319012 -0.5719146445345376 2.4311335907370712 -0.11132079646387924
P 8.165980771129234 2.485878894950001 8.872091310686875 3.300829803867315 1.5474459484237415 -2.1443123778076103
