# total energy = -381169.0012236594 ev
CRYSTAL
PRIMVEC
9.22102996712985 0.00000000000000 0.00000000000000

0.00000000000000 9.22102996712985 0.00000000000000

0.00000000000000 0.00000000000000 13.49590943288707

PRIMCOORD
 96 1
Ni 4.066925973902448 1.802250275137759 1.5693445822523302 0.46633126477506787 0.282810549108171 1.524089275975672
Ni 3.5106581299630233 6.5189268931297795 6.836028887050027 0.07021939843787907 0.2321279351516389 0.13093779936385835
Ni 4.313284227168529 4.646108076904124 12.18381030476551 1.6645473561251398 -0.4489056130994527 1.5984761755276795
Ni 8.943605901048679 4.03555603051018 12.262207500156768 -1.7346615964437224 0.37480847687372226 -0.02576836721335562
Ni 8.611353755160913 2.858961848584865 3.852663359074187 -0.1531233343219621 -0.6112075285968892 -0.9107083938765478
Ni 0.726158863352167 7.60034160542106 13.295144492460935 0.8627989717897785 -1.1968932587735903 3.0214830449380288
Ni 3.6476180856377285 7.88228381269971 8.934210593781664 0.6717271832485012 -0.7353427032166174 0.49002243774442056
Ni 2.9726018198859534 3.9342906812056886 10.503676893627402 1.1075656787513508 -0.020618704691616103 -0.8570224743173176
Ni 6.210852287387376 8.517105609537055 3.561557292376597 -0.4421770361263675 1.3983232506207401 1.8209974408274896
Ni 8.739535290462474 0.7976688715830231 10.039566787855334 1.1686473765540195 0.33152369804315807 -0.15859978405550104
Ni 8.445329113544872 0.5983885859798527 0.7831402170242764 -0.13285327121901633 -0.5195245609685955 -0.39571977310509265
Ni 3.939067174644017 7.893782436864954 4.520063054208086 -0.900431951651204 0.13522742787814776 -1.0870498181861858
Ni 3.2498044178454895 6.434600575574728 11.047535075656977 0.22992167152893953 0.22631235691112636 -0.6852601847379295
Ni 4.699626933884936 1.0652041418963354 3.658552382778984 -0.003671278204000129 0.15630558870468564 1.5050032058784986
Ni 9.310289372223545 1.0005923860616448 5.25507779458375 0.14031178437959063 0.5806353122369872 0.19737690482369877
Ni 6.528590532364081 8.066796619072218 13.049680679085814 0.770058252320932 0.5515625632407468 -1.5865575697132224
Ni 6.242185346660429 1.560391884415895 11.01125862230615 -0.657798231872235 -0.7604027315090388 -0.0027942749156855103
Ni 4.583561831745468 9.22914430995078 10.882804144522398 -0.37955961840546243 -0.5911737498744657 -0.3754268271840115
Ni 6.299567815129 7.037849566364123 5.277251604952764 0.6101842295386976 -0.24836959382148194 0.4136969264088037
Ni 8.080139449198205 2.7497110874703488 6.160018594285409 -1.0051833224276816 -0.02028368994970055 0.5935589622771906
Ni 5.585638803605512 2.1155532047788723 13.23850155058262 -0.31678022118539634 1.9063606368853425 -0.914277856395361
Ni 1.4866420880457145 8.367771031865752 10.904424693103188 0.9066807607743933 -1.5580926295043103 -0.5003970961105253
Ni 7.115389205983634 4.615946088416145 3.4924041793635725 -0.4301321891466915 1.2472377726644133 0.33742643668083827
Ni 1.1223653056496175 0.5803439527569462 12.683320866057056 -0.21428576476389546 1.507323369371243 0.4551302538529258
P 6.544376935388056 3.606888796994682 11.984111384409251 0.9639474557063462 0.8515218562140624 -0.08234446383618721
Ni 8.179486824303522 1.7498194996737868 12.387949150972263 -0.21015734441781872 0.47508509970829793 -0.8187690872630737
P 2.413337141260319 4.761666022404387 4.248607002022231 0.8277039278588584 0.6748587868989474 -0.18414369396287641
Ni 0.11328772796258621 0.6546009057663315 7.6518567326255225 -0.6027578551676394 -0.5412521824536743 -0.47922868956302633
P 3.7831948868418754 3.8193044395532563 0.694403480914104 1.3616253809790744 0.33271129059335597 -1.2207746933768784
P 7.89109911719207 6.989900211384761 3.840922221825106 1.2698436829893873 -0.7937586812616652 -0.7853689145360733
P 8.861215999752408 8.47873690452376 11.850690459973215 -2.724448638920992 1.0499248883094305 -1.0810470636355318
Ni 1.8836535262450298 8.348775710470083 6.30063284407133 0.30401417976897965 1.776693990924424 0.3682647622179335
Ni 7.178073766589346 7.979372035503116 1.7568975621511251 0.8466470446202644 0.3037979499931155 -0.5889798275469404
Ni 1.8478021623681529 0.1759031308447707 9.042299505140912 -1.355316665152227 0.8133738843894314 0.5934221795890102
Ni 0.8623175115369286 3.7347568172829155 5.385501884333577 1.0184620418144588 -0.8526814237398024 -0.5790862225823125
Ni 7.682962032462424 5.998077024666457 0.9468808095579359 0.22021395732287236 -1.1722505205242455 -0.569344055593884
Ni 3.3629648955967837 0.5227263480283798 7.617563722785475 1.6580872023220927 0.9147172579256246 -0.6147934461759348
Ni 2.091237349186453 4.5658113493733 7.1809442731672455 -1.915970906281597 0.17751230468928783 0.20105075413086018
Ni 0.48406072585540644 7.371964360272241 2.2671238821775774 -1.1126562059003804 -0.23085061110111207 -0.3907452027086367
Ni 7.706254353746628 2.955303167974168 10.178156099496356 3.0502449475620694 1.2954958363398525 1.9328180597459228
Ni 2.018381992707234 1.876212155193425 6.432960154372645 -1.5892716262102757 0.9641708845710619 0.9406964555982057
Ni 7.052031510202251 0.3395948519204703 6.548282963612913 0.23659908354911513 -0.48585339396839555 -0.015713296970198742
Ni 2.37302279895844 3.7841815370308733 2.193557584300491 -1.0188371657656905 0.959066216354645 -0.33169364796211903
Ni 0.8655863666023486 2.6667310402666407 0.4606678953463403 -0.22440588391703287 0.16345068438989915 -0.4839975717065793
Ni 3.148760373256287 8.267483111720455 12.580346859929934 0.4538480447063925 -0.23520246031190462 1.2959491218271877
Ni 7.480468217972654 6.824972872315362 7.380413589881392 -0.8200435831001232 1.5286804948907804 1.5718081793181897
Ni 7.202002338930009 5.7954725578190445 11.09150463417305 -2.2152665975289847 -0.6967535300895097 -0.2019719803935489
Ni 1.291626528726766 8.720586074215822 3.9618726255545864 1.2331535266572051 -0.18663072205078826 0.23060198542541574
Ni 5.456774912098477 3.7524980786252797 10.056773229469082 0.23033124826253235 1.4593818084949575 0.513189105668871
Ni 5.887258688485308 3.1896279773463894 5.243038818072009 0.8047542610412206 0.2928975010305278 -1.4135634646092623
Ni 8.874651040176433 7.204584227275052 9.49736839119043 -1.023632787382121 0.48668077496569734 0.9541417824698342
Ni 1.0601417965340911 6.826429795024351 7.891962205581699 1.2503629485569563 -0.6915683863441444 -1.0452339105916646
Ni 4.318706192693118 8.0169753950427 2.108817242507252 0.34545033542657927 3.052282546817388 -1.9433169023947177
Ni 3.1665292976880623 1.4307442053755424 13.082421789609896 0.06612028866784096 0.8940422460747763 -1.4768884499201531
Ni 2.7155840561667683 2.423812231117349 3.9709415083665487 -1.413736499852017 -0.81115579369219 -1.5969553680077788
Ni 2.8201505341409927 6.632299454566559 2.8830499447411317 -1.6701014531741496 -2.0707235486768663 1.417001543756534
P 6.81469142408421 1.2697081408833153 4.632349378333989 0.7930894231087825 0.3762907178462036 -0.7961387514580676
Ni 0.344440503082327 5.129456017155704 3.373774708835689 -0.367367961435277 0.3265506703085989 -0.5916787145353423
P 5.4031730658494315 7.2327636943552305 11.267249163305198 -0.556037568292965 -1.1061595424324433 0.7020281482248877
Ni 1.288823335666434 6.4714846947896225 5.27370150847833 0.6608449891183586 -1.1586941219960496 -0.9088780255360284
P 2.222673908008728 8.472706351032127 1.3288693460010248 0.5977290344944803 -1.575101505357481 -0.8093951022473416
P 8.521439493544806 3.400946317358321 1.7495419466766948 -0.5502939809409684 0.8454491676574214 -0.014942737352761363
P 3.1640488406708607 1.708066676722527 10.861669544212264 -0.8243990318553415 0.23561357970739424 -0.29460008554393136
Ni 1.741446804612006 1.1023280078861262 2.036613812835156 -0.43225694879917814 0.8951696748110004 0.3249329321995178
Ni 4.852336408464401 8.542472662527098 6.366276433141058 0.7391875308840044 0.3059671897302924 1.7700726289531645
Ni 0.07759588790131365 6.267598504799491 11.593215333175767 1.3529941876666376 -0.2337824400359264 0.10911401862054758
Ni 4.717063901243777 3.7562141536361806 3.2605035787267496 -0.31739908571631786 0.18234109353649885 -0.6098024207192465
Ni 8.664974043469565 0.6586590809829502 2.975159733553506 -0.3109952390725031 -0.8867068887556279 1.2665472716263027
Ni 7.190789566688681 3.541622348043927 8.21823912415665 -2.6351256868844426 2.691835480871661 -2.4356016538107537
Ni 6.699612972133742 1.9030084678030454 2.2291728898143925 0.057044551618817885 -0.18399636975173472 0.6812317803048268
Ni 6.259308799005944 5.039467987301165 6.493449187782091 0.03751239512316121 -0.5673434802240874 0.8361199198366955
Ni 4.163221188142732 4.026786831166839 7.787625331249586 1.867288096363913 -0.10696740459118997 1.330796825633992
Ni 8.599467847743913 8.11115899345793 5.7878827281876 1.285758811557747 -1.7919971969403976 -1.051217381868609
Ni 2.7098946807778703 6.320453447634435 0.5924299565206865 0.7645216387734188 -0.015719724728101958 -0.24688246775299416
Ni 0.864940894516088 4.6935226121548705 9.907994679894943 -0.4620424075917269 0.9897651881003986 -0.708732813938573
Ni 6.2478101748407004 4.002839816766569 1.308981428920354 -0.41236843740536727 1.1194524028866075 -0.9217240282607608
Ni 2.3367196046211807 2.6504005964842468 8.692903620642063 0.21599966213120864 -1.1257847728625388 0.16973523184703027
Ni 0.1146358425198906 2.9596001678627033 8.17170519725216 0.8632252606939197 0.28466174338429684 0.29483585570382126
Ni 5.167280681410577 1.7181544833278004 6.716266151959266 -0.7297415549797561 0.25348480356086023 0.8690053577108066
Ni 5.556500349425746 5.847433060763025 8.707708906094922 -0.18833022124039825 0.7720151189369865 0.4215606454275966
Ni 0.736713254065509 5.169364634146219 0.7470297422099147 -1.633606443571909 -0.21497044953574593 1.3631310189903234
Ni 1.0042346928341157 2.577333156319541 10.94039131985261 0.5298943342386938 -1.277087251925678 0.27089579994845603
Ni 5.093143601788641 6.427352846149001 0.29720854422169446 0.0583594137754995 -0.6607074350992298 -0.7047866848066313
Ni 1.914626965355737 4.858035004883101 12.396343054402594 0.5080075614679316 -0.43210679637455907 -0.7798474704972117
Ni 8.70990812170311 5.299390375408523 6.200520123492304 -0.6540171675632478 -0.1852520965357068 0.17905625213764
Ni 4.670958752225159 1.890845929491934 9.180200927958577 -1.6608264556301269 -0.6647672069909002 -0.42154290481578366
Ni 3.5797236431929123 3.466129777040843 5.659226309851148 0.7153564899026776 1.0064143666213052 0.6302686589933983
Ni 4.591731664151567 5.565924241885152 5.053664684786978 -1.143243077548302 -0.7076984591367876 -1.9112922698590051
P 2.9469581360017982 0.6844235603575342 5.052261244050851 0.8443662190058878 -2.5484082907915404 -0.3279274960514675
Ni 7.159788464488563 8.518737731812314 10.547188166962234 -2.117007262234754 -0.9357450251302014 -0.12611698093644733
P 2.92115769461098 5.763429479251105 8.829657947352144 0.2965392115481732 -0.3254188706970009 0.8076876326379315
Ni 5.447876618337882 6.172797097387409 2.5336411508005585 0.8438319437689726 -1.1406282656332745 1.4881555381935403
P 5.89053215406563 8.256095139912858 8.41731746920712 0.1968889094436867 0.07515694494881249 -0.5080183601012089
P 8.571269938604127 5.240661636588609 8.42422770894203 0.1066879256775582 -0.07877474420705788 -0.11965322758897458
P 5.86554316329754 0.46746656062062564 0.8307474717979204 0.21744513632848356 -2.1758510718458397 1.5916226429409557
Ni 6.7839946158676145 1.3910845561897276 8.596422141599744 0.8993433465727155 -2.1779079543748683 0.47838073974043416
