# total energy = -340866.2804180686 ev
CRYSTAL
PRIMVEC
9.25031509947685 0.00000000000000 0.00000000000000

0.00000000000000 9.25031509947685 0.00000000000000

0.00000000000000 0.00000000000000 13.53877118426257

PRIMCOORD
 96 1
Ni 0.32937874128564865 1.9277008937139342 10.646428966273785 -0.8918992315898447 -1.2983541317242542 -1.1769304424984182
Ni 4.996178384124895 1.9094592725347013 0.6865102776331301 0.19303199759144174 -0.9997768067001298 -1.4540544827447732
Ni 1.3913861306664879 1.0878555445842524 1.8760674854491057 0.5699055845243088 1.0716365689549092 -0.32029903297193224
Ni 5.721060818439412 2.806388315526983 7.46629369859702 -0.32228083928865137 0.5330009981884756 0.8228787385560732
Ni 9.274180812309993 3.2788759050771135 1.9876947366754114 0.23086680905102816 0.3418340788302306 0.11924056553158817
Ni 0.6400598208625835 6.670975665749465 3.5859465867097002 -0.05289993332282503 0.6047728287151392 -0.5741157659509144
Ni 8.570870112574568 8.969725194727795 2.4473354887540824 0.07759795029013732 -0.8221189775719131 -0.2086815312032406
Ni 7.9527363133555635 7.657873272427963 13.176134809973403 0.5443465051082819 0.5602266666736481 0.025260060118369402
Ni 3.067099193476019 8.866297422717144 6.70866422415238 -0.42950818240944744 2.3926225791460665 0.13761238317055655
Ni 7.836256346880462 3.909987896240573 6.4199359921325225 0.5763929920208654 1.5695404663299357 0.495501715691437
Ni 5.600612466829477 0.33753751911530555 8.231126393331856 -0.2100089917654125 -0.0004753969745217619 0.5615973217689296
Ni 1.4613647636385452 8.010449028638137 1.6845073372796615 -0.8232746884429112 -1.9961145058117233 0.4346195354940837
Ni 5.162221538367913 7.2921343179733435 11.653172198752449 0.6198124966570809 -0.045267870698863975 0.551375129820289
Ni 6.4228359658849 7.175432343938252 4.5766460728530385 -0.4345632283348516 0.4868085587928132 -1.1526815972533824
Ni 1.982666265441623 9.126425530821207 3.8218323942942805 -0.4362233896460939 -0.6984869678408487 0.025626185208536514
Ni 8.22341903087418 8.130111103473105 9.193963005664866 0.29783813286525485 -1.1497664804891168 1.2981268462047968
Ni 2.919695423957218 6.174548260980341 2.6760060506389656 -0.5598538567152616 1.7771264504761521 -0.1772618792413786
Ni 6.996679256885769 8.919930749084891 11.045890869090988 2.1905582961490273 -2.042007411689096 0.06502654138302995
Ni 8.309844723915546 9.131984970135973 7.27794248470094 -0.8863960423834282 -0.4533029708361999 -2.734572100508239
Ni 6.464545636218146 8.274841531957017 1.4378449127205344 -1.301886313247229 1.3533014344944112 0.6181783034877675
Ni 7.1198934526805875 5.418603268897131 10.627393668067585 -0.8505674627205934 -0.8219839946559456 0.7987535633730954
Ni 8.771009927906151 4.569738862642828 13.364350969270488 -0.15608550227407958 0.4545985497191719 0.9806197741557047
Ni 4.688947672042816 2.230657960266194 2.833611067539338 -0.5456798792077248 -1.6428120213305772 1.390795060564495
Ni 2.7320435338751095 6.6696343700745215 7.302637125623902 0.19481685740600643 -1.3177664748125952 0.43912025157791473
P 3.833136279223805 6.519548009205833 9.32486883838186 0.9359833663932525 0.8420841078399305 -0.7196708010073154
P 5.509728121958299 0.6575540165898478 6.086530588727543 -0.8620494952182637 -0.3901116828896959 0.5203583697238007
P 3.806412119189929 0.3722123248913473 2.439564299122909 -1.2219365748954634 0.6849701643013365 -1.1365396973861974
P 4.16806243441472 1.9563583695827294 9.311195022749436 -0.7814664941578735 -0.540505791205953 -1.1180241550805132
P 0.7815230380886345 3.905001976455783 11.13259314655084 -0.7004057821301164 2.1244079255741997 0.47243403523869604
P 8.190700666720556 8.351397138893798 4.8540694949118715 0.8961461797916568 0.8589762556095787 -0.5300771396734613
P 7.117886134325672 6.728697631347038 7.3400583499233285 -0.18464325930711425 0.5048721011627434 -0.44828546301695055
P 7.531541720478275 3.884346023061651 8.723328254209157 -1.2293943167250891 -1.4831781395836068 -0.1100648125695911
Ni 4.291406134619534 5.357097924464718 0.74501111975367 1.4755918425959167 0.37934107463675315 0.08502175355803421
Ni 1.6966927772286489 5.067627817181891 0.7452729036681589 -2.0429000987066948 1.2245542150239686 2.7731746433717857
Ni 2.8318914339809105 7.438391048432194 11.218077157525245 -0.850544837012774 -0.48231709868036293 1.3597165939921356
Ni 2.003405471670751 3.408028803101682 6.17671190965875 -0.4201740494927151 -1.184384327673302 0.15494598935299767
Ni 6.162504350850847 3.827040321639061 2.3913396319354367 1.6331973810589486 0.9360499579651299 -1.336021307257725
Ni 2.46164757612148 5.195004654726534 4.889120788508397 -0.008618594906946449 1.7826273256897236 -1.2879478487892657
Ni 6.10704871242818 4.926051746112845 5.060738182570181 1.1910085178580392 -0.2538702119247369 -0.281642754052315
Ni 5.505731985878467 5.190749509826713 8.223841770269663 1.146768059982425 -1.215991670165938 -0.4340502932541751
Ni 1.0798170208495905 5.938748481325258 12.264447814430744 -1.5490557161130225 1.8984750634896785 -2.309407796889784
Ni 3.533074561266423 4.0439324574349405 8.379253537483628 -0.39676518365047153 -0.9005540790513651 -0.21149920315769383
Ni 5.1900649865167425 2.6898805981068823 4.990377511588639 0.676507378245964 0.6390119524036673 0.13262778547177156
Ni 4.236283507536852 5.030127040173468 6.315444433896917 0.041221468543632234 -0.8174729941594695 -0.4633757816911697
Ni 5.903292023931749 3.0052145861286217 10.056274594834102 1.4361837731119396 0.40570568067321094 -1.5978403417158935
Ni 4.382928751225685 4.527501924354605 3.4906609419617074 -1.4794428409108908 -0.6338669178676181 1.086549995731632
Ni 1.8271037180931646 1.328891002529116 8.2919018879108 0.09694987245418786 -0.10367253589000211 -0.1623199132195656
Ni 7.846505695900031 5.293057993722411 3.136568134091598 -1.0486277667645618 0.7702906800467121 -0.17966740335907766
Ni 4.974532647025806 2.887735585633562 12.065346809473615 -0.6601248231228825 1.039399049077442 1.2680840199858032
Ni 8.57203565226452 6.079168263019353 5.455177164342594 -0.8500707255898328 1.1329026148542425 2.3385090851311148
Ni 3.661829695746009 2.048880020208838 6.501629224020086 -0.04870209319139354 -1.5646715682734085 1.2164891786276468
Ni 6.902363045149734 6.125863853137388 0.9370180581375956 -1.2322137884517552 -2.3243896150105967 0.28949361755530145
Ni 7.233117308275825 1.8094818680189058 2.0049835754096845 0.5213616141773343 -0.6674205854533473 -0.5403985762041273
Ni 2.391668943149423 2.221268890541589 3.8208444606523218 0.065800443434577 1.3221478917097425 0.38508723309191095
Ni 5.01533578648909 7.569384759141684 6.587572975649973 0.880282987507155 -0.5077962167880739 0.0036663931079936856
Ni 7.877716258708719 1.322637789589379 12.486429473539408 -1.1038206098866215 -1.3836193687516622 1.8172909385101796
P 3.0839255164603117 7.445791300431883 5.077377649191481 -0.055162761215072735 -0.6275438038630675 -0.572599329306388
P 9.030657019630233 6.171171896005483 1.5540344193046483 0.02054054315551301 0.49624862115979046 -0.6848886603311237
P 0.999903549567951 8.986163004482105 9.887337017027706 1.0690654657936232 0.7204542161405593 -1.2991308619892787
P 7.11933843378061 3.2435767030385976 0.30779405626555634 -0.44201479951689043 -0.8435334386919473 0.304610675702398
P 2.840420224410552 6.65945902357495 13.387339852107521 -0.8923957116102889 0.45320604024701944 -1.9244393487639244
P 1.2245196983885052 5.213496034410757 6.652532387703241 -2.6407044665238004 1.6254030818255105 1.7300274401058207
P 1.3141830016797347 1.4361946565246038 5.803583803582442 0.4148924893788016 -1.454295652221302 -0.05913305871673042
P 2.957547712935626 2.1402083801999976 13.020181899331963 2.511132180048901 -0.5915079932854329 -0.08206935579792962
Ni 3.143932309862788 8.669385967320427 9.347587612020906 1.204842595527654 0.2753803180823709 -1.6709902835370058
Ni 1.0126874848974134 8.14281178596757 7.958874822389305 0.6506536504076535 -0.4856497625980216 0.9245476137524852
Ni 8.620895816092466 2.066788630048085 7.7568766187743 1.9838511150633384 0.8204017377704904 2.9882178551269956
Ni 4.202862119443257 5.1187450578697415 10.908932555269747 0.7993935109499394 -0.5223152363398552 -0.2069360092670436
Ni 5.208584117145963 0.7230758477950925 10.875491741514653 -3.156859339689215 1.0906583614730507 -0.1750227054982147
Ni 6.04069620293597 6.9992970960306575 9.27282656619405 -0.432132764516488 2.8086599807625885 0.8389900422956389
Ni 7.830104887405721 3.2958502331013997 11.696780958755115 -0.580713216662774 1.8294093190402687 -1.476426165571754
Ni 9.087416952467846 1.4458704860141967 3.9299667265767333 0.14782583336844862 0.8259530066060227 0.8704351481787977
Ni 1.9753122650169321 5.602351526049405 9.622992615346824 -1.1276562788536386 -0.7915110228780691 0.6154331366424627
Ni 2.432009566862727 0.7814360851276383 11.20939851199261 0.9853269498233869 0.23621290385428997 0.27297582240593626
Ni 1.0479219347309316 3.5840437969142798 8.463207546357097 -0.7426019558821921 1.4104714559475 0.09529768156274555
Ni 4.284801409709811 9.282228586359654 4.416847806266258 0.5169557718001548 -0.4370656830417312 1.6798927282329585
Ni 2.562374256152244 3.0326325197874686 10.360882842613794 0.9975929116749336 0.02864723142304744 -0.10746234194973751
Ni 2.6140187647950723 4.2503994882262575 12.506074367504082 1.2942511652994741 -1.6278109199360546 -1.3009105795975209
Ni 8.605697548548104 5.590418619699906 8.648255472766815 1.3611281296276816 1.6950293267640808 -0.8226298557700606
Ni 0.15267829913157943 8.896037185440894 11.792946308459571 0.3370029759901745 -0.3304160668012761 -0.6611866887284936
Ni 6.605779445632207 0.8612746288577807 4.1108584864571265 0.4923729402544681 -1.8877098545533748 -0.8282567150385349
Ni 0.9784428187688535 8.007359423428266 5.666300803704715 -0.7988157840695985 0.03526036586419089 -0.0506648733447192
Ni 2.0366603540943524 8.927405003604575 13.233782773050978 0.936740042053619 0.4966111467055319 -0.32069575418971863
Ni 3.152997618562407 3.4987003907278686 1.5232475209229428 0.48904618987408033 -2.4052194419744706 -0.4070706793415377
Ni 3.770039880611458 7.972652241549725 1.1196239013874163 2.2390493017708795 0.6021107085019437 0.4699711755205002
Ni 0.16721794424796796 4.31860206071839 4.337483803695596 1.145028965804131 -2.57330171159911 0.6181399940506644
Ni 7.337192602336448 1.7263307864874027 6.143366374148153 -0.7328237934495057 -0.9927818634395353 -2.077518460111512
Ni 0.9049851423254426 2.224127237876469 13.27014853640895 -0.911565085449888 1.0595163886526076 -0.7071788391878918
P 1.8382225967226973 4.38445505320062 2.8745520366961164 -1.0850592701187183 -1.1825562733256278 1.305085536910817
P 8.48808904364305 7.021359097304731 11.070869494684436 0.01605473947001751 -0.8297620959394677 0.4381612300987551
P 5.0231615529787605 6.422919218719897 2.8303475564074754 2.25642610248643 0.8273540007186073 -0.6745345707903093
P 5.798828216641141 5.156227334248165 12.649571728998547 -0.037168895740813404 0.1170561562857597 -1.1198637793924133
P 0.0322068217341456 0.34118954347715197 0.31546534249473374 -0.7441885836430215 -1.0436064022905704 1.8681363032968215
P 7.437188507482243 1.0355912648364503 9.347559861075906 0.09771940363036073 -0.130571160053059 0.279099418805171
P 5.887640490952407 8.990020385836942 12.966121208411234 -0.03846036085872731 0.2431741656634715 0.4582783125636043
P 7.348255979075983 2.9803127381496686 4.243579230977044 0.5313439222010268 1.1107121948001322 -0.5300429440014162
