# total energy = -340861.24484808097 ev
CRYSTAL
PRIMVEC
9.34569919164995 0.00000000000000 0.00000000000000
0.00000000000000 9.34569919164995 0.00000000000000
0.00000000000000 0.00000000000000 13.67837544473180
PRIMCOORD
 96 1
Ni 2.0636425298551093 6.139012230557008 8.369880159753894 -0.2323806745923933 0.4453407785663298 -0.7970211540630209
Ni 2.33688273711456 8.289850133868034 1.8128908785599647 -0.4030808414558542 -3.3525547430454328 1.1392524683316703
Ni 2.9480073529404907 1.2433331290276979 12.759844786637263 -0.235777101868452 0.06542789058650668 0.11599403356983248
Ni 4.596046639753299 6.516148575727438 0.9655116600246146 1.3083474954915402 -0.17099481528574423 0.10760606661645339
Ni 5.0794622761285195 8.59537973183383 6.635571658275038 0.29709559827227544 -0.12006923208047063 0.5554433863523919
Ni 3.3368164764010007 0.9900179524443476 7.268442781549476 0.5492408570861057 -0.1852934912966035 -0.5684346564057372
Ni 8.071151427089692 0.0707675034172457 3.1997552557694404 1.6425975913269257 -0.9354382925230599 0.37553249952394036
Ni 0.38363440981822244 8.863984472294339 12.17428720008929 0.37967866048182997 0.16725128908291198 -0.8589238051050884
Ni 0.5814221146557702 0.6627558655788317 5.037677655043695 -0.37897160711247635 -0.4266208335593233 1.0252862638251439
Ni 7.395111584680182 7.054358046461936 9.284169911650192 -1.3039125996486383 -1.298258229576338 -0.6479748180239099
Ni 5.317487888834712 6.4625509908646634 10.616704001180285 -0.4165207690108439 1.1870780724553813 0.8137384668177018
Ni 1.1775113696225499 7.5885208294465505 6.344482100129901 -1.175320417698821 -0.4479373356489124 -0.4528833668002781
Ni 8.436166400408856 6.352841828056622 5.236984970569768 1.1757497919267557 -0.5289078019557085 -0.7869797106666189
Ni 9.039066800946339 4.409842929063512 7.558520200472183 1.3432265667569123 0.13366831092114398 -1.9668499525196514
Ni 5.843734864604197 4.2541903090304665 10.163484318892532 -0.02478080648910571 -1.1667735565700745 -0.768441028432483
Ni 4.775156964756801 5.078023038453042 8.162351432649132 1.5015458434575173 0.24176597246203527 -0.4529296466571812
Ni 7.510736575076388 1.7530569086267573 0.6239487842563929 3.7419508879253427 -1.4611386432850642 -0.8851287456352306
Ni 1.8989993471999207 3.264835901228709 11.303125980821543 -0.5102210241794827 -0.8983012784614465 1.1952356685655092
Ni 3.360797540526176 5.367337848321729 12.148366903381897 1.1291099805810296 0.3878555398656675 0.2019177301168458
Ni 4.4942813212579615 9.269344829022847 9.907575710783565 0.710170574826364 -0.7809342758034873 -0.5107604416227205
Ni 9.223158383618866 2.9689417191292646 2.9948937912139093 -1.2125350790759053 -2.6342638531047795 -1.5681101616413122
Ni 0.3488076617814081 0.18067853332782122 7.501809563208748 -0.6736318564703818 -2.4007228396556974 1.7556307424962216
Ni 7.435204634211359 7.59920296362234 11.5264246407419 0.0489355493584383 1.4167133230921536 0.5212852524134441
Ni 1.3615562237991194 7.406616140384815 -0.0564255934380976 -1.6202883863067643 -2.1960907959314824 1.2404803993359217
P 8.660958503060002 4.877632556390685 3.2012729973181266 -1.5866876675331836 2.851163658452754 0.9536666426056286
P 6.601848637312729 3.1443231101553906 1.6929042503511227 -1.0675893954687292 2.0045058151992126 2.2308078876976936
P 7.244057048649313 0.5201077859706426 5.229160751206714 1.2813755948883867 5.075883945195471 0.5811078809980315
P 9.087907424920683 6.153292458921493 12.620462094326554 0.3447232274525676 0.1963770028042747 -0.1565436728574207
P 3.130855957620559 8.109683744855904 6.573116219718639 -0.5368954481468753 0.8022752033731086 0.1929155266182355
P 2.4779186836122298 0.4145322259149653 10.776576204398257 -0.2572830942610279 0.7212700271736352 0.6108203204607997
P 8.647173596752662 3.2249858398765086 10.716404854724239 1.092962584126195 -0.5476603999728632 -0.17588659616040675
P 1.13021278601479 1.8768126573194976 6.90075400369165 1.7799346093489088 2.597624090394558 -0.6387070195687387
Ni 2.821120795018626 8.917582057157114 4.033506575743867 1.1965723850990617 0.04514780018123192 1.2808634311386586
Ni 7.315177819495994 6.8046035812705155 13.718863054863682 -0.04247205312128169 -1.1849648827671204 0.21862321579698477
Ni 5.742137768694306 4.455571435207114 0.23598170829302967 -0.4416877551947748 1.2071933551480176 -0.01534794321098002
Ni 3.099903001898587 4.146882990914619 7.130058209912412 -2.482277460600738 -1.1600637486500667 -0.5221974798150684
Ni 6.755903142784043 3.295536523072513 12.083818962776538 1.3479447981681882 -1.3873109586706365 0.36537561359559656
Ni 2.528226582359626 2.2219960569544743 5.2203243926212295 0.09735353565050975 0.0069034119880526275 -0.7666253153799829
Ni 6.613895243570466 3.0495670660536165 3.9413691965555278 0.314204232928104 0.16228648887846892 0.253774309776821
Ni 4.720578081478926 2.938278480082226 5.919043443258551 0.6295166113187223 0.035781785585299666 0.1267769831179494
Ni 1.047101483105521 6.431345701264523 10.785549944761854 0.4043715352428197 -0.44555495145966495 0.7711620269080719
Ni 8.277401662545069 4.522299727433829 0.23911064838231597 -0.18358884990067093 -0.2034593635723528 0.5041622195799124
Ni 6.231413158462545 1.3087062948716577 7.188054815384587 -1.4095363457277403 1.328401585928938 0.3551305388288207
Ni 7.343495288045986 8.623005618643658 7.434675667637125 0.6719063891388428 0.7443919579030792 0.20740626403524282
Ni 6.402953467121 5.283908791639952 2.4602338170323117 0.4114770359393494 -0.4756407151014518 0.49245958643100357
Ni 9.335175934127188 9.020552970848144 1.1182166465326875 -0.14200716980414252 0.1842982172628697 0.017126375267641474
Ni 2.918138498324723 8.067553332900998 12.37531879711618 1.9038689808117406 0.5942791282726669 -2.24144608413783
Ni 2.148903343578404 2.434461182372142 8.797274871466007 2.4867432096815754 -0.11530574925355624 -1.1006373270626335
Ni 7.811798928828687 5.233516781599834 11.085132874332151 0.6602482360746241 0.6156321400271462 -0.40247611799231975
Ni 4.19517221863667 2.143099664380534 10.954108040808327 -0.1943689712353104 -1.4222059707756087 -2.9209117736811696
Ni 6.435513883103894 8.30353223748427 1.3927185231829793 0.3233689301465076 1.2288168469550642 1.7388188131452051
Ni 5.3700481010872405 2.036988595761189 0.18456821333128884 -2.845981600031182 -0.6141756100862777 -0.56824850853686
Ni 4.5585890773941005 8.96716099136758 0.34423294202720955 -1.5417231870073513 2.002768006572499 0.3241150642839128
Ni 0.5934023664492474 1.3247715517817031 9.818899044005807 -0.8354956559891352 -0.49573671452037854 1.2054699446990078
Ni 4.499262578926987 2.4583114067086376 2.5234415843736206 -0.7599404471606396 0.7663738614908092 0.44371378448586807
Ni 8.197449205962497 6.913920224712517 2.3089512459411727 1.4220478479311895 -0.11099040970765402 1.0587622840954023
P 7.21515080105026 4.936734758077204 8.292241698291118 -2.117836957224901 -0.11161878732027229 1.0580490600784616
P 1.1854832510328284 2.4739187243583034 1.0575780118990992 -1.0806562559550161 -0.037802929780386504 -1.7302148735262783
P 5.703605450928094 4.832857311564608 4.858832747897231 -0.7210730806714808 1.0446248162527558 -0.8493148212604147
P 4.785483962363315 2.884970611894385 8.669901402616269 -0.692305264510169 -0.9068514820243028 -0.5289072877350762
P 4.623242624400321 3.4634507004446973 12.334844443057992 -0.7337013109584526 2.2275307596083187 1.6567111479101724
P 2.4195361007634495 2.849849474333041 2.8822799850971763 0.5233966423294921 0.12418788223453452 1.9448487656582119
P 4.963061592699424 8.498418102722882 3.1634799243579566 -0.27953239257753143 0.06335326744566509 -0.1650969617440705
P 1.3453040529052458 5.345347418124326 6.206193789194507 0.6511113067703626 -0.5894883917522428 -0.4616472290358372
Ni 4.776175645968664 0.9418128360150202 4.602403584343301 0.49132033062023767 -0.36730085564276743 0.7981817500300253
Ni 4.0269402874919775 5.932724612304867 5.774285104772941 -0.5735424099459477 0.9418079434948297 1.2053491028504273
Ni 6.964106629370425 3.8027276181906986 6.197248085928483 0.7093586204480299 0.7428575235364239 1.5711764592714619
Ni 6.217282461285123 1.1393248427264213 2.708536895139305 0.15248518651733095 -1.7188804223500656 -0.9235978482447061
Ni 2.3637796593874576 8.703556199974479 8.905962549352425 -0.6194815956802235 -0.7220686118155306 -0.5783647710352555
Ni 1.6960481435591153 6.5534472612003825 4.07833041820574 0.4814418951642612 -1.912747000027661 0.024836342317389484
Ni 1.0722040311336662 4.2540127407458295 9.379481090283935 -2.335691927397294 0.7308507288835349 1.1331905784083063
Ni 0.2662440168447562 3.488562594172034 5.082706168317861 0.2980453637800544 1.2180146141332377 1.9828854087159593
Ni 8.09053440721269 1.0300455820811854 11.364596382683168 3.008314882987187 2.04662948384214 -1.2154106008514873
Ni 4.335582003288514 6.302711497593863 3.471859026007215 0.6766593304427959 2.3842410399505907 -1.0568362707172831
Ni 0.12794075279065664 2.69653327909785 12.784055754962548 -0.19408589277725283 -0.4430069882268306 0.16494963753292882
Ni 6.6024093792642145 8.194281013936608 4.872798026198964 -2.019788966610528 -5.157264502456492 -2.83988705709767
Ni 3.3414332518015604 3.899530370415393 1.049278096447202 -0.15620325879886646 0.44670577723465643 -0.9127729897150603
Ni 8.35228875016589 1.8351214932265876 6.314580535566963 0.06412845504879278 1.4150320787349888 1.0686587172735078
Ni 1.1016990577817776 4.635653712926523 2.033810123466188 1.1683928373410524 0.6380107648326625 0.012165945938572596
Ni 2.786177225741919 0.8951320031238129 1.4184883541333917 1.9818381983983673 3.778625103417925 -1.4049158162365933
Ni 1.4695270865575567 4.998248150155109 13.366275992329262 -0.8063455167877402 -0.6527832951561466 -0.27259221381427245
Ni 1.0972785420642375 1.0252232012984144 2.8954106924611165 -0.04832979745363935 0.13203257508993388 -0.5677728544520222
Ni 6.135591704652949 0.5209788051352826 11.735266438583055 -4.186214117156778 -1.1657859958458245 1.3485317810199098
Ni 7.62117470242136 2.7649064143822546 8.692758179128717 -0.0018285685683065282 -0.58607165276121 0.7603495096736003
Ni -0.07709267262999654 8.23703758773734 9.74153347695942 0.3473467811183437 1.1413983110300796 -0.4170869259269591
Ni 3.2541724584513028 4.398338373358878 9.980385249474134 1.8740958633143658 0.7127164811766693 -1.177913632347294
Ni 3.6122903057672002 4.351413617718775 4.102856336593774 -1.2890493093835607 -2.2631351390754895 0.26274977380255393
Ni 6.437270874551881 6.563475196432773 6.4615958604073 -0.6333154162395221 -2.155789010988642 1.0378023940142835
P 7.045386175238176 0.0821692564307741 9.674318273804833 -0.060668521524650354 -0.46746820659298843 -0.626602780106037
P 0.7688744107575303 8.339344956785778 3.6810559604176443 -1.6409194322935545 0.17245365921945782 -1.0241416086977395
P 7.771715224996701 9.237261043698714 13.293726264076215 0.17370861467248147 -1.3561034227195805 -0.41503801381773037
P 8.604332911659208 6.8452293356556035 7.477953731452737 1.0015236141879074 0.01168412120614762 -0.6616374031126669
P 3.19412634114645 6.762482515014801 10.129534197439872 -0.7269231116943544 -0.05415231767268738 0.7174452541109063
P 5.3301326198406995 7.480905103257387 12.894043419606492 1.066001225046003 -1.0757143385687087 -2.515892834662338
P 5.218535625795992 7.103591189802319 8.393365901821925 0.5716079119273962 2.0845514556988936 -0.008464071606953165
P 2.685795070726912 6.0860594989384404 1.4965782128671123 -2.0045978606923867 -0.36238079263333073 0.3992316429130931
