# total energy = -340887.058076349 ev
CRYSTAL
PRIMVEC
9.11527293065297 0.00000000000000 0.00000000000000
0.00000000000000 9.11527293065297 0.00000000000000
0.00000000000000 0.00000000000000 13.34112331992293
PRIMCOORD
 96 1
Ni 6.56997862867443 2.2549270403748953 11.34685186121126 1.2504596220358206 -0.29196161947981975 1.2604866672545196
Ni 4.69398258889144 0.5172324753334474 5.619267537975749 0.013387477050499525 -0.48434209953019164 0.7489577228968908
Ni 2.603832332757959 1.658943166720172 4.440566158525181 2.2104768894498252 0.22731123048928592 -0.013961861496730793
Ni 3.4632475868727637 4.694912346704827 4.922847943820632 0.40224266182527496 -0.09782070509491539 -0.43492318277743164
Ni 3.960020832675323 3.1224275413571076 2.2600799040210573 -0.6894112307918255 -0.9230108653929846 0.33641213648371093
Ni 5.484814531359819 4.813410891548463 2.732302074386552 0.43097859630738683 -0.4531332780275551 -1.9151540668072564
Ni 5.556460574626818 3.088846876802958 0.3293566785929358 -0.250577142995762 0.5274381593887174 -0.4606514407814712
Ni 5.799273208284106 8.112993757446805 12.348076146994979 0.5686416302102207 0.003609314617813139 0.6468486748392667
Ni 2.103121289157518 6.650430025350578 0.16193737680150783 0.4209453804411008 0.47014472498388704 0.47485292909283383
Ni 0.8768965240610449 0.19151643664901524 0.23147870360662917 0.30963769660334417 0.4477812696870224 -0.267892494345758
Ni 8.379588137526943 8.850592507462354 7.087978609967557 -0.669615279111821 1.2974555311693847 0.17423543371022898
Ni 8.859853624505517 2.9918603754847823 1.2445182058385265 0.7422651413680635 -1.3796786389363596 0.9585455679644846
Ni 6.85487647629657 1.1538203311424762 4.743583345181181 0.32982805550829 -0.6964789362718844 -0.6549077976983173
Ni 1.2736223599793912 7.604771729157814 2.645357868980241 -0.06786066839771537 0.6289375988868007 -1.5219156653631207
Ni 7.771262184663122 4.000282992104118 3.7499757812491037 1.2942676203597065 -0.49980419972153284 -0.887415227676562
Ni 7.728639169610134 4.091034646908982 12.606574341880492 0.3503572858098934 0.364380853782495 -0.4635567873537242
Ni 8.801534109897089 7.35460307044754 9.602072906242698 -0.40898023765942465 0.2961635733763093 -0.875792298725653
Ni 7.151751792220597 1.0859935871285153 0.4565976814642272 0.6630080582079485 -0.12102516823583673 -1.2712778443327524
Ni 2.1879206709021597 6.7062519552446105 9.124354226450995 0.019181972245089544 0.6165471956422479 -0.35583502109501297
Ni 0.29816877311735906 5.49620862221017 1.3438646512536263 0.019878226981165766 -1.147559959756101 -0.40225037513475886
Ni 6.678286298661512 2.1871094116336147 6.981009062009939 1.4449034123731244 0.24879485428435866 -1.0643729454139603
Ni 3.5130443215251312 4.582065270922966 13.254632856830385 -0.26527279733472375 -1.3576825942812423 1.4387759593191478
Ni 6.550271409139666 5.7605241841202375 4.595950565796836 -0.2522362758657398 1.8508628609283546 1.1678981570928209
Ni 5.491587178961267 2.8377119991885733 9.210604759606337 -0.104014235500137 1.4000029523160082 0.5928789054910306
P 0.2532350364399206 5.742147794396794 12.277648815685334 0.23856906279129234 0.83548537157649 0.06403743799688326
P 4.27706824704081 6.36334451228517 12.449189132255515 -0.7236449551637151 1.7402244352434804 -0.049837749457733525
P 2.8309575821324864 8.669116543670665 1.222263267589624 -2.5437124279777676 1.1700774241323266 -0.4907521168215935
P 6.714027282840889 8.280842388581474 5.800160124315898 -0.3728163861443579 -0.6227895770075339 -0.633208972568645
P 5.064737189889133 1.1932985771207674 12.564202908353481 -0.31265411483216476 0.7184855224499627 -0.2363031495752511
P 4.389669210460303 6.2072728134534225 8.142127080460247 -2.874170403760573 1.9128490728231637 0.45793738428441777
P 4.797741737811061 1.2668405971052632 3.5194149856013786 0.8305766214209631 1.1009733702458135 -0.1910576474738903
P 0.25786924107057474 5.7943236152187145 3.603330185896033 1.1416245681082726 -0.7716952737037226 0.6438047458066202
Ni 0.7131844036686865 0.2734044002995753 4.643444782570165 1.2983510464004608 1.4050477138287674 0.46169376600305645
Ni 2.26973935848035 6.758354853885089 4.545667075583341 0.3096906613284666 0.2266162613047904 0.6113538243667664
Ni 6.24501915762246 6.171221910002917 9.144886378163324 1.6724344721827005 -1.1677058385763566 -0.16215587683787558
Ni 8.922986003089134 2.7602139508608365 10.374150175171405 -1.0584684070040673 -0.564997348589414 -0.4703355008384545
Ni 2.31310982589312 5.325962674360587 7.075170740324496 0.6564309192110631 0.5478905137057983 -0.8186808984246416
Ni 1.0682279206746506 0.0875594863122301 8.809730563091195 -0.21673139809091058 0.2989647902705303 -0.022510265287374136
Ni 1.1821597139054656 1.1648589263582947 11.186411212183854 1.6364444272413368 0.1393432498187342 0.7570723815842253
Ni 4.27122535725275 7.1951587207240895 1.6017083695606964 1.6324533038040723 -1.6687359402851907 -0.80515741001691
Ni 6.073761414505367 8.439265827764736 8.06908457741863 -1.2567282286533517 0.378720924554251 -1.1043500000275304
Ni 5.417388859343791 3.185842493393813 4.499040632769175 -1.0691922211794747 -0.31797372727286527 0.4415139486210718
Ni 0.9389551235229248 7.495990064991357 6.425218071711641 1.1214434651747072 -0.6003119647303081 0.9367683241883932
Ni 5.449738962086103 4.679170270785985 7.343861633121098 0.6484083060169026 -1.8877350513643554 -1.3289127212374017
Ni 1.1589522296614736 7.71971531765614 11.621452185286488 -0.8952478363471034 -0.32873662221632416 -0.5730657274198453
Ni 5.090916253026896 0.587634283879587 10.458599530445122 -0.7038497748146588 -0.8794818317620982 -0.8661198086328955
Ni 8.685022694497754 7.659417788876091 4.460151233406029 -2.756401794788821 -2.4231189479627107 0.9506293984412015
Ni 7.220444487139185 6.3945552059424475 6.932967928875793 0.8242190546340514 0.41690206360966264 -0.28543950209058583
Ni 2.578829139795952 5.548530287394974 2.295099870131424 0.42661080625699427 -1.6001178248961603 0.7849102297320998
Ni 2.4970104522177614 5.641870679641038 11.206823042296804 0.3594445928231423 -0.9741081982894322 0.15712165684807777
Ni 1.1580042413027245 3.4817060140503298 3.8731413457050414 -0.6483486564235609 1.1310413932757875 -1.5643057002935576
Ni 1.3974806851590311 1.2400872717886426 2.3513994403139025 0.7551062589967898 0.689136122753568 -0.021819409867936616
Ni 1.4864457465185603 3.3913372006980373 8.157816287797544 -2.5565139506178096 0.11329000437510812 0.364208846981005
Ni 3.8416954780126136 2.7867120485424093 6.641664779141221 1.4890633947197902 0.9046012525375453 -0.15096283633553356
Ni 4.453430542858859 6.998551404283137 6.010616274539998 0.22237162709582345 0.1929921454924418 0.02963479214729735
Ni 8.47499769667143 7.518577710693091 0.06219806313388807 -0.3227616355798119 -0.7284513754134229 -0.010511698164601251
P 0.28625693477876957 5.920533680749867 7.97442976285207 0.09643642315287906 0.020551856009422668 0.6551047442004718
P 8.89058120871074 1.7833939846240296 7.87797285887662 0.8891643491571848 0.42289324819609103 -0.268286387350067
P 2.05133742506085 3.3046600727812585 10.32577542305716 0.13526342332240573 0.3845766120040796 0.27531449784144196
P 4.571701205885487 6.35779331122288 3.753778673011316 -1.4538973883416184 1.1492738571234142 0.46167988204598553
P 6.932684443895437 4.013828287307014 10.140600481611814 0.9358838647009109 2.333465609169936 2.050285592537488
P 6.663492211101419 8.202870346074363 10.088904124132876 0.9343319468327586 -0.784694514176868 1.2374030459621788
P 2.6005234887750173 8.933824062305986 5.777746580322359 0.2962754163638252 -1.9535606916099129 -0.514098761967334
P 7.322371466250071 4.425319041912878 1.4347840270758074 -1.3319458516367706 0.5930532262853657 0.68387744545779
Ni 2.9154561598786786 1.9155016315793225 0.13705359391161245 0.02656360942114135 -0.1180606862908741 0.1745619638117123
Ni 1.871866821258824 1.4921245613983745 6.874040425579589 -1.381223100605344 -1.7095339481381588 0.5859528677951586
Ni 7.330119448028309 1.27879071958911 9.172489246893749 -0.18007106655539956 -1.4620806954833596 0.6118400199745657
Ni 3.306200553864225 1.8177767931740445 9.028498018945175 -1.60601927798226 -1.6360564477742983 0.2876874175844981
Ni 6.4754714815252905 2.3278583370898125 2.4437335064560632 0.7631646105248922 -0.3235723044065653 0.15766981604206395
Ni 4.519908226516139 7.13003009742349 10.28918124935491 -1.4168349362716823 1.0151000673207615 0.5651277035196913
Ni 7.344074930501817 6.248464730695607 11.223860398463515 0.3602987132933214 -0.02924758401120769 1.206156429243071
Ni 7.881812211729553 3.9947226757691476 8.326034999003033 0.7901185134059167 0.2744212966032113 -2.0000570353992395
Ni 3.3585131037763505 8.654705297563144 12.400453415343133 0.7130928906794816 0.10845118822556805 0.3903831913835277
Ni 0.2381474370995217 4.951379658837175 10.17456763372761 0.5881023100379936 1.4783262108079442 -0.47770968181533857
Ni 8.763851572636812 2.352688339870894 5.578536853531187 0.6373854725438378 0.9351888955164152 1.3259891198327034
Ni 4.05414513837189 2.651815128146951 11.179300387965968 -1.030681466698786 0.8100023968140372 1.0273171782122434
Ni 1.2918437900672703 3.723953500801441 12.396544786417829 -0.11927347565205264 -0.2023044240323032 0.4683284977107548
Ni 3.3860503425434754 8.705668787118586 7.9113128802320105 0.5616865390486261 -0.49813838198333565 -0.1705998938401707
Ni 6.056469742230877 8.205659619514527 3.4598065714359576 -0.5020953097485547 0.16877672458850287 0.5228333136268544
Ni 3.551036778056537 8.678295623259707 3.2445876912364113 -0.7229340451396195 -0.08075860740630608 1.7284040455697847
Ni 3.5605622380074284 4.1183348885864195 8.857958559315287 0.371658875501147 2.185743134148571 0.9114002777372497
Ni 5.322234527834352 4.744016320633494 11.57785383605671 0.38344584083374605 -1.0149483722342454 -1.5825163097643133
Ni 8.495616443474223 9.024530140747448 2.3614317094258186 -0.6498609793030292 0.6082260773710622 -0.23043152128582253
Ni 4.874227990871288 0.5910242537893832 1.2440341848592036 -0.22207697867354012 -0.5008686364303051 1.0345597187072697
Ni 6.0520123738902205 5.753250196521375 0.27910326877928615 0.37199363313274647 1.1273505746877615 0.5900851447959773
Ni 8.239377013158881 9.024685100383014 11.435503357190589 -0.8759331951788916 0.6367509242836324 -0.006754030894381916
Ni 9.141068901964825 5.069978471680294 5.968418031193911 -0.18382359161929632 -0.7337059389441428 -1.1659744577075466
Ni 7.710007552251643 6.724692151876816 2.4994597259869527 -0.984185380019776 -1.9027163552645359 -0.6172156824641822
P 8.62296591809041 1.76090660692178 3.463035201019313 -0.43746960334836915 0.7928433685362475 -0.44668495129905006
P 1.8944544669605567 3.366160817555105 1.6155435304348247 0.9555054955865803 0.8425312226796781 -0.8699666931828115
P 5.042678230002856 1.4082184763764003 7.85792108203454 -1.8041202054561771 -3.567637549789327 -0.36511490373504213
P 8.774288559855732 2.127923946120559 12.546872951933732 -0.5108514586746299 -1.8909520156397561 -0.5572323599320145
P 6.779365557413133 8.187884837787982 1.253823987717824 -1.420536810603302 0.09321046001641367 -0.5735920322369605
P 1.9432849827088148 3.294806463013876 5.821652114241461 -0.5395863647154772 2.066849924654073 0.23437636486618346
P 6.90410806404276 3.9782787238539234 5.80370869997033 1.4178772614932678 0.7724879448083469 0.8037900973557383
P 2.5347750269321603 8.779466034738132 10.39217471536939 1.4306803267952068 -0.7248520880979388 -2.2290783066010964
