# total energy = -340894.39980975864 ev
CRYSTAL
PRIMVEC
9.03069387168918 0.00000000000000 0.00000000000000

0.00000000000000 9.03069387168918 0.00000000000000

0.00000000000000 0.00000000000000 13.21733331774858

PRIMCOORD
 96 1
Ni 6.418186299283393 2.0632967870279675 11.264207382353609 0.19242598857632665 -0.6070217726503159 0.6549594768718591
Ni 4.641180565768095 0.2983018762106646 5.96531326257391 -0.6093941295372344 0.047277959150357284 0.14728281638078505
Ni 2.6913905685830635 1.4714702716045625 4.785097313771353 -0.2015775731686077 0.35856347576976955 0.19778519600571098
Ni 3.3141562408210037 4.233851123818409 4.6488530431848 -0.11944059735753625 -0.2509502100644646 1.2169946575091555
Ni 5.260117223852689 4.458462538964681 2.821993364779063 -0.36867562450310704 -0.7505237818324301 -0.4930175158170026
Ni 7.191845833521939 6.047367952196861 2.605876220181463 0.11765779442550059 0.34600337971657186 -0.31695197087657023
Ni 5.212353884567202 4.653046897365964 11.604263574223259 -0.06700937614101364 0.36330356155791627 -0.2527350698790292
Ni 5.735655495755729 7.880598785048791 12.28036994221156 -1.99827448957752 0.8537090936733683 0.5293523456922948
Ni 1.8600249012315926 6.4141224870923415 0.39212536593890024 0.3041602184285407 0.6968211501026516 0.7011634862317473
Ni 2.823347065773371 1.4726081390180568 0.3844285056490495 -0.45586070426104713 0.5106349717884496 0.2732457882378714
Ni 0.35969253237680954 -0.053118540683916485 4.581286295557633 0.8078848362504023 -0.37383788543033675 0.4193356127518198
Ni 8.673674310866803 2.2083839129422485 1.1634558842572857 -0.29987084702456746 0.2887641955884446 -0.10321230842413193
Ni 6.663405757585173 0.6750551952348824 4.70501402459575 1.6069248205156648 0.26293386478890196 0.42485937078352637
Ni 0.7167833218819706 7.349368224740837 2.3531215510080994 -0.28604731087791385 -0.5369957211701655 0.8327309487598045
Ni 7.607059071122264 3.7401160039932195 3.694482102295843 0.41722165173261044 0.2804320215736654 0.08575246107647168
Ni 7.4737118470932415 3.8979454387998853 12.603507129325802 0.5530967404970861 -0.1035547793652152 -0.6181564491108967
Ni 8.074740639455937 8.96104001693666 6.941954797339202 -1.0917672782665133 -0.3864375764722183 -0.8626251652160757
Ni 6.997297597895687 0.5801552468107061 0.36486982910820864 -0.6097797950114272 0.5075391064719453 -0.8192056605798601
Ni 1.7435831359173424 6.71121425033945 9.133481114243596 1.1698293126772625 -0.6918555785672601 -0.1623479382440236
Ni 0.09776809676168254 4.8745336924720055 1.422026320210732 -0.10820307677050398 -0.6453890595746046 -0.019356035929108603
Ni 6.380284477581523 1.8437515910798725 7.059086507656555 -0.12200835808471246 -0.13197215416564367 0.12212251506507354
Ni 3.484375787463496 4.141178144474929 0.5672955388994689 -0.974076573720548 0.8934966579839516 -0.24383648183781878
Ni 5.998222916766418 5.618554489797152 4.9924375271056585 0.11964602850012299 -0.1374545174364536 -0.16074922629833605
Ni 5.363021979223861 3.104562869394105 9.151404332144882 -0.1844511979009662 -1.1089455898180127 0.06729065482685831
P 0.103410474221613 5.612115605147776 12.395294550974484 -0.02163480466095629 0.1304246071728657 1.3082824465815597
P 3.9075631276520397 6.092295653642371 12.730248400870927 0.3857233240140131 0.3735805180038921 -0.11632467743637386
P 2.427369205877354 8.392991318177783 1.5378765750838403 0.19946412637003066 0.28115193045882547 -1.5464961829159625
P 6.420480095497897 7.756797004321859 5.881871458389746 0.03826932789384377 -0.5193201582672733 -0.42145882974240967
P 4.708233466920438 1.108626027106249 12.536085775868138 0.7606850386361481 -1.2851669436100188 -0.3128400055907257
P 3.826232699668471 6.196979455683846 8.000570648553 0.3549269074584468 -0.6139629798548394 1.0214424645990217
P 4.774536820490876 1.2236860962755418 3.9297244501339046 -0.7738691414265897 0.02267147345558676 -1.4110602385714344
P 0.3480429374291298 5.51492727892535 3.6184824928375576 -0.15945673273915764 -0.3968585146952262 -1.1425249684353551
Ni 1.434724378703703 1.09157607729135 2.5533374500368033 -0.003265815235465343 -0.5309556856236727 -0.18259280453598875
Ni 1.9702083957716239 6.564573845098811 4.631010198457958 -1.11028796277852 0.04326163890211259 0.6943420924345396
Ni 5.683132980859833 5.692515871674282 9.40704069569639 0.23918278511589133 0.3152074773816378 -0.9978163405396493
Ni 8.626597304306916 2.324536696056246 10.101109113569136 0.3216231510999945 0.6240861843317703 0.5013188365938462
Ni 2.073356979874258 5.272949839682653 6.95592528058266 1.5187023006321456 -0.20036966890343555 -0.2446718332549206
Ni 0.4668218462879221 9.05688276978916 8.876707786347968 1.1087383589032132 0.6127185659247771 1.0423812716342178
Ni 1.5719006168860712 1.2575331364801183 11.443130711639958 -0.1752078249258273 -0.6120881314296298 -0.30149398445028724
Ni 4.160377399404206 6.893796816736495 1.6313758629061674 0.22015944993585312 -0.7326931814089123 -0.21818227160482426
Ni 5.514087424405866 7.974409631805765 7.845306833842952 0.4979293512963231 -0.6419849189890622 1.0479721354584337
Ni 5.248205738786031 3.0242890325802096 5.285875471658323 -0.6869792243115652 -0.8895808678693131 -1.333157869667001
Ni 0.6611524421946088 7.350605429785667 6.995775925997482 0.26823367973526063 -0.27206102390115083 -0.7679921138205226
Ni 5.217709085965632 4.520548558550184 7.177091486060296 -0.26846327924756347 0.6804787041888861 0.1913882913404317
Ni 8.167838061406037 7.164762782942022 9.125008517359941 0.008529120516933698 -0.2966816506633084 0.40330118499677636
Ni 4.622514121770534 0.3373776881010602 10.270819329083684 0.6808219464609178 -0.9304138427252749 0.6460408342259906
Ni 8.120923607333793 6.9533090886009985 4.655646834098862 -0.0293213746719366 0.6408947712486768 0.7001083054943555
Ni 7.35222192396833 5.885890117112008 7.243666663512847 -0.24623146443255658 1.4804319442970375 -1.6140143803725946
Ni 2.4923179553841077 5.228220813499817 2.609894878903725 -0.9773709282011038 -0.2602349778005002 -0.8441798140266946
Ni 2.1658132225675493 5.279677706532282 11.588944808401749 1.2438865968039932 -1.183804286800116 -0.5902458387435577
Ni 1.17148868635493 3.2988221228201042 3.6196591922342107 -0.8574086540121427 0.5696577301795609 0.5965149595817211
Ni 3.431112755679454 2.659837324592991 2.781349824452297 0.9742154132912577 -0.0699975122350601 -0.8584064991490378
Ni 1.1394026314331425 3.409168169847778 8.380092778283387 -0.19419285066876235 -0.18641294961302735 0.0207688571162352
Ni 3.4151284277279856 2.919415585969818 7.226457773487809 1.9766291433936023 0.3166336683052031 0.5707514774643719
Ni 3.953439051942127 6.894754070274832 5.90168480049456 0.7104454257543055 0.06095262842397245 0.08946282004852334
Ni 0.9695172204596916 7.358579532373886 11.336294895275977 -0.7254015328435056 0.9530256665875199 0.3795902145330817
P 0.2944990510692166 5.438148320595758 8.122289048229987 -1.4178242967681454 0.35531411559453646 -0.5469165798283032
P 8.513514957070601 1.8295101870236778 7.903687559779591 0.6051669788297642 -1.0056602620641004 0.6151994233651017
P 1.7681375922450486 3.2466879277557976 10.55919556978505 0.9334145772248118 0.5303841293909188 -0.4722728270704834
P 4.09607885984802 6.032783381777867 3.8005123807766203 0.12052920243602469 1.08187135930904 -0.07535363434065086
P 6.991228971690385 4.023499174115847 10.366856241851977 -0.23246783498956095 0.4060507227174555 -0.2888582979641477
P 6.262343617103464 7.7106411285252765 10.03062093651129 -0.8259293524569388 0.4798197861798059 0.15088004681374015
P 2.1891575659316977 8.538692531267602 5.7546678153242175 0.2891460044078956 -0.1744424075147125 -0.3744955736189937
P 6.9944348679744355 3.9064884750948505 1.492765550555046 -0.42974266701775665 0.15659869446507224 0.7953157413361399
Ni 5.27818764206223 2.7875493957170896 0.5461935167954044 0.5009234009276406 -0.15318709768036198 -0.4331900021364088
Ni 1.7519816811121813 1.2611454139832745 7.121459703303558 -1.685287931106601 -0.022889245893347676 -0.4623319138076876
Ni 7.011466756401818 0.6891168884852948 9.240145347426175 -0.814768450744113 -0.3381507164413725 -0.5074678869143776
Ni 2.9871457891540025 1.7665301287561441 9.369886615437673 -1.3443645370160975 -0.10921557719541837 -0.24565939397917047
Ni 6.426891888066 1.7962140191383327 2.3687446512092514 0.061599260869035846 0.7372743730216915 1.4890906484133
Ni 3.7899022186804743 6.969808166096666 10.66094259021646 0.5990534097328586 -1.0969066563756078 -0.9414808991727142
Ni 8.04581532734941 7.117739960544683 0.4286861296177231 0.7966591427379118 0.34189012887914666 -0.07738017785237641
Ni 7.518919500045245 3.7616903313808217 8.083708118357523 0.9523044721507793 -0.28256912252132627 1.022389144783007
Ni 3.1374707174478607 8.460333201530378 12.343363546519731 0.020421501079145477 -0.1544096572335534 0.8231037100826857
Ni 0.17195524598275938 4.98500616921229 10.29417450928034 -0.9918477816610402 -0.9317428459493436 -0.5325240585520571
Ni 8.62713914593239 1.9827339680138192 5.641844648998754 0.31875585685452845 1.6434704808501823 0.31183007626897263
Ni 4.029378155752235 2.7830792023069337 11.375246986661889 -1.6301755635134894 -0.7028866395704411 0.10628529092250082
Ni 0.8358521160103912 3.418614275518532 12.557047822218955 0.2350494796738081 -0.19212619794772073 0.027484578573513954
Ni 3.0558513072640396 8.384078023438745 7.779999565794009 -0.16064021152429753 -0.383861588214926 0.9680103129218104
Ni 5.50747695657509 7.76291981468971 3.7373065551651394 0.5973544247638809 0.048465294590239114 -0.37638224911874535
Ni 3.1611853192560835 8.37035136892675 3.5236620145184507 0.1159256422257423 0.3527144731881603 0.9805488117084533
Ni 3.456227115020149 4.495217462559299 9.644000681487201 -0.47759192529055167 0.30728590854171595 -1.011227985959865
Ni 7.189470761063614 6.302783063751301 11.45599132262057 1.0509003648488224 -2.4644810558492654 -0.9243540096844404
Ni 0.7139440717644896 8.907072591039503 0.2553916317506685 -0.1730532404766697 0.22165377509319248 -0.22930152144643734
Ni 4.593615901745282 0.23174295400687855 1.5821540665787812 -0.04420471954167226 1.2096279327314392 0.12766581348080594
Ni 6.084700840191984 5.607925363244115 0.3492458258376809 -1.149347390673827 0.7251976443628156 1.324032510326965
Ni 7.8459660744872775 8.564457100558865 11.310640500448558 0.8024371828722696 0.46056685148746485 -0.08034697379018421
Ni 0.11186410664837503 4.714329185207014 5.654031570225028 -0.4471940297249847 -0.20407025768347434 0.3076085819884573
Ni 7.961152573369181 8.885742092383364 2.617151041338191 -0.6472757350743562 -1.0996330541678354 -0.7869231463970705
P 8.512133260925644 1.7170058041878682 3.4530943673555368 -0.48769198983903106 -0.39088764182377195 0.09558821621997086
P 1.675013078213674 3.0504690137843364 1.4224101246954421 0.7754915075213612 0.8133998525313604 0.147258648011069
P 4.599928356682048 0.9822324372708026 8.172250458376144 1.0547053404172093 1.426621326234485 -0.9172806477774267
P 8.471576415258953 1.344579993612432 12.155941431337832 0.5515561354828438 1.3309791168481273 0.805459257528045
P 6.219827110891311 7.86021650923723 1.3135162132240377 0.3671370763713935 -1.6646761683935203 1.5007961097756863
P 1.800106248147984 3.229908898753636 5.992262658886209 -0.9244108310643047 -0.20128446740822112 -1.1264563450082665
P 7.08987123960783 3.8535144255110603 5.883920522803412 -0.2671756707843915 0.36084173028098504 0.7186940389163429
P 2.3345607661275056 8.574788214217893 10.117842086033134 0.3309788812832816 1.4159211662081614 0.1620743728676628
