# total energy = -340866.23781973554 ev
CRYSTAL
PRIMVEC
9.32665124130486 0.00000000000000 0.00000000000000

0.00000000000000 9.32665124130486 0.00000000000000

0.00000000000000 0.00000000000000 13.65049684400456

PRIMCOORD
 96 1
Ni 8.214009918840627 8.808462702806555 10.96700053223676 0.9688924584164476 0.6635744722343798 1.7961068482333973
Ni 7.022679421529742 7.638881956695265 1.798057154595281 1.1615783855223802 -0.7346811583732186 -0.11125343356105355
Ni 6.174243265064948 8.706970081642753 5.557567868670515 -0.36477937477249434 0.3666333972620976 1.87841043152932
Ni 0.9565786801180081 0.21395898043285339 1.6111547900415115 1.5630743989896176 1.1487670926903248 -1.4816565607327579
Ni 7.089766025465711 1.157474752519064 9.301298821144293 -0.30495623196727484 -0.5467414877030197 -0.661957248345931
Ni 2.9910198159112817 6.222853772463012 2.314660378842936 -0.9291275198136837 -0.1908082504672456 0.20540723132734298
Ni 7.026382102158489 5.309578735063579 3.0994132264887115 0.014846063873897013 -0.22133264430834784 0.22461620015562606
Ni 5.372011339922105 8.80186876022589 11.515218306930926 0.8159578430665239 -0.6920137014116792 0.3335859798888255
Ni 4.675385089235956 2.188713277556777 8.753858889181707 -2.5607778681004865 -3.284873023427743 -1.0119298971228958
Ni 4.446583675673157 3.9640973424581416 10.354639644806706 0.31180616500957264 -0.6095651078974599 -1.0603895352861803
Ni 8.050812171632007 0.9454986181861392 1.2076157634213533 -1.8301053166660288 -1.6672508710992318 -0.22229860776604296
Ni 8.989371761133542 8.053227774359577 0.3428243909601583 -1.4208949652736689 -0.06833786514445005 -1.1093052871502767
Ni 1.9242654021222583 4.851640148485498 10.305989032807373 0.23454760033672511 1.255938899982837 0.7271375416980058
Ni 1.1586592372542046 9.127191689725482 12.377506406140848 0.12463602551554662 -1.171270930219796 -0.8530568048013503
Ni 1.9717753646483018 3.6280860703879076 1.479181739248467 0.6845934976882081 -0.7667602982959505 1.5677221821742742
Ni 4.948982409750579 3.0393038905083234 4.720042029081058 0.23203151878309075 2.040811334498466 1.0278380837127201
Ni 8.973301940671748 3.976371215776609 10.93901684720277 -2.0589990611510864 -0.4195644409331742 -2.708657437525006
Ni 4.3770628157067 7.23506592852681 0.41421617720904985 1.0631146475268274 -0.9979119855772492 0.4739630702887127
Ni 8.52257285567055 6.812298144596101 7.146253822685035 2.236573072316245 0.819573328331924 -0.8525479834857318
Ni 4.681307512911661 1.5968346493932022 2.714988239366173 1.4465730867660633 1.083906644571514 -1.99948650760775
Ni 2.1050345606773777 2.5001115164298717 10.499266163632551 -0.0716065085933928 -0.9062015071451296 0.9221053228595796
Ni 8.293193189717366 3.396878380748995 7.333879935391931 -1.9555748938264643 -0.5294639315694947 0.47849181139700175
Ni 0.10718840720908146 4.723044278185325 8.699093724486639 1.0842043783175908 1.0027011794357763 0.5543077300860518
Ni 3.268804802930458 8.943699148944685 2.4756132010456633 0.19902241084692177 -2.3958737390935125 -1.094606033266889
P 9.085436271148902 5.930267389580305 3.727951190872323 0.7336352336072075 -0.474423554864899 -1.7982658035579286
P 2.3246212425998687 8.947028763515119 4.894549273847408 -0.19077714011899402 -0.3815277978754268 -0.41120192790109183
P 5.087744330139758 6.378179825841247 2.498982991603478 0.9198476371736546 0.14331406154102413 -1.2753520144021262
P 8.295179766477878 6.03751455469357 0.10031466508468136 -0.553212440139344 -0.17033224200108085 -0.2357321075631295
P 2.749776649303774 7.301024007636386 12.775609860291398 0.2989269950540594 -0.40909799418421156 -2.5005713738139193
P 7.952938291233832 9.043205193347974 3.311992795170956 -0.7974230174871298 -0.45464020159038476 0.33168722020421587
P 3.153126344899339 3.8889711649655463 11.91287035115092 -1.4403523026673324 -0.36874427295751333 1.078150458814027
P 1.6403154984894754 7.452889873323776 0.8792915174826399 0.7109946133895562 1.1290467314432622 2.1602401047814603
Ni 7.5344980735795435 4.146554624927123 13.345313441948903 1.2429939097863947 -3.455126332561772 -1.1810794316697852
Ni 8.765653372615244 2.3141753929671305 5.371770712314494 -1.357131863984095 -0.6118698447712365 0.5922487281061993
Ni 6.390211206221812 1.9682498903972527 6.846556800730899 -0.27834094337259163 -0.7481676228954276 -0.4107738392247377
Ni 8.77869203135325 1.5412291534017866 12.680629107175433 -0.30425534924550823 0.6663592340683685 -0.5563018776979451
Ni 6.328188974027429 3.426154739675036 8.873956314673533 1.795686729976843 2.5287941161050385 -0.9436807350375103
Ni 2.797650351236672 5.077587606702211 -0.047509962526043566 0.7329582621448409 1.4654719805530956 -0.2750108505580941
Ni 4.5358210768214065 5.996300081901543 11.719347929392402 -0.7282451729398877 0.6824394274596828 0.607055968322361
Ni 1.5960885172765782 1.7664024995475012 5.632126985754476 1.4619189730945146 -0.8253238576624561 0.7342870082585934
Ni 9.157773779855615 1.4956871143333392 3.2490640124548738 0.6411112581348571 -0.30883885485113266 0.5523999715403777
Ni 1.5166161202046469 5.927534680703169 4.959662358334908 1.1202563868451416 0.4342135583049167 0.4437492657094938
Ni 0.19193222768496232 2.115890782974259 8.9603500197923 0.1358321513416822 -0.6572600999805777 0.022591512147270773
Ni 6.366167098763598 1.7493813606370126 12.365016154508558 -0.41891883692937537 -0.12063538899658578 1.3153324114498057
Ni 4.379562358297392 1.4475429395081651 11.007446488948665 -0.20307395520847607 1.2326560181954964 0.4239797963920504
Ni 0.6603614318227781 3.6370676357417713 3.9021991547281467 1.8098887325088377 0.8145995292664163 -1.3033991503473297
Ni 0.6777127341948729 4.104081054188292 12.719997835643962 1.6222475669156642 0.1210663058864173 2.9783142228600386
Ni 4.553467101379568 4.174562559254903 2.609811590876539 2.173663834386534 1.1114758124390343 -2.5191511936986357
Ni 6.550312505146442 4.867532762569594 11.046105459241254 0.9103353268078451 -0.1627217766436746 -0.512499278690698
Ni 3.439538484516982 4.661180599065724 6.0338473153403624 -1.3362948726340858 -0.8523464089978869 -0.2999531223257286
Ni 5.006714382274374 6.071957878527233 4.641210372964278 1.2155509830840936 -1.3487788640337093 0.12005072013770937
Ni 2.9845377931481094 0.18460521029971305 9.567169010926127 2.086747434908948 0.14740083001588808 -1.762801549213048
Ni 3.594566085048567 0.008555337382241807 13.080861835853801 -0.057098801895521016 0.9849155733175812 0.15763304926685753
Ni 7.711993577472974 8.196429180842669 8.901448485175695 -0.05944930440556858 0.3976355020705668 -2.2917152647060273
Ni 0.930138555900285 7.105276246840036 9.094480325067533 -0.6590015081517167 -0.050304918902139166 -0.848943553963925
Ni 0.4997630223754474 6.487544140835434 11.737707442787084 -0.5070341418110687 0.027612876621262123 0.3374344071006382
P 8.352352139914204 6.48743222101794 10.091061945953198 -0.5390814000546007 -0.7089775829595274 0.1888380141147522
P 1.1498268983236664 0.45491488617546055 10.264477972498987 -2.776834608721876 0.28576808907459816 0.6531558480042171
P 5.401315678802519 8.86555113637976 8.972867318713815 -0.8223591186071774 1.5484373658027333 0.037185607911361766
P 7.1059477657449985 3.5928126745745006 4.61756731151875 0.011600817463721956 0.03614996755799581 -0.0018545367102355157
P 3.044256342432416 3.621473474504326 3.7603566413624563 -3.299081453717641 -0.2934060652358302 1.6835727481877067
P 7.027174867532402 2.795626467870329 10.683944121813633 1.4009655733395936 -0.03345442300370367 1.4033872954072086
P 6.898625630489517 9.075969719919234 13.235412844495894 0.45255092316152384 -0.49503223225418613 -0.46014647612059456
P 6.32207069067111 6.692096260607949 6.493172774990217 -0.45826982792317206 -0.8353159358781614 0.2791924927396095
Ni 7.700615062694456 3.0321596754916462 2.280315917514726 -0.695212410854635 0.8370298332454745 -0.09162948868253896
Ni 0.9736930855430749 7.747891858934054 3.033727485601703 -0.4559020990219439 -0.76404804157111 1.520152402815111
Ni 0.611079405519752 5.6841370576089085 1.319293087977075 -0.05808122041344836 -0.8714355644188541 1.3542095481309775
Ni 5.677990794298217 4.400332811093916 6.660691559819238 0.6697551471237949 0.582404488322268 -0.0046997194685144865
Ni 7.690691505543355 7.0494282579107175 4.942216856783089 0.38901099362634944 0.6643530022716171 -2.070127824074396
Ni 6.1549650765016715 5.524856504012566 0.5758750269271324 -1.999090300610596 1.1584817488749273 1.3306194195158632
Ni 4.235017914004375 0.943950394044144 4.772992227402437 -0.5046245039283116 -2.8039625752869193 2.6238477999777774
Ni 2.4248640924683245 1.350452497832446 3.443624490520645 -2.2379067035260043 2.9060415414375567 -0.5890590175243081
Ni 2.4788094445002518 7.508504695966649 10.65407645318517 0.9095344281731046 -0.11204996132041993 1.3069002215220524
Ni 5.941515331238414 7.088311067838294 9.9458068108191 -0.35239334240331566 -1.3761037771009075 0.5833545109403632
Ni 7.179068713174166 6.826017648890527 12.134732736029115 -0.4037390438651434 1.1634321509016672 0.32646890922807004
Ni 1.2123714229996867 9.246246395584325 7.545203204122809 -0.5884411814346511 -0.2758978811487377 0.06866799479035915
Ni 5.374212429666147 9.09418467021632 1.263943142235603 0.049210143176063634 1.9913975599520286 -1.502531347299238
Ni 6.585427347885067 1.4028682790252933 4.389713485744063 1.3932810602111423 -0.4564834254467106 -1.2603866513415456
Ni 7.130402245867354 5.571368514832624 8.339183840720933 -1.2041010893759392 0.03760983993297393 0.7112694643174976
Ni 9.231025300405193 9.051608506311455 5.2476740186775634 0.42462180085142354 0.06353555865980026 -0.03233599312854431
Ni 8.797056208073663 4.875180616764991 5.572174337518579 -0.8437830928089081 -0.4530042086488585 1.0055129378529586
Ni 4.184280930073932 2.476580374801837 13.332126489452717 0.6558688760600059 1.0418007165403995 -1.4131425750217597
Ni 3.7192820683422965 7.284385261435666 8.474828794192915 -0.8689688480459165 0.23603909728058703 0.19447515779587154
Ni 3.780763354752127 9.147514463252033 7.110626014116232 0.6994886696324856 1.850346840523884 -0.12150287920320364
Ni 1.7409407410677014 1.9002212946640447 13.04444219457623 1.0580626869252165 0.8208712212077411 0.3247424134552665
Ni 3.5022602155707 7.209044570959542 5.7811762027016105 -1.165631215435515 1.02531043219486 0.6077825620757404
Ni 2.5896287171218555 3.482179934982053 8.475975972322225 0.09435305826128912 0.11762411297408776 -1.5057637381936069
Ni 5.441839979386669 8.24730606454498 3.435120449721421 -0.21163495740460972 0.9467503751017693 0.610639057687929
P 9.60486547078827 2.4340321908513443 1.0729752903113774 -1.1540450532598125 0.21935392331542225 -0.48349260704570285
P 4.742397079960264 5.50969136874218 8.892220696223346 0.8436535092095793 -1.3054087245781907 -0.12652475789782724
P 1.4892703781303713 7.040978311689949 6.992630815862994 0.3546561702955634 0.06184968631694509 -0.16493395380364498
P 5.886105694927611 3.0015775853615136 0.9169049701468097 1.1592116850624166 0.5768275084551228 0.24355134649723215
P 3.106642314033653 1.6230611932925416 1.1562622878295497 -1.47059541782259 -2.3907559582509728 1.7167926865831011
P 3.9841496430924157 2.23427396992814 6.653812221703963 0.36172567554783513 0.31575229414151423 0.4617480162797596
P 8.281311035760126 0.6995137819774853 6.999879489375998 0.06855229514810131 0.4054840515807081 1.041374170525942
P 1.1013656173489268 3.5100852761437964 6.882881310163601 -0.25294281501446114 0.6165680215778543 -0.2005786995904481
