# total energy = -340890.2246150205 ev
CRYSTAL
PRIMVEC
9.11456164060040 0.00000000000000 0.00000000000000
0.00000000000000 9.11456164060040 0.00000000000000
0.00000000000000 0.00000000000000 13.34008227502779
PRIMCOORD
 96 1
Ni 6.179171373143032 1.833129716625832 11.49871017325892 0.8655037723154513 1.1760112731182584 0.3520729829494194
Ni 4.433113062202964 0.32983501596720693 5.9502901514306235 1.3550359006870147 -0.22791312573934294 1.6900753251929153
Ni 2.807366962615569 1.6479765150032408 4.892221726356325 0.3612291955273908 0.6913318448533062 -0.87354309768016
Ni 3.181136899217874 4.4758056681102305 4.513109745278732 0.599120001304736 0.44370041474942945 0.5824422835387388
Ni 5.160272775969348 4.623005835787933 2.331245969485711 -1.390438705666341 -0.1725667877585544 1.3605917975082376
Ni 7.052218757735997 5.959319036018953 2.3686913223569372 2.2104079838851027 1.0149506862270907 1.7408343009133376
Ni 5.029515277176511 4.711562914992673 11.591250315824352 -0.8070767385268101 -0.5536916937686077 0.23698037814793382
Ni 5.54316638859923 7.8164382784235915 12.265498177367665 0.675971817457468 1.212696544354434 1.6674362476371607
Ni 1.9276294899064772 6.771298858788972 0.5558998381865866 -0.06194173181011913 0.5951437902658073 -0.8987645912511103
Ni 2.6439702192125867 1.3274538464859602 0.4472305676507244 1.1543170759742765 0.169672754040211 0.29801502476275127
Ni 0.6629913781326648 0.2549588935231001 4.864234553918483 -0.49661474624995766 -0.8950094950840521 -0.5764318156786008
Ni 8.936171269096867 2.448836572784603 1.2777758406710655 -0.26728699955127516 -0.5753514381302285 1.026550218139232
Ni 7.100352756838534 0.7106131388808048 4.679367549525927 -0.3992100456465383 -1.2425879325972278 0.7910855053048763
Ni 0.7948845512841795 7.5014208050318425 3.0243837596675403 0.3963849174929173 0.40895324107623116 -0.6216696044704777
Ni 7.598062500257023 3.8556144477101326 3.8123421556936212 0.45948724527004087 -0.16744155071684713 -0.07395392577964684
Ni 7.799375819359031 3.6713544731112204 12.838748494761141 0.3597233004058256 0.38603648437905774 -1.6214960334616204
Ni 8.233857849887105 8.912245545248325 6.956893205186523 -0.34548324554704374 -0.14322612981290817 0.2641214573391
Ni 7.160609122690997 0.8751391764494388 0.3473769009648853 -1.302570226688131 -0.24624200595551785 -0.14406405233317124
Ni 1.6156198217985447 6.684072505558284 9.41875175193776 0.275086698101352 -0.656772875931514 -0.09804670506279244
Ni 0.2694966190615481 4.874139347863706 1.1953738248243904 -0.4425387903411605 0.08871565746985366 1.1379437768225757
Ni 6.402359639763706 1.6333385292886657 7.151804456314734 -0.16608837912306235 0.5042293253724219 -0.17787200202155173
Ni 3.3701364457791643 4.395059768081948 0.5073328974144109 0.8898338644203836 0.21186250003438353 -0.23090254738497004
Ni 6.056106564227593 5.607524307111444 4.797000079807563 -0.041861416120476294 0.9349035030655125 -0.2761267093300922
Ni 5.140220740743903 2.8701116037482812 9.191876645204044 0.10509975525483191 0.6683207286701135 0.8348600792876655
P 0.23657938032668602 5.666759842079704 12.525029846378311 0.41240700395278657 -1.3530692638789472 -1.8464104815839557
P 3.9564579557711914 6.301507017141181 12.747035042920686 -0.2720432832893379 -0.13045597463143338 0.6739920680232779
P 2.3579643949674707 8.586372629150437 1.8111827640715819 1.0066691629445887 -1.469265900377889 -1.131376150907387
P 6.710650566793466 7.762899344371652 5.742465389617227 -2.141610662605731 0.39695338840187766 0.744055400499267
P 4.610482428333496 1.1411339809957068 12.815256624038385 0.9462865480914736 -1.870994341570907 0.49141777543005044
P 4.123837762534865 6.190382283746349 8.243823711394151 -0.49786327394507807 1.9279000536190152 -0.1397865080037399
P 5.037618122319883 1.2320335024972378 4.109906155333913 -1.2548492664630841 -0.6869925940480038 -1.1431206930378248
P 0.12527417861482434 5.504675595527841 3.6005944866252095 0.020381134759513288 -0.35414143544267396 -0.5303648461172091
Ni 1.5143570439100447 1.1659893901137932 2.6165636443401357 -0.5248732268750186 0.8597090200105452 1.3000181496902385
Ni 1.6225468885127896 6.2791125396189456 5.037255362773533 1.4040568106704077 0.35990996249533497 -0.44530709711491695
Ni 5.892974143107128 5.649223425818905 9.418337950847198 0.1050647882518384 1.199108007036722 -1.354600355811493
Ni 8.288536104122308 2.4848846633830743 10.32418317341982 0.9844476325422271 0.2509566378223678 1.256311195720591
Ni 2.514671050254327 5.165568336181158 7.069189159729752 -1.1779689110652616 -0.14181279440514932 -0.34481553005605775
Ni 0.6516182283352508 9.195225335086693 9.083755159812293 -0.9526312593625788 -0.4024894877287585 0.1524306791303117
Ni 1.6320533761219438 1.1928408881929577 11.43814664668505 -0.6360682963943111 0.38174942696792963 -0.032698775784601744
Ni 4.350535135319992 7.173816122255393 1.514846495860775 -0.7561156740979107 -1.5227371328231518 -0.07116762128376132
Ni 5.894742368031553 8.132777363227927 8.063225967592322 -0.981432242754671 -0.5657067159516128 -0.7830266395561417
Ni 5.093854966565792 3.2671054429662387 4.774108858685424 0.7003363623447616 -0.4667320997579123 0.4617945532469789
Ni 1.0933281061059514 7.451555039250746 7.071537070763421 -1.9749095895993345 -0.7856715333781565 0.6809371318825433
Ni 5.036168907046772 4.724332415606696 7.058851424114888 -0.15523549556895846 -1.1960836183881012 -0.36982310784398886
Ni 8.258941123041843 7.29653457783512 9.237273541498304 0.08240051388510325 -0.2392087532578203 -0.31246436741886185
Ni 4.736728219200608 0.4368080666142258 10.312443618251468 -1.0542073177348683 -1.384422581379248 0.6754424273165592
Ni 8.496484823971645 7.059018220589717 5.002037608724624 0.015946753137243506 0.06684739664185263 -0.23838471469462819
Ni 7.20753088511854 6.017551969225941 7.166545436573875 0.6677131769931016 0.1301970645430919 -0.4339916721020977
Ni 2.278567450036172 5.500373522515836 2.4332178602562746 0.5073303328952489 -0.5353941810110006 1.5796754978814085
Ni 2.267019300658609 5.273557660431649 11.63147105266201 -0.3455156414468759 0.2719538088993252 -0.19573988344090806
Ni 1.2189267631089693 3.4285698993384055 3.8140757452844753 -1.1753528135986533 0.011391272556077156 -0.9120258271363906
Ni 3.899583092222655 2.595927365724712 2.4790404065710034 -0.026232194223651594 -0.6526226012085664 0.41370901059366166
Ni 0.9760966165288241 3.2601328034446633 8.316874187176595 0.11979206715968402 1.0518948675516078 0.43712044753906654
Ni 3.4055920898823384 2.7963109995571758 7.35537454083575 0.39592289025483424 0.15241422407007946 -0.7409155693187046
Ni 4.22145471583692 6.990695467839744 6.0444180506034515 0.008152196793489188 -0.5350802493150074 -0.2589373420349992
Ni 0.9551331251567672 7.686902130867214 11.667862762227752 -0.2508658778807744 -0.7244990756338943 0.029448130057787996
P 0.18203602160118096 5.600123283200962 8.034278120375951 -0.0173163797912605 -0.28305531812912543 -0.5957973646894061
P 8.469596867646615 1.7645973289621388 8.330441211918902 0.1935909554187053 -1.1182563256959772 -1.7440798044338286
P 1.9544445297397777 3.2952967815809213 10.490399962140419 -0.6161445608871905 -1.0113372578442197 0.28125503169559307
P 4.129379415906261 6.337673597038713 3.606357623840232 -0.00454776727168249 -0.8918475524163028 0.6568654356453204
P 6.723328921792827 4.036283285091397 10.47313789417975 0.8680098265667567 -1.2385302175880863 0.8738043217613467
P 6.4287736388924985 7.7761154584975145 10.264046208322563 -0.9051262718030799 0.053093280280553726 -0.010857511539794204
P 2.4012585619315003 8.518004303593134 5.87657248974886 0.11672859774301186 0.600146128576405 0.5092967125930004
P 7.156051841957941 3.9133643091594155 1.630184891021391 0.3716791872161212 -0.017686618646485665 -0.3981733768519078
Ni 5.659295016238958 3.0242570672631612 0.4168417082665617 -1.676694790120951 -0.7083479197953285 -0.207158666800811
Ni 1.3885396374318402 1.2061754916178793 6.988335707876168 0.9200422696829639 -0.8414138212457831 0.5716197390019382
Ni 6.997540503500794 0.5969910156442576 9.439161989428822 0.35043030513967394 0.35066453263766706 -0.01998158532824946
Ni 2.673273534326135 1.3577415342378492 9.133767670032995 -0.13578535726414678 1.0775773599193763 1.0499847950130885
Ni 6.440194184409536 1.9168834219379316 2.666815867527395 0.8854689025834686 0.6266063796504628 -0.9079966513723393
Ni 4.046464250249044 6.88463843062007 10.599482122310695 -0.3779621920113555 0.00881708407099772 -1.6292263122263426
Ni 8.459260954944044 7.166770566242088 0.26518360857578405 -0.9126814584425185 0.7588793528859769 1.0821120145649363
Ni 7.367063054459892 3.750851678218646 8.307776031921124 0.4256898371046217 0.018979369315980214 -0.5499057443636142
Ni 3.1775731056846244 8.403324891226518 12.304611494987189 0.32948378479499385 0.7912919648887276 1.136782666634939
Ni 8.824855129911247 4.943163921846569 10.048002846435173 0.597742404230919 -0.058730938182305306 1.1136766767450947
Ni 8.558664362293458 2.0224938456457666 6.033398545790922 -0.31715920179136997 2.1238782783229744 -0.2335592682815268
Ni 3.6510198864803254 2.76285144441508 11.993547918359438 -0.49331653511466 1.0003969567826319 -1.3174286318572022
Ni 1.2916153908012094 3.3391651659173167 12.805665371007597 -0.47473594389899537 -0.20258416005625113 -0.8012017678032718
Ni 3.0427596270393673 8.237403414297422 8.054475077128709 1.6919879688345956 0.15656038502796907 0.2546975929220388
Ni 5.814661830990296 7.94569187457452 3.5134310238686375 0.019730902770024084 -0.03808189447338603 0.5694651545527805
Ni 3.277514272160538 8.447876867672871 4.011962900731372 0.2881715563097682 -0.4648878474603219 -2.3944789156285147
Ni 3.217394624730066 4.63536518113598 9.397607792248674 0.5631219859435721 -0.5683976325202147 0.16171133310128927
Ni 7.099578019113914 6.125258742070982 11.519227962575284 1.5683230489830668 -0.7807663827670553 0.3275590569684552
Ni 0.6512089845254224 9.276344932135085 0.3219627692289263 -0.3407842974094776 -0.8487671762870608 -0.35552340339186517
Ni 4.990404693925425 0.2139224034342258 1.5660858260548145 -0.3829280206570631 1.9523239909893342 -0.39566423727680894
Ni 6.047575334695312 5.557503593785424 0.34126194167727103 -0.34981478304286207 0.6592758448590259 -1.2618804622782527
Ni 7.958215282028958 8.639948021448241 11.677481358942941 -0.533547614720565 0.653195700103217 -0.47099858834375014
Ni -0.11428566331128018 4.537611509411933 5.714264024984931 0.08936228991491706 0.47261786911472803 1.3363627497575437
Ni 8.227514115106692 9.012906762080062 2.177448682218837 0.29987753189278676 0.35282554484472783 1.550982243711774
P 8.647595138518309 1.7965074086549957 3.5773560007112115 -0.0627166623029307 -0.6244800773360794 -0.140428512463113
P 1.9878767411974747 3.1283271300832234 1.6395364310856217 -0.6014622762846673 0.8846199243196119 -0.04844729686811011
P 4.603227237406471 1.0324884083196566 8.257364303908206 0.41084403034104083 -0.6817151476991485 -1.5024061345752835
P 8.66671748847421 1.5403882314572594 12.362267476453372 0.46341460534890505 1.0036671428934714 -0.5019297307049678
P 6.639456727181668 7.84020905472721 1.2995003979255426 -0.9414749856354431 0.06796685495827649 -0.26125467731426616
P 1.7021716974807406 3.141069287012847 5.967031777931577 -0.02448718650808686 0.9285029988558074 0.683421588867294
P 6.783366538170103 3.860809747745816 6.093295797921622 0.8298613405214934 -0.1765154879936573 -0.26328404903946917
P 2.383631000056041 8.550607089957415 10.276025476457473 0.6999015888001882 0.3441850955609105 -0.14946928250914257
