# total energy = -340863.4785007842 ev
CRYSTAL
PRIMVEC
9.31868028195627 0.00000000000000 0.00000000000000
0.00000000000000 9.31868028195627 0.00000000000000
0.00000000000000 0.00000000000000 13.63883053928441
PRIMCOORD
 96 1
Ni 6.435965298104605 8.812769299257088 6.75744020479782 -1.4149978830629437 0.7765217485580884 -0.705277765510437
Ni 2.849540660965017 5.852634538574838 11.369779806910392 0.7677074927005683 1.0571018656738438 0.9021584474240076
Ni 2.7120994428381673 8.631837799416358 1.73690512374915 -0.06188079666519665 -0.9783286641286827 -0.00852346408997887
Ni 8.466468495946355 1.5314692217668278 7.95427561119173 1.9299227404759989 1.3181675669057555 0.9396317617791172
Ni 1.2154541299560122 4.2175602274369135 10.722794073016079 -2.0360023431455967 0.6599911257584956 1.2346663637573059
Ni 2.014195507034104 0.7697966236965872 4.782319788674931 -1.620122035932229 -0.6574598746962096 -1.5179337978972374
Ni 6.045615092252303 6.064271090536252 2.097051622489597 0.01966559674972742 -0.6421867505872231 -0.8130288423451868
Ni 6.820752251721384 5.56709153187317 13.290303937945373 0.007973762234095945 0.4589743101893644 0.3988614040578679
Ni 4.4899825320487725 2.1821460849919454 5.688865252540077 -0.2703016180078829 0.01251921551293328 -0.004596104011114665
Ni 7.073661239446835 2.1946890288931415 6.339614801472795 -1.0276725046691333 -1.3917615382428223 -1.8365765262126692
Ni 2.5843216963499067 1.5911460514423545 12.839036586048115 -0.4856901289176538 0.15706303569600047 -0.006593851167433805
Ni 0.5387231680285515 5.3187021041715505 8.735016093222319 1.6798287077642422 1.9863445709091532 -0.648645104618057
Ni 6.820463372627077 6.6235876105167 10.713015049739768 0.038986151455210276 0.1736384235561784 0.724310613772172
Ni 4.411947901864067 0.6229211734705025 0.2838386200452586 -0.08121343555553755 0.9193079626201005 0.7446449544541499
Ni 7.073894206458373 6.031143181495573 5.059256062102348 -2.323984666262694 -4.546130764520332 0.6017929201512088
Ni 4.556303580893358 7.318994139957077 10.223285776105666 -0.28846157674636125 -1.9464145674834352 1.0902924934931997
Ni 3.9150292662539066 2.6029683759533935 9.002119295026747 0.14429365184547407 1.1090075534041999 -2.607398139062187
Ni 1.0800257468088497 6.549280452516598 12.54042785747136 -1.6265266539069922 -0.33576833225212493 0.6829521054300431
Ni 5.707123343168319 3.093978968150954 13.328887934396263 -1.0333057916955108 1.0971046313190267 1.787257368262567
Ni 4.0216536080945335 9.10431353617597 4.839125532900266 0.8187708870352867 -1.480756931736624 0.4955626508363594
Ni 8.937406650429818 7.559043348645642 10.374130984208355 0.6257234628248772 0.4072126042360406 0.05068415661842884
Ni 7.831605433464424 4.855507773151605 9.51007031643529 -1.377246118235467 -0.26250346211970277 0.42509899759815817
Ni 7.3867595842731975 1.487317313740181 0.6560090121851951 -1.4106329212260287 0.14634487794754794 -0.8214386636754368
Ni 5.209859916381084 5.2601341974709435 11.6943559704612 0.19099414122580655 -2.048697679225078 -2.7290313731956677
P 0.5947125958454577 4.296927428927616 2.773292421824782 0.4689645886328569 1.497610255848537 -0.3285756711584277
P 3.8376003502991987 4.371010938596641 13.027156515996856 -1.4691088059747344 0.05542604217878841 1.8680550564369247
P 1.6457535189468182 7.05083047231613 9.79690861972111 0.9509631276315365 -0.5571644828085566 -0.0787307783429999
P 3.675539178393033 1.4589232943739523 10.656523345045986 -1.4064574496921003 -1.526630811450603 1.969676623335169
P 6.514978389737769 0.2936269620020315 12.550793025748701 -1.78706324997389 1.9027842323879938 0.20857868707678917
P 3.093615539612955 3.4019427200430226 6.988509932993671 -0.41191515191803246 0.33352967272959333 0.46307393418003473
P 5.952167364584255 0.4870855639871716 4.185061329327389 1.7674079376368077 0.7771609248039841 1.6727861990951642
P 2.753614164294206 7.148126815014782 6.007428071589071 1.5899593963059198 -0.3175214702267951 0.13241695501254613
Ni 9.14990052099369 2.748283879070221 1.4459619417200342 -0.8772974225162699 -0.4440619118539062 0.0336246300329808
Ni 1.2140097344844778 3.7686980269667743 13.264213496389228 0.6589624273836651 -0.7689771034416111 -0.909815192638317
Ni 7.746181089673739 4.462566974131003 3.3526431729294366 -0.41258775250502494 -0.28130413976597357 -0.27963600803493127
Ni 8.001643395845646 2.63048643935624 10.246962679422277 1.0741266823666147 -1.048084235556266 0.6967751273560645
Ni 0.5738434109519002 6.578233592710517 2.2328676627439585 -0.5013337489921819 1.1441637895903585 -0.24583191500129276
Ni 2.2979866018090087 5.3342736192227385 0.9295085562584057 0.8583129109939669 0.6647132138245133 0.5815717080083274
Ni 1.8106568883937455 0.26564576018024755 9.0406762673043 -0.1470681292668177 -0.9528593162129848 -0.2750203636397909
Ni 6.890940552957496 9.170867552032092 10.320748923184581 0.4501181453503152 0.6586610940931624 0.4457578114990904
Ni 1.4168680894511456 1.7415961474934756 10.741834000935043 -1.0384806510282307 0.7614234594640693 0.9836089386910157
Ni 1.7492188281109928 1.6882839765731619 1.7999851355292211 1.115586492173298 -1.9850623617626202 -1.2664534263609157
Ni 7.561177326471329 2.007905397722583 3.6672092099284868 -0.6866591219679852 1.1743696237497776 0.506086947406451
Ni 4.438729789510454 9.17325313423024 11.769369484440283 -0.05785599177651972 -1.2427200872997177 -0.010994037117658485
Ni 5.2881834256600975 6.060441112866569 8.267177331860355 -1.1923287793313595 -1.7416267149076454 -0.12993404068969236
Ni 3.069181959442869 5.218078992548137 9.225482474480927 0.3200735472246875 -0.438856970614199 -1.4783526931705055
Ni 7.444181293277039 9.315185956339539 2.5782710771262467 1.8067023643610565 -1.054688114026029 0.21208978555384117
Ni 3.0320097430818955 7.523063923383742 8.151806476538551 0.15912968841704206 -0.1550611747746233 0.02549583027825932
Ni 3.3831935349544593 3.527949917243596 11.05589496545308 0.46236430970751985 0.3212066323878661 1.2635228829776821
Ni 1.302686297756232 2.4702424101400693 6.101412555251702 -0.26577904754718096 0.8592513636478364 1.2363365523708771
Ni 4.599141554974931 6.6782230340625475 13.22024143889549 -1.3798017947777848 1.9307812318215523 1.5793700508258477
Ni 8.687088255872666 4.94369976503936 1.0143085484581702 -0.06499131726972032 1.600099055843083 0.5293446323828108
Ni 6.040517774039856 7.588779257998329 3.8078933288559424 -2.3919222106449323 1.1491699845556984 0.30010044653687024
Ni 6.151186423200779 8.532714995347249 0.8472451088802646 -0.1455684047928396 -0.9247887832290137 -0.984235773641737
Ni 5.7861084787601 2.0563159427201407 11.464051305931239 0.12235442857022154 -0.8876615393594132 -2.3863285186072383
Ni 1.5217125633236241 3.11551443869751 8.708857625298807 -0.2371045624306239 -0.5616037495268328 -1.1322423555624241
P 8.773863808330272 3.794184618029011 7.711735519215803 -0.3101416328229562 -1.16148608291889 4.353871897649489
P 0.45963925442387854 0.45572261302590483 6.478171465650888 0.5378899508496607 0.6779379400449034 0.7242648481359011
P 0.8085334465070491 9.21200020758921 2.783426486826677 -1.129002765579204 0.05742327511447529 0.26976991387412896
P 9.252760115927867 6.287080740371018 5.563797378330025 -0.5411004873671583 -0.7727782223552562 -0.22564207031697914
P 5.585356145577734 4.241024664839003 9.699077384763966 -0.03206936973071896 -0.27198826168168644 -0.7556153374227245
P 2.625892329888714 8.113393011940104 13.27569690632195 0.7952486355436303 0.023203434699656814 -0.45839426931617827
P 6.598045107371694 3.8890674224881328 1.4613461512939454 0.3534287256463655 0.039392128644377314 0.3531659589032821
P 3.991023105417542 6.841337216860864 2.517591557433061 -0.14701207921790166 -0.2844198025768198 0.2149732777492233
Ni 6.2550058422224915 2.134993561856692 8.720668120915727 0.14130474442047922 0.19510482096007042 0.7175211016541643
Ni 3.499537260516444 3.0538900048055266 1.1961607339284965 0.2519696524679144 0.4079556530496523 -0.5831740194984408
Ni 1.5787522064285429 4.972140377807897 6.276330710590617 -0.7443328225303697 0.6675686809954374 0.24395603813481856
Ni 8.211667816087216 0.16969969428046763 5.113811344996227 -0.3933762125735806 -0.338573662911404 -0.5020917102041288
Ni 6.522302872580519 4.1276349609833165 7.344455570582069 -0.3556383317031746 1.1733704930613016 0.017025330913402935
Ni 3.83459041651013 5.171718557252112 5.897771431126267 0.3022822846795375 -1.5649646740337952 -0.33022580516734096
Ni 8.745972997708964 3.9290725177094066 5.836205704921192 -0.8934910015569967 0.9540188837387247 -5.267839936113916
Ni 9.201330318460778 9.30022015551835 0.6241279425902683 1.0805408134230745 -0.3255147728449168 1.055154769249802
Ni 8.267924690033368 8.599595165019526 8.023642004811137 0.03704008347243298 -0.6333773798257092 1.7171300153178621
Ni 5.355063595332373 2.073956204833784 2.2569806803061687 0.6514378368718459 1.7816037695212155 -0.009328219379461353
Ni 0.7075021766794216 7.705728697790312 6.972183604825101 1.4740100999310937 -1.0193750405470314 -0.02478414892321538
Ni 1.0316897512549836 8.876639535140294 12.04044151225327 -0.37370881605164025 0.8006276404673567 -0.6554754972763291
Ni 2.7792871289656733 0.5831704782258281 6.85980031845926 0.7067008711102087 -0.3108512572954711 1.3991835417385066
Ni 7.362344641464034 6.412724509033593 7.137377717102428 1.2835420064120864 0.8818948120789649 2.1248480984354114
Ni 4.467729523106681 9.268378224381362 9.228101023690613 -0.40894681331832794 0.38736368783091346 1.215147576998088
Ni 2.157665911419552 5.46907765077898 3.707729628179282 1.2206075716713947 -0.15412040812790875 0.16143159707734134
Ni 5.124444891270859 6.9040239803254595 5.960905491253015 -0.07879428459108366 1.5144509815549594 0.5358700922061546
Ni 4.8973952418261035 4.396078189038111 3.4476368696860495 -0.8935915316906029 0.31037997408600737 -0.41167321111055555
Ni 1.7320538187008867 7.813210358233399 4.286002207954539 -0.7996074267329584 -0.5157450393215053 -0.8594575661213715
Ni 7.698133973214179 8.03050334923495 12.81016265463812 2.073706799674906 -2.241368179712043 -1.2942884462953128
Ni 8.20743713515769 7.306721437789265 3.9922764679396154 4.093629720760137 2.377099543809803 -2.704652430130671
Ni 0.7799651678161897 2.4279076448034176 3.7195410556642488 -1.099288783454539 0.654367608924131 1.015550781704935
Ni 4.893472077351807 9.279150618994871 2.513609685271857 -2.134730904766762 -1.9249183452828718 -0.009322562952506525
Ni 8.137481800933115 3.5667529026853346 12.907107683083373 -0.38311468274657245 -2.5762970467820083 -0.9924417064912974
P 6.3299373518135145 7.730889135036397 8.807848104105362 0.42261736882688505 0.6014764173520545 -0.2818623262622888
P 3.1110601094369064 2.022507770005773 3.5182594214316696 1.4387952425928574 1.0059723939878804 -1.1271788249965877
P 7.7168272462199745 7.120124180227937 1.2068753527231437 2.042819880288062 -0.21919502914005473 0.1951125342695543
P 9.088015164048784 0.47667752977970823 9.870421826145892 -0.5603539362801316 0.3528674538262568 0.3331285806364327
P 6.089841549722642 3.562829738211038 4.9087929198985805 1.7439471355107061 0.6229235314822368 1.1110726634633445
P 8.506371085682552 5.295806106277614 11.803426465922973 0.5329596034275789 1.1600395802803507 -1.2248635187342711
P 0.19036107259973337 1.6655929896493789 12.858648680947415 0.8334655129329839 0.7508402846315843 0.3563818947374185
P 4.847447114552397 1.0177955986868683 7.624679474476306 0.7628270246798153 0.9861214207002243 -3.9772405086344147
