# total energy = -340865.3415333507 ev
CRYSTAL
PRIMVEC
9.25440652175348 0.00000000000000 0.00000000000000
0.00000000000000 9.25440652175348 0.00000000000000
0.00000000000000 0.00000000000000 13.54475939433657
PRIMCOORD
 96 1
Ni 0.003547214048931368 2.6067257240247694 10.581680995565728 0.9589320047696259 -1.3395601736489187 -0.5986924268490141
Ni 3.337842354063058 0.5591151544524979 8.545402446872446 -0.14010352502352644 -0.4941871106450714 0.8337251943522738
Ni 8.023283633675918 6.661534720438102 5.75617057033274 0.03524133970079737 0.3306166128478564 1.2797681411919508
Ni 2.701389049113523 6.445555379258972 5.967956739882412 -1.6254069384802523 0.372046854968185 0.8606772974610855
Ni 5.88077745340929 9.26930619240842 4.867038649399896 -0.6129263110602089 -0.04420523376230451 -0.5607830533977504
Ni 8.455094245528612 8.954684131303491 7.823453232009926 0.22313190230061575 -4.749900460244252 0.03921317986435182
Ni 0.5905801368849702 5.929353833641068 6.9727206203732734 0.703752330004846 2.9625387051933365 -0.3980790173658886
Ni 8.27553099431177 0.053714426774869414 4.255844321818357 0.553442296761963 0.7481730222120664 -0.12089275642303049
Ni 6.313097057624861 3.8527945547902616 11.595912134006127 -0.9554761850105415 0.1586532630012558 -1.305421580093997
Ni 4.151119605876491 4.4935233955879745 5.729460502010211 -2.6753433967539086 -2.730436995293943 -1.0303716487678511
Ni 4.197983920887679 5.034748856646292 9.858227939631067 0.4806271125724496 -0.2379489127087902 -0.42180695711044774
Ni 7.731047982131032 4.273731238890557 3.5226667354307413 0.17541762694378824 0.5545365582674062 1.0269196856635088
Ni 2.3600957881937727 4.315959096196255 0.35550617857262906 0.07660370469766808 0.03835648829101136 -0.35049458271870604
Ni 0.0428830692928207 4.141097083531088 7.953089885072371 -1.64860831629738 -0.6486793002901021 1.6745664309240387
Ni 3.785487255604564 3.5286959813291983 12.01050399694298 -0.5285041387593866 0.4778891448159964 0.8203541723620067
Ni 1.7232075261341417 3.6465323405388075 5.530487983835832 -0.751755340246686 0.7357584505977974 -1.1535987097510132
Ni 4.494606161159915 7.205166327211844 4.990295314553826 0.9768217405658532 1.045131323575529 -1.6690375306860095
Ni 7.925168414926191 5.537429714224831 1.1867610406429205 1.0345892863936248 0.4932044350168281 0.5407780710307332
Ni 4.737886001802513 2.1348435316036625 10.459398819426545 -0.44106426267816295 -0.254624059371626 -0.8162170102651815
Ni 7.164011981071489 4.986033660315546 8.172650681604843 -1.4322142469412302 -0.9866307562364749 -0.9801361496510668
Ni 2.5479602421288288 4.597811303538425 7.501426720186107 0.7236791508357602 0.3602316075008119 2.4168272014167282
Ni 9.074241810140288 2.652562799903604 3.315756712717442 2.599841923981484 -2.7365742185399324 -1.1514814062976941
Ni 0.0665410343194008 3.550536380899973 0.7646462705827269 0.1732699844731661 -2.2366100962017677 -0.8856285680897844
Ni 6.793493304115932 8.894215838593558 9.578515351094305 1.283447389815751 -1.5057817359157357 -4.068814204378354
P 6.898317967649054 7.285004092930944 4.142380669726201 -1.2516564705573991 1.5193407055470929 -0.31376945938353057
P 3.7731418772031176 8.75167021376786 6.637866575564264 0.38382122189529383 -0.2960255051365483 -0.06181163399015806
P 8.661430495032848 0.5136649127694514 1.5224581618929889 -1.5399583817974445 -0.06432925820568922 0.5744016726224495
P 1.411074900404016 6.3891127534190755 9.03268859907557 0.9518339602722641 0.2014546744374982 -0.25738208173273736
P 5.578584060365185 3.539236750444077 2.633629209445193 0.9720184056399388 1.0653553639318878 1.3393562851682288
P 0.8241539558878103 0.6543476255470145 8.849875200261584 1.1355176838795864 0.1588687214461716 0.6393801343763634
P 0.7537741937116479 6.689890222253717 1.4096710069231317 1.6491533901675726 -2.3668133313924464 1.018432217017788
P 8.025273331094441 0.4511467689981081 11.134117244776606 -0.7792319484003999 0.34609851053353946 0.8071862675214808
Ni 5.179737644813805 6.522154102668846 11.643034646961391 -1.7602947236307944 -1.7604173652515875 3.634382102304728
Ni 2.390996251823781 8.606718443226738 1.0608779748965367 -0.08792530035807437 -1.0849116887972605 -1.4839710677985474
Ni 2.2218719712492416 7.533466401268302 3.212370183969616 -0.4155913152180391 -2.4034474376757125 0.42291433124201366
Ni 8.800098523494073 2.5660063349945115 5.609656655957912 -0.5138496220710054 1.2036406047997528 0.04398848976580811
Ni 6.21040090760923 5.704305173996109 2.981242304630571 -2.3773206586816733 1.4786026043977827 -2.051932384112292
Ni 4.038040011658143 2.9057911276388215 1.2301605058238976 -2.272955724710337 -0.6898472898879797 -0.9330911324471219
Ni 8.842215327920597 7.609315517743755 10.749134855749368 0.7209959475766421 1.86515048119562 -0.2538493859891306
Ni 1.154135555623086 0.5016147499384742 2.887743183891819 -0.15235560291800213 0.35774072275815805 0.7526691103102069
Ni 7.362944705297497 2.3493976941667323 1.5197493970818168 -0.5280266849023358 -0.44925759712223273 0.5334100607014362
Ni 9.021112261862399 7.3380688603626485 3.1369662044515154 -1.1697478087070499 -0.47074147802762156 0.18279309347225295
Ni 1.3711328815279715 2.538650309091456 7.690253632407331 -0.19547531692561174 -2.893619770734436 0.9466752988894599
Ni 3.7374476309554567 5.109505953143207 2.236767864109038 0.4862472869727045 0.9475782703197034 -0.14583734218351013
Ni 6.188273621433924 7.03434849022991 0.6684883588284315 -0.36330536133012914 -0.3447764492880062 -0.08635667031937386
Ni 6.561864761379947 8.91417759362498 2.434656691270815 1.174932438231783 -0.3775294753493111 -0.13074316685454904
Ni 0.8156001078694767 0.46470262378254507 11.601804414686935 -0.19929623333359872 1.0358984921233514 0.5053693525141361
Ni 3.4317005457778036 7.175339374747179 8.551348403111524 1.1003856160631436 -0.590520432561183 -0.6420394263760815
Ni 7.732334344648124 6.301714137509585 12.263614793714407 -0.9832369000635777 -0.10682959346174503 0.8690652644144645
Ni 6.507967097354441 3.2628446429946005 6.223383914625264 0.7818233632766599 -0.6786655622395474 -0.2160919647346988
Ni 8.229786462498915 1.7994638364998983 7.723425127416436 0.21345247022932273 4.050248268450709 2.2294644862959214
Ni 0.8588366954943328 4.588584660160432 2.4650916582489537 1.2292284805711862 2.7458993525956 2.0113590906756196
Ni 7.190914541051253 9.146342891943638 0.0032492221564826597 -0.6104619086801164 0.43313498052875726 -0.15551060360721605
Ni 1.2655401022472337 1.09748007843144 5.408205807696646 1.1119296121470013 -0.2918451485066135 -0.4042298674586329
Ni 5.894344413481644 9.295496163080156 11.436869603979215 -2.173602899241611 0.9999562697007877 2.820734652538935
Ni 5.796821476754174 4.215465494950896 0.6589961139810825 0.8205048390072579 1.8433896924797606 -1.7533589157429093
P 4.867299623665952 5.344308757342233 7.391659278089108 0.6246382001804984 1.9900166204441019 2.501294882243505
P 2.831163592834275 5.297833127408152 4.161044956952616 -0.49612469398741654 0.8210182883085666 0.1541720873014506
P 5.00775375260055 7.815438915896243 10.061101190186413 -2.2166354528520533 0.6082541023955202 -0.9826483745499591
P 7.790775922313142 4.257184359893715 12.964461185211995 0.031043242459049762 0.5743409945878432 1.0867551697639026
P 3.104538763732873 9.287352285274103 3.9286714344855085 0.5594116269715204 0.2708580047319851 0.10873426668362564
P 4.218649010820535 0.6935585463018338 0.797871441150098 -0.17526670318822074 -0.9708367266270118 0.17948716902747153
P 7.588696699843888 0.68533970780234 6.184767126774022 -1.3281524460326095 -0.3277133231581324 -2.2186493979582886
P 7.28464317107363 7.041270786365054 8.24636110471555 1.4961588681139908 1.290823370564848 -0.6026380417603234
Ni 6.955574981269556 1.9689768021515441 9.733399876236831 -1.9284502696955304 -3.155214347886624 0.4352574261883988
Ni 2.0024314820025406 4.059852648009125 10.397160158734454 0.13228377186879153 -0.3968749697554584 -0.49732205672962737
Ni 4.3336072495782325 7.921207528902339 2.1877491232418853 0.8357280837149156 -0.20080007157263483 0.1296368211642477
Ni 5.075995746852624 1.5303734558560749 2.6877545318730047 -0.5341723927887575 -2.71249249500038 1.0502745583393653
Ni 0.831152138157056 8.056266338790428 5.198464862005085 -0.16087983833892938 -0.8649844094768716 -0.8263517847063381
Ni 9.194808219296243 5.446070212291488 10.184954764565902 -0.9050910476897703 -1.6340520157497598 0.0853984201711626
Ni 3.492344672213095 3.166867192168962 3.8850702232407 0.32034762682168055 -0.49636483502268064 -0.8227442698607379
Ni 5.778553278130145 1.0612768398209014 7.514334766508699 0.009812615215047615 -0.045532437214160296 -0.461664712537334
Ni 3.2991681888909103 0.8831054513563668 11.952518661523232 -0.43662448173925444 0.2682347081765251 0.8571217188993433
Ni 4.373669575740048 8.196054150449985 13.018423630083687 -0.9819366931949154 0.20284538413743772 1.0432945274771064
Ni 6.62500757759664 6.392546138266853 10.166927180513415 2.869799785496703 -1.3592879910951494 -1.8209784146640962
Ni 2.6735888116937736 5.863231098499887 11.86073993497101 0.8476274062556627 1.1430505019215216 0.13773296790882086
Ni 5.078883121711134 3.229251147044637 7.970751920064245 -0.14223136999980665 0.9198471229530223 1.3861447062766772
Ni 9.173652645813705 7.886244380775903 0.07380759437998236 0.18855622120827525 1.1884163316508307 -1.9980582598016559
Ni 6.025942075302161 5.278620979311148 5.322304554774677 3.0876655543023728 2.15242266561957 -0.338161772184966
Ni 6.859033011641452 2.0475837317931385 4.056844965864845 0.5444285232991268 0.4888947518978806 0.3302072932245797
Ni 2.148697378280548 8.345151895146914 10.257758255830025 0.11791387630036466 -0.45821326365362375 -2.188203936984238
Ni 8.009263207680272 2.1449678524216402 12.720520579938317 0.27189647329882854 -1.152352753159054 -0.7438458555916221
Ni 3.2608549455760762 2.030722202971972 6.644259519642015 1.9049241615491321 -0.7189393221579297 -1.5094764111585035
Ni 1.6417872568868206 8.493564813755608 7.205581850068084 0.46431114902124554 -0.04617829832827531 1.5009411199939828
Ni 0.5418815984861008 5.161062252299473 12.669862883662695 -0.15600425541418295 0.7325155181804675 -0.803847690066551
Ni 5.921015613296462 8.008911540229557 6.926288486150201 -0.14089311080435735 -0.6451628024964116 0.03783352590800581
Ni 1.1876272531004732 1.1779934158321779 0.5644734558726159 -0.000810411716437314 2.059529222622943 -1.0849641393017508
Ni 5.491379786994249 1.9125526851248429 13.151717624633577 0.4595471519736989 -0.29048657759619007 -0.9872673613792096
P 4.286187670171177 5.92554101812278 0.1900355377228961 -0.44035618086754486 0.3801802827085969 -0.2550143528315092
P 9.111786937707507 4.8593408339918565 5.212484362560071 -0.5244189129464194 -1.2203851712479437 -0.48910455391584157
P 1.438578996812636 2.574723986009626 12.160376335472144 1.6390438125373965 0.7050617928448889 1.0750301680174905
P 3.233767297464357 2.7232294486842976 8.880757155078397 -0.36418262172875987 0.8181160270601071 1.0729588873107585
P 7.726633630183889 3.690176122053966 9.812054003352076 0.48200548097721513 5.4204387653909745 -1.1556363090063322
P 4.927444012144964 2.086202370525699 5.172662650969797 0.21085025671978525 0.45705549590009675 0.6488219965155535
P 1.9801838885414629 8.05542418779003 12.284623222132039 0.6099787983961108 -0.8100491908915728 2.0914810929391914
P 2.052682909828518 2.7513258271151755 2.21523193451533 -1.3206882764450802 -0.680776437934963 -0.548981432777132
