# total energy = -340891.4862595407 ev
CRYSTAL
PRIMVEC
9.02220387573654 0.00000000000000 0.00000000000000

0.00000000000000 9.02220387573654 0.00000000000000

0.00000000000000 0.00000000000000 13.20490735048743

PRIMCOORD
 96 1
Ni 6.652070742858081 1.9443660839856263 11.260048473809496 -1.7746571630000534 0.5327274328121148 1.4747811737691632
Ni 4.682785332422198 0.5148367128996792 6.227513808449294 -0.12725417986468407 -1.2503032989636145 -0.22195228017021773
Ni 3.029989803430394 1.445564533613116 4.899535654860143 -1.2974336767925139 0.6075809875878955 -0.5033968021687976
Ni 3.4480336090323593 4.337947687145135 4.74468125826555 -0.6818272477969806 -0.12231149114742806 2.461921008431573
Ni 5.188813667909356 4.630636995390163 2.6856276282850935 -0.3626057641599433 -0.04064091344981388 0.8869809683526207
Ni 7.290220228431247 6.105379335571031 2.5096053375132406 0.21945573900060913 0.3111903858024447 -0.11726981495846256
Ni 5.140373456572851 4.277210212249 11.700748837189117 0.3277063811795969 -0.8246031774463475 -1.0236250740726371
Ni 5.3630504645810975 7.808473649848925 12.491445741886446 1.5404954852478374 -0.05161618151439497 0.0010937472848110196
Ni 1.8741192064542374 6.336122193632329 0.4258119229349383 0.3642957502678565 -0.3208127393835572 -1.52416512351893
Ni 2.62750929910529 1.458105396670993 0.3266506871820499 0.10083635199278763 1.03833924035436 0.3183326532741808
Ni 0.823459232770758 -0.058943860812749785 4.446580432277995 -0.15409084044155397 -0.3557815421492582 0.63857743596941
Ni 8.638308873931194 2.2923434561289784 1.456210733906853 -0.4633667828301052 -0.0712447543785999 -0.7247021927836358
Ni 6.878338587914555 0.7177433660743102 4.959815704031794 -0.3927429498649559 -1.0335873274916716 -0.4282671109134947
Ni 0.8748803801895094 7.025851617408288 2.3329505902663112 -0.8018861954648061 0.9718104033941907 1.1808603736804437
Ni 7.544826815117066 3.9163401111058596 3.709746985524431 0.805518907121387 -0.07295016710548081 0.4721933799827997
Ni 7.500726283730805 3.9687771586543352 12.593651971367414 0.7295183832253564 -0.8985972124353104 0.7100530754118932
Ni 7.547984586390633 8.647980676231946 7.2091133243798815 1.2723913891119056 0.8070158033818875 -0.4807602957162043
Ni 6.533816719764848 1.0034133998883823 0.41156947227079105 1.1486544783718604 -1.8407597110560816 0.005710163010899843
Ni 1.9619503588775704 6.4777347019463125 9.119427807392098 -0.5950106071220527 -0.12335587325154239 0.7357191127194296
Ni 0.1349595353507621 4.67549539188208 1.5940700055071129 -0.24983949349878906 -0.20505164776013718 -0.14124303794460838
Ni 6.302315996597893 2.1051507750319765 7.0547082335265 0.9434740183433429 0.4503377175602889 -0.17569941985026516
Ni 3.5525829047983155 4.2870895252334424 0.405171827670546 -1.1592412527487712 -0.9912862527306154 0.9606412741512488
Ni 6.103250095512283 5.695906623425888 4.761504961390747 -0.9283636450644656 0.41324081270799157 -0.7657300572592232
Ni 5.409785479429877 3.078529259006925 9.309670895539364 -0.3673815882820318 0.2888582979641477 -0.16844453806006476
P 0.18210145158364932 5.347297697027822 12.652862889407873 -0.406585512175003 1.6658439634493765 -0.9482287594195088
P 4.106212386683573 5.962566874173092 12.581543271863834 -1.4109172852356668 1.760024243578227 -0.763302421654337
P 2.267487285104193 8.354407192030319 1.2159458421252067 1.0050180004944111 0.7997629784742162 1.7188415986923302
P 6.128052133315236 7.7972951395405 5.822439420578046 0.12047263816647637 -0.12326434197900062 -0.48918194412099614
P 4.6211997703840195 1.23758469533241 12.446958157964081 1.252913740003268 -1.196353069999404 0.710950390415182
P 4.0746888071697445 6.120139660724043 8.257001677105533 -0.9567411677658942 0.894067699996073 0.9410039595362956
P 4.7399861034919395 0.7901239947662659 3.7999627063694885 0.5705187926282755 0.9434827600940913 -0.25326343157867354
P 0.1782796461222704 5.475539299549163 3.7667393436901166 -0.8893147586921201 0.18155227908661636 -0.5100783279540313
Ni 1.5771353292771595 1.3439294096224794 2.7320288215992385 0.7205591171495397 -0.1817137443651451 -1.2046739311602737
Ni 1.8060105911852347 6.327686433230088 4.839519054034746 1.383640966018217 1.3888970722108338 0.0007487052405664524
Ni 6.037703786076689 5.664337932893864 8.77040837072847 1.3385155344344883 -0.10780172756702724 1.1432379353419793
Ni 8.573755006895864 2.4532364136189933 10.056408015227195 -0.12400687657197998 -0.04775721277962098 -1.135890750948289
Ni 2.575992516327968 5.212036820075526 7.013086101479805 -1.9753389638272691 -0.4436204534411134 -0.07090922541605207
Ni 0.6317933431096588 0.06962344325995053 8.934532179341524 -0.3560952167349351 -0.1355243902932763 -0.07701199587968027
Ni 1.1343255746867966 1.0963330751639764 11.130019572747317 1.0567334265908317 0.7723902428882181 1.2107311930979472
Ni 3.9579234476769063 6.616306727634035 1.58903922475814 0.3680868418791725 1.2603825375764874 0.24529404021995174
Ni 5.492861930535583 8.014206959423579 8.119472618158452 -0.7588922084017834 -0.4252666335242741 0.2293161767344567
Ni 5.315557584626663 2.885950322337583 4.81333391241397 0.15056174424237295 0.1217569041955387 1.2296776522934627
Ni 0.7249151157467609 7.496729447518835 6.932443840915837 -0.022038467857278175 -0.07821012995283949 -0.12665614126936894
Ni 4.946811099706885 4.759456018944385 6.769125715087724 0.3281882059120219 -0.578071665274869 -0.04784565872836921
Ni 8.07162426338065 7.233010435157866 9.150934244719014 0.3669794677476067 -0.3032122526929745 -0.3815504235832461
Ni 4.471539456424262 -0.06013298725233841 10.2775900440925 -0.7950452612835727 1.2150182505090752 -0.025583762006375292
Ni 8.163019186241293 7.366214249680526 4.496706893474584 -0.3176351129865239 -0.17170263998604623 -0.18865675134188153
Ni 7.50091575000722 6.293005082442693 6.510864233707841 0.4251920715325968 -0.8057513348471671 2.425461222942642
Ni 2.355408659563914 5.127390505536675 2.714519430997496 0.12978954469202808 -0.2373717000490815 -0.8051119014909554
Ni 2.2923254117217007 5.294914782701179 11.374468962576621 0.6075233948770827 -0.4443087377573896 0.26181286381058133
Ni 1.1491310108580026 3.422239128829143 3.983445457330232 -0.447474537079881 -0.21662032643434306 -0.056828064732637615
Ni 3.6893414675546463 2.969956060418082 3.022643023007351 -0.9546027812666525 -2.3325032452566665 -2.0134923349685385
Ni 1.1358773937126634 3.4456246806608104 8.19051525405078 -0.6740794855307618 0.27990828785971145 -0.02214876818289734
Ni 3.5728648185782492 3.004366745096314 7.266356499806726 0.09541929474227438 -1.1559756946236222 -0.3772137438811052
Ni 4.0178940352637476 6.866275901649532 6.232478727111705 0.9094038161325112 1.1499035202876131 -2.150575842218819
Ni 0.6405836761149031 7.051330320484148 11.242195337249118 -0.2541689741120784 0.43349467786102114 0.5585701049068316
P 0.15756015546585703 5.668767834880496 8.069901924706011 0.4459799548122255 -0.5071878937801135 -0.37588371221577205
P 8.340116021466523 1.5540745767764876 7.9149158039382925 0.4842983907764498 0.7729008639760495 -0.08646671353467689
P 1.6361134744637367 3.212734538133487 10.46028064557376 0.47643312909576013 0.21399394455508952 -0.7142691703757699
P 4.0802013735930265 6.104134271468881 3.8797207909768585 -0.7862148074761363 1.3483618311009489 -0.5752665917259061
P 6.948017066616701 4.203101831560222 10.362511535842334 -0.3668827942687424 -1.0484552457424396 -0.3543491805781058
P 6.359255123762111 7.840258873268278 10.339402965662376 -1.4683415887914066 -0.3113292253731541 -0.7208817905962811
P 2.455816763859679 8.333827545530307 5.797086126132767 -0.07774296050843385 0.8174933058744437 0.12561278760651914
P 6.777407195807741 3.8251617211325466 1.559459930128464 2.4862660129348404 -0.16727468612167964 0.28154505213218606
Ni 5.1548540934130616 2.705776915671537 0.8357330386009277 -1.445092388455479 0.3438919898005239 -0.0712313846421612
Ni 1.540514204707431 1.083503501589659 6.787771001127585 -0.962231501456504 -0.2955573072508781 0.8261934047516029
Ni 6.7019093957585945 0.7929425311830147 9.2705181406286 -0.15605979124246672 0.08989707937246454 -1.0725300273034561
Ni 2.579646508801666 1.633993256608628 9.110421843719887 0.4671648164199567 -0.6098620703125884 -0.05900193245550484
Ni 6.399494151990982 1.9737333568297915 2.9790269839564916 -0.004957086894959204 -0.6968494322374257 -2.3519191878894334
Ni 4.491505593076838 6.468938053398522 10.509970432114233 -0.2863046783043585 0.4109077936994407 -0.3735972301744404
Ni 8.085969567166279 7.152893266845674 0.32993928040837806 -0.015250498401167283 -0.43209702618254614 -0.38921359655545873
Ni 7.624989094447454 3.9942107507120013 8.10118370916232 0.9096917796865751 -0.6409109691985929 0.11084128572429944
Ni 3.185640860606289 8.51388366354905 12.402616733740665 -1.1664804508096878 -0.8499218587167943 -0.6174334549019431
Ni 0.027103601951200273 4.833943332185991 10.223225853846785 0.5207576620447484 0.38137173191353674 -0.19056142456376213
Ni 8.437709198226996 2.409523836989199 5.670491075775499 0.44001730947088735 0.2992406696397363 0.5477539881279341
Ni 3.599814140847226 2.4152258696888955 11.133651009711919 -0.2422650235856408 1.0633429614875491 -0.3054270009561062
Ni 1.2547359044496935 3.491313119887493 12.657365871243979 -0.8201194306433811 -1.165921235872108 -0.25343415282858284
Ni 3.029114649677434 8.27200740619752 8.047123567179232 0.16431200394892992 1.0348775070580047 0.06793317350686365
Ni 5.561105878859168 7.711512027343166 3.3808651073825153 0.6446529527395284 0.5450892968115774 0.7516985188668215
Ni 3.1177938892428108 8.273017893005061 3.4542977250187508 -0.7425217374635599 -0.4499517949757799 0.34176491615519206
Ni 3.345234620772323 4.383311327040823 9.363045350045907 -0.08101623194306692 -0.7350555109935019 0.17060143650206747
Ni 7.216445669277102 6.12008552750221 11.356655523712252 -0.3663125235875691 0.13353641332897 0.4995355194411784
Ni 0.6565583898776923 -0.12618634453243144 -0.05278620682929578 -0.11357693948790762 -0.6288607229022783 0.3622247266714407
Ni 4.472549943231802 0.20657508117415094 1.594215262985697 -0.1351927179854704 0.28334122480066043 -0.30224860322812463
Ni 5.812915582416972 5.487168920039525 0.5877983715059713 1.3129865369254483 1.0543248171493391 -1.1408532371598867
Ni 8.03530989373464 8.842454275665427 11.06250371625738 0.7764893526582562 0.1507283517272243 1.051151818737996
Ni 0.32122924501551875 4.8602250113857 5.941151771616129 -0.5731989105636 -1.0439784409180086 0.4621357386364815
Ni 8.177184045954148 8.735865961877112 2.312456654700867 -0.5979378080711766 0.3522524459500772 -0.16921972566319243
P 8.528716166331172 1.5199796692256122 3.5245220470410428 -0.07588559558472091 0.23868990463987277 1.227144087238332
P 1.945890836400577 3.1972885255039287 1.5054124192304694 -0.13431134382178161 -0.16872504541496103 1.4635439102924472
P 4.659877957383386 1.3565424503094663 8.193433936927919 -0.6875206986373321 -1.6487756951131796 1.9758400718334035
P 8.390252407087115 1.4689049744265892 12.507740743878411 -0.0914669949627457 1.1364993310665652 -0.1579204986002893
P 6.2535870747449485 7.885324780443885 1.289306282132332 0.7511472743490419 -0.5551855047053148 0.6476804267119426
P 1.7561178050628894 3.079467568185356 6.067641262190823 0.3626916390055302 0.6945552368866102 -0.7893770072542018
P 6.7963448012455 4.088754422642571 6.098501709737204 1.3993136395584675 -0.2732072216904521 -1.3485513214039355
P 2.167954334561388 8.382827133492414 10.396302395130583 1.1714565638680403 -0.23584497899190995 -1.0926136854272086
