# total energy = -340872.3923378825 ev
CRYSTAL
PRIMVEC
9.20637996542226 0.00000000000000 0.00000000000000

0.00000000000000 9.20637996542226 0.00000000000000

0.00000000000000 0.00000000000000 13.47446767454128

PRIMCOORD
 96 1
Ni 2.8325453664010336 2.8080011571560415 1.8887698858407538 0.28802577476052327 0.43184351541084337 -0.1585185371956044
Ni 5.413480365710684 5.978549561149211 9.873119915539425 -0.8758601758491109 0.24196214763324136 -1.0137936898045121
Ni 3.6771202605184636 8.963037024091635 0.533859567028729 0.3686992786521908 1.2646014607538414 0.03298648222834964
Ni 0.7772339065167484 4.166954918091247 9.015078849305473 -0.34215083873970104 0.988940121095942 -1.939618370497208
Ni 2.422649706905619 3.500854907853567 10.64549009146948 0.5824749365488872 -1.777106138761178 1.0958571320651709
Ni 1.6280010118638042 1.3910932337312547 6.268362722945403 0.4932651130514344 -0.03615613820558289 1.169789717688579
Ni 2.1612805769486343 7.8570561744969725 2.2929364150236555 -1.042749453606914 -0.8482069329082166 -0.5984237465686598
Ni 5.567898978488721 0.12003554516090705 7.696387350294919 -2.233255835017554 -1.3391349131860422 0.6833210587336876
Ni 3.765179285810417 4.279061008104851 5.333598447189698 -0.7525829783543039 1.1821855202497704 -0.8165857064585098
Ni 1.9339658468405716 9.01525561180266 4.475302364228031 0.15342261072993577 0.10917161133136037 0.22007614619342744
Ni 8.699743760701715 2.64912665642805 5.554687823099913 0.2860290560454687 -0.4175463820618809 0.34398866327938826
Ni 4.02585793726276 7.5245861713220314 8.263392647460462 0.9451730033123206 -0.7511722140497064 0.5730279322033744
Ni 7.944056466081809 2.8337974340894507 7.977868738135103 0.525333968561521 -0.03752627908023214 0.4497358223102319
Ni 4.968315064198178 1.2756084022349388 2.730749501418738 -0.6579442705317959 -1.3956912123145317 -0.6639082014247147
Ni 8.818662571961116 8.650296293389319 2.286684362323628 -0.8362471894431791 0.9539610339175957 -2.6057773156293123
Ni 0.20164918377153307 6.204621429948919 2.5262067523937537 0.41752581323659066 -0.7804686490209785 -1.2560281172625336
Ni 6.506986570321488 4.1709320742779825 6.228936400330371 0.13413650880681413 0.12805019340341817 0.08079974505688665
Ni 6.22354974735616 0.4192060716520014 0.8045473948843561 1.1948502602016324 0.8817150919679911 -1.6916596389608995
Ni 0.012072326175153006 2.7265983446488327 13.243246067790203 1.0996734204874674 0.51944125722617 0.4753784625790007
Ni 5.426268027616645 7.564900909613037 6.015406383088971 0.29721978255496556 0.37838102471632895 0.1883579891545401
Ni 7.732503058639697 2.3040070870480753 3.448857273264027 -0.4937855043312786 -0.34002427931500145 -0.4554729819043253
Ni 8.934018514136564 4.595511909972108 6.807381545360814 0.28970624778673976 0.6218462392576581 0.19206783390595955
Ni 8.62450001645591 0.33222511346529504 13.380537131101105 0.5202066746372848 -0.9403508993333289 -0.7502712995019918
Ni 0.7752094235411394 3.937071607945918 3.685104953946139 -0.0978117062338509 0.036609166582601466 0.48225719197670497
P 3.3818716519337335 2.156244687054782 12.301286085378127 -1.0541916340055846 0.19614380374754609 -0.6426431213983513
P 8.959115106185271 0.999113189836273 7.1819992770970815 -1.2829108005859904 1.2389536782787502 -1.621785282567265
P 4.416383373107964 4.195734062164707 3.081489565826495 -0.9003720449475462 0.017530552684595614 -0.257201333180499
P 9.282056505996158 2.587489941913714 10.169369257636882 -0.4671797288182922 -1.2088524880179954 0.49533459398595336
P 2.8675940552966392 5.109255536565613 9.451099453502506 1.3863989883793284 1.5766930182143166 -1.494979245983593
P 6.529689503554103 6.261526065111445 7.72347067916098 -0.12730585903822592 0.7274424745329342 -0.8428641805390645
P 8.933374067532235 6.8036989933360585 10.366460362639776 0.1613143547731867 0.5003832121534543 -1.104819483464781
P 6.969100817527929 8.861582715809634 12.180447743875824 -0.45529351890366754 -0.4294588172287507 -0.7170583030851329
Ni 4.040229096539367 0.729108475381238 5.649642427058221 0.8898240942283707 0.003486415886703673 0.28272441715226787
Ni 5.360479235694398 8.17063468578492 10.821736110736246 -0.41504778400974324 -0.990202275637817 0.5172198240948189
Ni 4.803299907968907 7.125673723240449 13.414883373197988 2.4539919833924833 -1.0896378906283364 -1.7537494663131088
Ni 3.347237250140913 0.3194705945275562 10.506217815169256 1.3450379089340385 1.607073173168071 -1.151226352864095
Ni 0.20049654498778474 4.3618079521010955 11.279073167328571 -1.0295398968951752 0.6076059272885601 0.4019809235234561
Ni 7.352528134345416 7.027027360877325 0.68776538443732 -0.14315979535134699 2.540302373854954 -1.559334215220895
Ni 6.945155022986959 7.713326168970786 3.6194984483491166 -0.4751758596498913 1.2016541704973436 -0.1328841244569518
Ni 4.7250272646827405 2.229739219088829 0.423608562597596 -1.0365582371945374 -0.7447241444315174 -0.7665440685200864
Ni 0.18314712176115788 8.817760346715051 8.594109755871619 0.8923975113825019 -1.0104016334038275 1.383160941058005
Ni 7.302721618210606 4.757608643721761 9.060043730165736 0.8010904390363881 0.5584181527099996 -0.1659024883645014
Ni 6.979688154599099 5.642866531332671 2.334208616841097 -2.215448117412172 0.7264240605707489 1.1796578687319104
Ni 1.9425185739180648 4.2107312552855225 12.910265110521827 0.1722392292158066 -0.4805913742385078 1.0703636157797565
Ni 1.1803223685944033 6.419212942811454 11.8571141522743 0.3306140417446951 0.7789838369453358 0.2699522050882642
Ni 0.7200392703822727 5.9853991079152555 5.2254925293129855 0.22664762876335806 0.3308899211139011 -0.17813014077894482
Ni 8.769813519352741 6.5719744071783515 8.20624772577832 0.48846949143500384 -0.6941634007648303 -0.5121069283482859
Ni 7.734988781256407 8.392701779257708 6.785486011659627 -0.392393279835021 -0.2850921460534961 -0.16660517085848084
Ni 5.326295946524609 6.0228046301067035 4.149448986403568 -0.6832189859381846 -0.9123616132092545 0.5680235370102475
Ni 1.3010272175858097 8.710662527455113 10.683946061625988 -0.3251504475269626 -2.6778569072043816 -0.21532808998548075
Ni 6.587220172560837 1.5974450364383999 6.4280759248970325 0.33997825656841446 0.6464092733090029 -0.9793519631868747
Ni 7.185183763960488 6.153351099384268 11.469965616635797 0.9447060909782311 1.1153458369174016 0.37291023140974483
Ni 4.516824979583156 5.435354724737728 7.437906261763348 -0.1796049255522584 -0.9209323855974011 -0.0009705914433854252
Ni 5.096605970360579 3.58140152701502 9.745058248240564 -1.1843881843280442 -0.2870605826337766 -0.238184425758364
Ni 2.6889810757159607 5.938916094982785 3.7475324965077914 -0.6772838514006723 -0.43782030181956855 -0.16310127147028042
Ni 7.221309599323335 3.242477851416696 10.860124874318304 -0.02168365562102072 -1.3690155027955582 -0.15821823234636623
P 1.580496090744465 4.575745811979235 1.7144240634187604 -0.354795266976589 0.5870556139410341 -0.935862267434356
P 3.2162120491001307 7.865019693250505 11.833897503034231 -0.17795659131555805 -0.7026878932960737 0.9929343298569997
P 2.7649797431268417 0.736956914383997 2.730291023691656 1.2472634836960261 -0.10296856784444201 -0.7576642495319532
P 5.584028556357149 8.041984730800106 1.7654789646899631 -1.076966465808255 -2.13483400600353 2.405144622872477
P 7.980504524746821 1.7796761233834 1.3861181059458105 1.2889328384103542 0.02437791462373221 1.785968988468447
P 0.2971405196874482 7.691902922566774 3.9235630864811104 0.490141222710472 -0.21209184243637022 3.0128539085081214
P 5.200242190717247 1.4112183805465406 9.435549877577976 0.28868629116265765 -0.3071992623651806 0.5770637928356448
P 4.698439239064009 2.971607737235843 6.640150413450647 0.3645533748046173 -1.3514530684317627 0.7885483407053193
Ni 1.2868678050506268 8.10503002146391 6.48348268202349 0.0011726801518624965 -0.7349256702838569 0.7595846064831175
Ni 5.520762312571858 2.725539610941716 4.298490152587458 -0.08804562798602256 1.101068243952465 1.9051663594669253
Ni 7.018207648778036 2.3002877095030727 13.097303769135145 -1.4163893640938316 1.128019318620012 -1.0330772206244725
Ni 8.456548024986898 4.131077654990071 1.805376653964165 1.2269255434696225 -3.2300951563559144 0.0077372207432576424
Ni 4.113281722330443 4.603355745784835 0.477263345598276 1.0528942553503997 -0.9888025670768132 -0.18947050549242853
Ni 2.908580859332162 3.3000637587038018 8.089544890199816 1.4578365754950249 1.1898242677419508 -1.65085906000477
Ni 6.061940951749787 3.287837685981615 1.8634109119602849 0.43198261209186894 1.0549020298090477 0.004437466946063325
Ni 8.566398551885339 0.6757363282484579 10.8386730881361 -1.232425390241929 0.0839981973895263 0.7094720060974427
Ni 8.50475263099094 0.3157585820866032 4.590104082323755 -0.46903297997694704 -0.17949076857189733 1.365767685282222
Ni 1.3606937667669023 1.417902212471471 11.866546088647704 1.0422367756365534 0.9935369964380051 0.4569084287992712
Ni 4.219956048107533 6.296464277446308 2.052794435575365 0.49216493800872013 0.18144352142289397 0.10986658051585595
Ni 5.387831390858265 1.1103814992642445 11.68712018570756 -0.34521045150163127 1.4156460581699037 -0.0638111809186901
Ni 1.5565595025835577 0.5448842071528394 0.9557529810207954 -0.9239197503604992 0.7787478096751299 -1.3068608836436848
Ni 4.100963585807638 8.27491535274592 3.5810820656268727 1.5481478595867724 -0.20770965420827453 0.7051949759886436
Ni 3.65978464686193 5.661417387157374 11.571657449523393 -0.027201243005140246 -0.2527489538361002 -0.5685567838058982
Ni 7.453430059823703 6.177140385464185 5.300680114640413 0.9504041698042729 -0.20928111246045247 0.9471041588967624
Ni 8.732361965260983 5.234848973369881 13.35148639881582 0.36164365735699006 0.895455067261903 -0.43496663442085737
Ni 2.6356853415376946 6.514084689349204 0.2054357678909874 -1.839874994458283 0.4109666719618342 1.1464813819799415
Ni 0.7458088488135018 1.4706179447058383 3.040540507949226 -0.6540328512925317 1.1028227647497264 -0.1991044290377668
Ni 7.116835598381036 7.913343982195353 9.327323356122452 0.16770817411467245 -2.0438688903778672 0.47259627184817316
Ni 7.318372464315814 0.8264595000696544 8.885589272459013 -0.09112915200735272 1.7040582697355686 0.22425701704399442
Ni 1.7830640712461743 5.854668511036453 7.514616582353014 1.3374061034203935 -0.19660068877930656 -0.04972642069084985
Ni 1.7126628829129211 1.6288572052095598 8.923587685526448 -0.766995297124892 -1.2938480163237847 0.7418005430268192
Ni 2.6487860203657605 2.2982162739891483 4.3302494018869515 0.9276308806634993 0.5125334743627431 -0.4882928566478235
P 3.429533081514125 6.785488773573645 5.585571545655521 -0.3522910124974965 -0.015912300354882274 0.664992435627829
P 7.451284973269283 4.379640710280971 3.973660524225877 0.3618701715454994 -0.25951301203281113 1.3151416355952383
P 2.607329690947081 8.912981935695152 8.217215286346047 -2.2003971366163197 1.6446305625965545 -0.2304914279894805
P 6.45499814211201 5.0401800669612715 0.1480790994674224 0.6319005381698666 0.1341064268998271 2.082441351334426
P 6.169453058112508 0.3911468664993809 4.633613434496235 -0.29728817389905576 -0.27969720029016987 -0.2735288666959289
P 5.754493889583056 4.611245613497873 11.703801225741694 -1.9426229616514867 -1.0064840435169762 -1.8182743854693717
P 1.573720195018916 3.547899509969812 5.805177773737765 -0.22281231417766786 1.0672662078013555 0.5980193120413894
P 0.31248295206058363 7.483479684345704 0.3184947182409961 1.177727484478417 -0.2111392487151138 0.46513750157728284
