# total energy = -340859.4366469972 ev
CRYSTAL
PRIMVEC
9.35622817473473 0.00000000000000 0.00000000000000
0.00000000000000 9.35622817473473 0.00000000000000
0.00000000000000 0.00000000000000 13.69378567575711
PRIMCOORD
 96 1
Ni 6.79635483028445 5.706784627949444 6.077055488919161 -0.9467215787463631 -1.3224019167020773 1.413900793344023
Ni 9.167747012631308 3.7113631208102205 9.938168785047127 -2.203362904112863 -1.5410035352325075 1.6976747348067278
Ni 2.948044596866869 5.4266778671897855 12.70369769533363 -1.3911413881603203 -0.09390748608343827 -0.4199971575952186
Ni 6.910940557421317 7.8612994399172225 5.340220704604586 0.2127914396065561 1.279398416557358 -0.3149814774137608
Ni 1.92951623548477 4.719852249301175 2.8326420710054934 -1.4863789059090917 -2.4962534631648556 0.9118419932603586
Ni 6.0588127151156606 2.3476273626418163 10.953056638024803 0.12497618246378477 -0.16899886790163796 0.7261396965611107
Ni 0.5958523304714739 5.137186809515104 11.743462378317787 -0.3061785344101501 1.6267009747013275 -0.9331055306248254
Ni 4.929562748855821 2.1306377175239724 1.4951421124177615 -1.2856652234026762 -0.6070924779872512 1.0360823259993834
Ni 1.1607430304831354 9.049662056136297 6.732700667142214 0.39003403557422506 -0.03877454966503644 -0.7470617914257586
Ni 4.145230136307146 8.07100993947187 4.240745999064951 1.4914804888017152 0.4407973821700215 -1.4883596837845463
Ni 7.144350383083393 4.598137076252794 1.7399459528187349 0.3628245650389687 0.5513041673730377 -0.23636665582333488
Ni 3.5449813141902387 0.08716262219376669 6.01822726829813 0.2971593616306753 0.578477642464036 1.0669666742830657
Ni 5.821725891759065 8.755745502508667 0.2810891647238442 0.31287214438024186 0.9929042479500125 -0.6890289077517424
Ni 4.1012465073963575 8.090171494887587 1.7673606371564285 -0.6364007400330653 -0.5372777711869585 0.2087339817077308
Ni 2.7044458386619628 6.9857342458945855 5.493316667137497 -2.4532646183081557 1.974804688590354 2.0362049460747063
Ni 7.166683699869194 6.935912330568071 1.291416792062058 -0.3970338639308259 -0.4020698836928366 0.4078389249661299
Ni 9.264808524292766 0.10720459868595944 10.911126701210573 -0.7824010901570009 0.5212762535523797 1.1133195505159923
Ni 4.774361634971085 8.618845171042459 9.995614155135716 -0.2608075624745186 -0.26793800287171277 1.0081935700089155
Ni 8.591992796021408 7.3167669569119385 11.718210853946946 0.17018543201057143 -0.7258208797691111 0.9262288581096499
Ni 0.7386555063281981 6.648339299680607 7.6101567548902 0.9070872521841925 0.06387880093183192 -3.7289639887473713
Ni 8.277857433188034 1.3891753427266749 8.282371813309169 0.028825923092756806 -0.4963391239910677 0.14081546348888654
Ni 6.3757268777334435 7.12788342139801 7.799980591341278 -0.8058577785180443 0.316451634201384 0.668869659195048
Ni 5.280393238808554 6.279909744426621 10.13205977390993 -1.1102254849717008 -1.4434186002974818 -0.3113814187673282
Ni 9.316511041493575 4.4746535760688815 6.423043195139876 0.6907924274100684 -0.9295782341978571 2.794178756427278
P 5.370241098504427 6.080434958555957 2.1774899660101794 -0.5643003225223894 -0.19889925500549616 -2.591368082182518
P 8.737622488426515 6.424332483390016 5.707350679757379 -0.15405407366634757 1.8263671897798353 0.9550005309257037
P 4.960541220526448 0.4261013460657495 2.828958523951212 -0.7124876529953149 -1.8660693934654637 -2.0010098862308117
P 3.361561815962823 0.19144339955774758 13.76663632963382 -2.5861572274055398 -1.3437868101357566 1.0782656442356526
P 3.610418774433176 3.4321639141889033 2.82356278713078 -0.6547676725760271 1.2327403503791865 -2.022061564694788
P 8.74278712640966 5.2556927962804805 8.659553184449809 -2.097944589176348 0.8181401954298233 -0.8503787437485548
P 0.021063676614944928 3.3438504759228063 2.5446199411629737 -0.7903044041644777 0.2537555407237436 -0.16944469718980495
P 2.2331726227001734 7.039607408044834 3.0596709490144836 1.0006846632263797 1.3218535003977752 2.1219651204606618
Ni 2.4793817685813426 1.5047528300559578 2.4240462279586934 -0.0015966550631585407 0.18627411004231792 0.42481103404409415
Ni 7.678207409677869 4.003417785020013 4.926353562572817 -1.2425051430754344 -1.1024396703786947 -1.1455732683433755
Ni 6.949544355099665 3.8199421494232153 7.659770026327178 0.14947699581862645 -0.1957339699036371 0.5489780903430223
Ni 2.146000644278176 7.661693666851334 12.077220558618636 -0.7784040531824659 -0.460643213251355 0.22221196158950762
Ni 1.3728674369212075 4.32553401053386 8.777881402878808 3.080431241337463 0.9171456648614593 -3.126875391732615
Ni 4.114560420168119 2.4417603748671803 6.597036293425232 1.7187662653697044 0.29626487484086395 -1.8110853239201001
Ni 1.0148607199158093 5.508086409021898 4.710607360186784 0.7107465019344921 0.43567831577590127 -0.3068395650329167
Ni 7.418384951721567 5.164366652524216 10.795920656142036 -0.031439192345887795 -0.353027890663521 -0.2385829467483633
Ni 6.6485077117887545 0.8330280379962581 6.5266091566670585 -1.0561266462447683 -0.08405013367338428 1.8907509553725437
Ni 4.15156430281908 4.497108523821677 0.6880373759792825 0.8816592990293913 -1.4406623777085834 2.1976085181275895
Ni 8.80859883578181 8.393388139376166 0.6229545167862747 -0.9211468156010522 2.730245448108427 -1.140129728730301
Ni 3.784145220213968 5.246766954548744 5.0140345198105445 0.6572043070419779 -3.309263022236333 0.18332685448853586
Ni 2.901244743258752 4.638013320970466 10.588514595600518 -0.20621250083745776 1.6141802165264973 -2.1247323987931535
Ni 3.457687704801247 7.83978947121569 8.059121915882411 -0.8759607059827172 0.25342849640162807 0.32287733522206974
Ni 8.533076626855012 0.38820862173290765 5.1944226000913325 0.007026053608845964 -0.9455514696976618 0.03437410660449564
Ni 1.2853586342829184 1.848416449184258 10.108861941635645 0.22534793611532805 0.9751872902862236 -0.1675459375051953
Ni 5.669855595124327 6.122809316211128 4.157337095637193 0.490922838071503 0.04024187823918231 0.2181863853698823
Ni 0.942986174650404 2.1758657247893938 7.084972951865242 0.7921504562342809 0.0835467116744045 0.5600472036729903
Ni 0.8108519058447268 8.7287340716077 3.708318604144071 1.1898551209798862 -0.8845412485628766 0.45792581432019197
Ni 6.88813007299577 2.8315782678557047 3.0468398176194067 0.06144756578251998 -1.4650557189512834 0.2617565566513492
Ni 4.731397834937403 6.557256417858333 13.596669216355975 1.0683496706735214 1.7486108595349625 0.9720230336256291
Ni 1.6880413410881487 8.883083768723477 1.2886454772602338 0.3919770182332088 -0.5485011507066038 0.2155314642455385
Ni 1.0017620003933454 0.7407363314866238 13.012587956621081 0.117006791105063 0.39966153136166005 -0.014680484830310201
Ni 6.0129578405588076 3.3550405248862822 13.769786571678974 1.6136971062424919 -0.3300414570706767 -1.9717013670746817
P 0.3563806045389665 6.657087373075967 13.34162311291126 1.2818203957352892 -0.7363953128508479 0.9788649962481272
P 5.2021471021182935 3.6912846550279297 9.519043442749913 -0.89283794135403 0.7850971489319254 -0.5483427707518685
P 5.459143979149035 3.425520992145368 5.101373039095042 1.188820766178101 1.4077378590664207 0.5104763347233983
P 2.556056058928908 0.7675437966121691 8.496555525580737 0.10649689271267467 -1.6090804334060869 -0.23922546542836862
P 7.459673986902019 0.8213570789017427 -0.19355510026933337 0.3732514167992475 -1.2883977918424907 -0.07633733841015884
P 8.132761045792055 2.3847903011726928 6.218485170471672 -0.9383570088317517 -0.5115639113606223 2.211582463809178
P 2.376828150948681 4.624184815646037 6.780190074770906 -0.15648659436724016 -0.40579078418784953 -0.44982786780340595
P 3.184682321268409 6.871167231214179 10.185656927327383 -1.0621988205807773 0.6643517167200366 0.21125674812958453
Ni 4.812506977466146 1.0965405923666018 8.47208524626713 0.18972607314666035 0.11659875703336695 0.037047025450968454
Ni 2.7037909026858395 2.700815622108594 0.06026159478591805 0.8107367038769004 -1.353408906606553 1.1822978774579187
Ni 0.9551866962627561 8.829107688062695 9.065820262290078 0.5270854040349889 -0.2634964221605913 -0.570117700535115
Ni 5.276809803396337 4.96539710297799 12.116481163518753 0.4616045487233599 -1.4549787943312555 -0.5716081690377124
Ni 8.81989180325582 2.7879595318459 12.023965843154414 0.10901040316314775 -1.1692574993341927 0.8306239297191308
Ni 0.4395902203054183 6.773937307444576 1.8804718227241963 -0.9527636711753849 -0.8552954643238819 0.9808902542082719
Ni 2.6123711966472722 5.995489762452778 1.3092273081213168 1.193299370774745 2.413036366915728 -2.876290278317053
Ni 4.867231556385354 5.367256461698951 7.864724755072347 -1.0929574419198727 -1.0954151594317456 -0.27340982461956137
Ni 3.675912372045495 2.8242616973795855 11.460014508457077 0.45835570276875903 -0.9647941199773578 0.4389181628694377
Ni 7.986457704954365 4.5659516511404545 13.056120615331167 -1.2544646294301556 1.7943124753371358 0.9651394191319186
Ni 0.7409721084380281 6.591444075811963 9.728312328332086 0.6317071912121379 0.10080241343105865 3.5161468381092025
Ni 2.785583049875396 0.3340323177879971 11.156655649299397 0.5501201743672655 0.13059867085688476 0.013622990100073312
Ni 6.978501881472539 9.062564294865922 11.708515930254677 -0.8221670572010292 1.6563432230477928 -0.25478706731205153
Ni 8.066051138509794 5.945349735366433 3.7188078716130955 0.2989748175728593 1.3370908861728197 -1.6596882282606256
Ni 2.4783058023348543 3.0817357420500735 4.97272022281387 -0.18012480261147043 2.505448499400562 0.1277264915154123
Ni 9.282940894603147 1.1785666452619166 2.5630928781809397 -0.548505521581978 -0.03368787917074843 -0.5299773808708034
Ni 7.238810863296818 7.405866318349385 9.933568327626274 1.0285626205835705 0.8437540393431856 -0.9866474684070234
Ni 3.075766468439122 2.7342922067167192 8.473112560126818 0.19135075323427692 2.381341349805292 1.9123261104401583
Ni 6.2493242343416675 0.6586494631078118 4.332439842590668 1.3681742378411854 -0.23827081482458315 0.07932290340104403
Ni 8.324975398555983 8.21109138853639 7.595230763994352 0.6156187702907076 1.2556506793184568 -0.4900062397945044
Ni 8.325976514976627 2.456552571699334 0.5662931986233881 0.6652441466273188 1.5075966776372876 2.07746549538639
Ni 0.25985520475510726 2.391002836717633 4.827346891062274 -0.5579453268386391 2.057482367396244 -3.1585518969002893
Ni 0.8598794773944859 4.517505101363798 0.39187907006766665 -0.18579305664084134 -0.05931920658560751 1.22465705915042
Ni 4.305146789219968 1.9968997911996165 4.081597492489839 0.25546969520137286 -1.4687894749621027 1.0471658375070545
P 6.539011772809187 9.151167776207162 8.877543945988299 0.9774148940651618 0.6207368082435633 -1.17311492540707
P 8.141808518490786 8.233069168649438 2.873599895706592 0.17004839221207488 0.09362826428012261 0.36331667418403885
P 1.489090503998383 3.3629652501973726 12.244203035091004 1.4604079357666266 -1.337505348002419 -1.1586301015273335
P 4.809297791183141 7.394077470779167 6.407117023446205 -0.6285066819969692 -0.3264275144671733 -1.591021519021847
P 4.612601805096886 1.2168616874086629 12.545699069208025 1.8299754759563838 1.0120126866446895 -1.5295168747491465
P 8.070280153669904 1.92923554863786 10.325087182907073 -0.5263505827514935 -1.8244200933557935 -0.835970795853341
P 6.2691687944182 7.065991971654368 12.032661521671683 -0.07247682701348808 -0.9032902470356057 0.10744151601413109
P 1.8393783327137578 1.08548153059835 5.010118002673328 0.7217279406466602 -2.6642107771758563 -0.1145912396850349
