# total energy = -340866.6483897213 ev
CRYSTAL
PRIMVEC
9.28618425174459 0.00000000000000 0.00000000000000
0.00000000000000 9.28618425174459 0.00000000000000
0.00000000000000 0.00000000000000 13.59126931431949
PRIMCOORD
 96 1
Ni 4.992995530508892 7.461439733239779 0.8990734981234603 -0.37363091162585327 0.32047335376626745 -0.3941830247455921
Ni 4.001751082308027 9.148887984656893 12.359533246892656 0.007945222989005673 0.11473650701364757 -1.0441486479472857
Ni 2.744698897041832 4.279194408198918 7.628847347854052 -0.7974728968884589 -1.3525316462079222 0.07051841773553662
Ni 0.843452969129382 0.9119785083316664 7.955418302733568 0.4739293888372999 0.6237239158963451 1.1124916552980582
Ni 0.7124453394140989 7.65439735511235 9.793189447040081 0.12845462793068843 -0.10119990597979345 0.10957090365230807
Ni 6.815854920197618 8.012212605412842 6.3427191911818595 2.034799066866115 3.629375393118756 0.19854598543113547
Ni 1.9911807648300823 2.0033363799718695 2.582993928156033 -0.575622432403428 -1.168826582444361 0.8636404938544674
Ni 1.6275059322878271 7.8446805559300445 7.489999392803236 0.4397820535316297 2.2642214301611325 -1.5711060110448427
Ni 8.274250151685532 1.750027846864405 6.861498372867529 -0.21123797907650718 0.4957945643415074 1.1399968026968625
Ni 2.8337812622482224 0.7352921384464435 6.808315467230761 -0.24258718281174993 -0.0917503305311194 1.5037497930873713
Ni 1.4487283137166378 5.764027406156402 3.4425054956541636 -0.12603290586307325 -0.7186852971655946 0.0923447695820087
Ni 6.217750367063753 4.85497497447193 9.949488928092393 -1.305453461773197 0.5339242813336934 -0.9468799587010984
Ni 0.6703102071418718 8.313103546455004 12.191559175041066 0.72017987943325 0.8545665565776572 -0.9561768106219918
Ni 1.0746529548498587 5.604713629706822 0.8137436799596953 -0.1188772686548985 0.15881215717662325 0.342836551952816
Ni 0.2999771805150778 4.55679559922152 9.628571402164994 0.2768003383583491 0.8459590174143043 -1.8002105859891253
Ni 7.283014989668886 6.455300245552721 1.3299673037484814 0.5035649523155455 -0.6110635468198573 0.43886545525463133
Ni 7.800097585497867 6.476110584385987 9.288286610431856 1.8994842214804837 0.557839140278078 1.381021526117499
Ni 6.112584330791225 5.6766258402935295 12.882960163779597 0.7301573023609361 0.5047422604530983 0.6951296213328415
Ni 0.649782168308843 5.698262649522225 12.182085409901532 1.8980420897173185 -1.8208274909085285 -0.7484129061370143
Ni 1.4657220308361723 1.5418780276106538 10.366115440284378 -4.03303601833748 0.3083284908736174 1.9269572300897715
Ni 8.09825838837984 4.2547810298889415 13.368943328661409 1.0495885880159344 0.19457748770169073 -0.7791350178112194
Ni 5.374657701882042 4.710268365797774 7.486927523063815 -0.2030886104964954 0.12530579788906163 -0.39067372604075296
Ni 8.693409934932278 4.2221122338088755 5.430201155547109 0.2557476314531079 0.051939369181768606 0.9432919842395239
Ni 8.068013286380756 6.632833515438655 11.8583550987744 -0.9383528950666936 1.032034638292571 0.21792516128869563
P 7.388877489757788 6.5796515384203085 3.7383466097183997 -1.7861458803659431 -0.8138775634987272 -0.4461223939273607
P 4.363754401690984 4.261606375289411 5.514603283907464 0.4611402074924316 0.7895945225816465 0.6163733890685449
P 7.2404099764752115 5.884432070731203 7.338306787741636 0.7877602975863852 0.11590095963539394 -0.7598967384068978
P 6.419632011970135 1.0023600107102 11.483385480367398 -0.011691834515631478 -0.24005798863199299 -0.026381061096690053
P 0.056686582942342065 3.757357286050154 7.495707610242242 0.9580819980645047 -0.6766642155388024 0.20865144929625354
P 2.4543756336401246 4.075669108685893 12.604054263874321 -0.12778357000559282 1.7487815807848721 0.22082613698557454
P 2.872105344517249 6.084911501820616 1.9218055397718212 1.5668186965233983 0.6617690435945247 -0.1623980747556687
P 2.1638759327382693 6.390111232340081 8.731643012595965 0.31114256328364476 -2.445931574981852 2.07982114010276
Ni 2.6582909528903196 8.045977171230673 2.9646087399896697 -0.90264310036991 0.0931595521738202 0.5882558048967224
Ni 4.609884714397682 3.0755377821880905 9.067483436562213 1.3381383536007276 -0.38316224815505623 -0.3334198866246064
Ni 4.006264167838133 4.625457645331814 0.7103791634255217 0.26667893365363105 -0.2098891783580966 0.7697651465605453
Ni 2.277798840728678 3.8082734341192293 10.544378604249875 0.6876222572122028 0.058024141923267804 -0.18067758979114687
Ni 3.8062211874069796 5.187736099751382 9.526229294513257 0.5894639662722105 2.1922446827125146 0.41128985962920783
Ni 9.022660882577203 6.717152068141044 5.126259702989229 -0.23839679887948623 0.18391923665689616 0.5323625932735283
Ni 6.474225488989666 3.1664866704223638 11.493185190572994 -0.033610231855277596 -1.2087571000907118 0.9913772697825248
Ni 4.404632184620049 1.6934749849748068 10.889202482828932 -0.38581228418339364 -0.149348183550246 0.08745504558987519
Ni 3.737066973533114 6.490773469266721 7.20091304913941 0.06942158512693206 0.002084136222538346 -0.40682668165153163
Ni 0.10775409581417578 6.020372521503259 7.4560481746826195 -0.254398059403749 -0.7655148559246235 0.4104552795430544
Ni 4.555885553168125 9.014331175333366 5.437662604566532 1.1092919174138378 -1.8857115931764235 0.0038682247061546282
Ni 2.659999610786491 6.6517959036124745 11.57497697254958 -1.498334278498755 -0.7891749185457247 -1.73165391996565
Ni 8.873515477846688 1.1989392444279183 12.748827733074847 -0.11474576298502819 -0.5117919682110282 -0.31001179211331126
Ni 8.077299470599081 1.807007873228046 9.407278846387046 1.444174761737216 1.5478318710082504 0.4689676739566504
Ni 2.757225959552352 0.14673935439954705 9.527846947804088 1.7384241488099479 -1.7682278624349417 -2.016827569989359
Ni 9.221635951823249 7.430396019397919 2.739809721050884 0.04797061434200771 -0.5874783033007496 -0.06837771724344999
Ni 7.448151203623356 8.684337332950976 3.81955429070765 0.44517648507432367 -0.045515467933295806 0.6847616478349562
Ni 6.187300969011866 0.6997409107850088 9.284277764704804 -1.377032459562764 -1.5361564915528512 0.05512830843271151
Ni 4.867975632377585 8.052431069262408 3.348032500509036 2.1025754030801402 -0.25663466204375157 -0.6503736572733896
Ni 1.6399122744035093 5.258868270863751 5.792884223614847 0.3953497913601836 -0.05383530065290083 -0.34163250434238585
Ni 6.0369019294118775 7.25083836135239 10.79819509163408 2.716945902786043 -1.1026700412219461 1.2052472871652404
Ni 0.109892704039656 3.142537601323304 11.529418952774478 0.5351882356477815 -0.30962921196291193 0.9626431350726261
Ni 6.57187900222957 2.4859672323508657 3.023486862407536 -0.04198611462379866 -0.6102369371535038 0.6672866309786443
Ni 4.210188773272546 7.801499799314834 10.117829804220607 -2.917159762837905 0.4758579733185804 -1.6632816020388388
P 2.670251558163522 2.313643511811412 8.948912793370534 0.5276649306875428 0.02595322953065208 -2.444863538728654
P 4.103648381735705 0.857510394799082 3.5580311990406557 -1.1207222707379667 0.22808796075431037 -1.9102538012921617
P 9.14269409978327 7.504063318801889 0.30730769433702343 -0.7233958152673864 -1.3149817129786063 1.0587501999105444
P 0.5833980231873043 0.11776460240152994 3.611077597769414 0.3702949052740848 -0.0639083686181867 0.30951274098970566
P 4.460191424798287 7.050869670394984 12.313513703761904 1.8621312347533219 -0.39054337111047577 1.2807238202370008
P 8.012602625150011 4.6115190828201085 11.026107768141271 -0.2158407679558412 1.0016722239506297 0.6002286609878824
P 6.667758854283774 3.0902935289110087 7.910417454011566 0.6193833795394623 -1.4696011722301208 0.876342257691852
P 4.260714901604451 8.588281043396623 7.497202685901391 0.654807267564711 0.09403269880739289 2.0471516748941965
Ni 1.1305836423968292 8.996492415449964 1.413858691976828 -0.9859134184544763 1.9771343651647948 -0.4984047482708449
Ni 8.49599494463491 1.5089770769251292 4.559531309092239 -0.07960006832183066 1.1715450098167886 -1.4147644268958988
Ni 6.9735250420405555 2.06087357738861 0.6860382173524486 0.9426306965064412 0.018403956428484435 -0.18106016994154625
Ni 3.049945058482387 3.6515412168823427 3.995398403684271 -0.8302660321590799 0.6003551592634176 -0.49797614537385854
Ni 7.901010549398403 8.707014194812125 10.644056505649374 0.2285618150669354 0.9633507026626118 0.36756156550332186
Ni 7.720635707141661 4.522325283403099 3.2510726652302413 0.28719042334342154 0.2667041304646116 -0.49861660717133477
Ni 6.889447930127843 8.637404957911562 12.859746560470628 -0.7151068357857169 0.08654307529856708 0.21724818982632907
Ni 3.4545441048748 0.585793858715632 0.8779372142241311 -0.32796040617193195 0.15726152486005174 1.1014014589221675
Ni 7.7848125262745045 8.881343731142737 1.4946457088209886 -0.2418001681340803 1.3711724012375612 -0.6217397955867808
Ni 5.280579369566193 5.011688619340379 3.1779244635240746 0.09243630085455047 -0.1187980786775309 -0.3322276660887181
Ni 1.5793663533000313 2.8171218477605473 0.35245805062494057 1.0654044720022682 -2.004383173578419 -1.3068482852381946
Ni 4.110947322531309 1.9284618766195165 5.376108203856945 -0.17300336107534078 3.1151138803213123 -1.108792609179916
Ni 6.685718334562015 2.9939586538301066 5.617217476756796 -1.759139269870112 0.6623477989161303 -0.8367385272573009
Ni 1.4109892610533656 1.8716861463086787 5.310435380446529 0.25288779340680967 0.7769287541885199 -0.47739652145029393
Ni 5.492620100007422 1.4502976788495348 7.157841869497976 -0.13479728231926463 -1.195155193036561 -0.022240042345122987
Ni 5.854446981890231 7.142914328367019 8.328159236928174 -2.196772652489855 0.9775143957575037 0.645805835397049
Ni 5.942359287885112 6.251384926302526 5.710929004796021 -1.3182827523273812 -2.482255863334183 -2.838048718337351
Ni 4.413881224101501 4.644438605874069 11.985365954802118 -1.3735211039753958 -0.8561454710290028 -2.1469102204417734
Ni 3.6787775951946897 6.312107284906151 4.710964829614149 -0.5625784547352762 0.14836756480453156 -0.4483476837134537
Ni 4.852189119206433 2.1291827484986077 13.26293132100659 -0.24347729872618715 0.40767026059874956 -0.633570983893754
Ni 9.435877507924221 3.6184359701440147 1.751574925155178 -1.4487564675706275 0.35465385630271823 1.8442301861031851
Ni 2.5471446139811893 7.727683920963369 0.1302972366225811 0.19539869805140542 -1.3743988785946588 0.5607311171138923
Ni 0.1918182070689831 9.02267945494564 5.96474642079865 0.06362426171886462 -0.17314939973490182 -0.7548398927092805
Ni 4.395132418164703 2.5167509330346127 2.0186297967610285 -0.003235990438794427 0.004491974333082587 0.788957660328596
P 5.709814662689822 0.34375411015710466 1.1358916252960236 -1.0892810215095499 -0.5667102175154627 -0.09903478000767461
P 0.6908661045275557 3.682185624802815 3.840566139738454 1.1649190198598387 -0.5129235107123101 0.06899889576721666
P 6.4809579725479525 4.193659365363928 1.0562226650317494 -1.9451241308067855 0.4811940408195132 1.8594207778006946
P 9.037444487852778 1.5527800078829674 1.2817682931816883 0.5360942924018187 0.048601305947471134 -0.09362029386032264
P 6.473491880436419 0.8796523724492558 4.889268852790204 -1.1488208287463957 1.1042319863924273 1.4367265329892869
P 1.9272639588553526 1.1184187410708237 12.38849592685119 0.4335381295044469 -0.7099767136480031 1.2254127063695217
P 8.428939408394386 9.02129581349711 8.61527412368245 -0.1239539118468575 -0.0990448073100036 -1.152588266208628
P 1.852435886424091 7.601103943883384 5.242519943547389 0.0896746789490133 -0.9817284338388512 -0.24293531017978803
