# total energy = -340867.208688714 ev
CRYSTAL
PRIMVEC
9.26499330738806 0.00000000000000 0.00000000000000

0.00000000000000 9.26499330738806 0.00000000000000

0.00000000000000 0.00000000000000 13.56025422523821

PRIMCOORD
 96 1
Ni 4.398110857574275 8.79069051413829 8.095431518139412 -0.15169611495713228 0.5195690410532858 -1.0691353997996105
Ni 1.8643853401898745 0.41989412962383754 11.715584975866452 -3.001864756486469 2.223144971835797 -0.8019198769162189
Ni 6.08940759261565 5.970871268117744 4.3237138877379655 0.5620269531071804 1.1126528634662707 1.2610278844699703
Ni 5.246645270513214 1.2413515995937958 3.152623364963763 -1.1291117803532427 0.8955093175386062 -0.176674896389657
Ni 3.3484982946761317 -0.15004471377041567 2.060195414949024 3.941585478434966 1.3789245343791543 -1.2700727682810578
Ni 3.1353107984515862 8.230742113037776 12.367128027398321 1.4069809262957382 -1.9943733547509006 2.750405725106386
Ni 0.2241340858286 0.8650261010432275 9.748222940955268 3.0348949474685605 0.43188516728205617 0.582832576998622
Ni 3.631052795865178 2.7178672595600997 4.700960326624246 -0.7114409568983554 -1.2333769555219212 0.7213137359273771
Ni 3.9486752967591308 4.619423752937844 11.388592787231001 0.7326669561566673 -0.06164451228467448 0.9721772998153062
Ni 1.9874244514398511 4.496588471540841 4.7498720793434375 0.7090279765814885 -0.8041693350720279 -1.7656338764555206
Ni 6.677113913693947 0.6757422875765844 0.924067270955914 0.342074734086127 1.1415122109001243 -0.35640400622460555
Ni 2.377323165199848 5.893638283827096 10.233056335237404 0.8205932849560061 1.5267051163319643 -1.0281255330461518
Ni 5.893045324254808 5.335802301202862 7.845474969436956 -1.0989766515307589 0.31128705928130906 -0.08973201454950998
Ni 4.707793259195545 4.148845477373268 3.23809385481257 -3.602324559648551 1.726387529360388 -1.649151847505676
Ni 6.197669039524986 8.184417146452695 9.777553130298946 -0.6827423034120822 -1.1190641663092533 0.6273789961504292
Ni 5.020746203457722 8.338503250307994 0.3138822230918736 0.32955603279382595 -1.5182405305043787 0.2379995634410675
Ni 8.028190829141165 4.8114407394330065 8.53067496219155 1.1102290845161267 0.9157408140941325 -0.4980285958783487
Ni 6.822833728583979 0.8455751740734835 6.382282369860521 1.2970336131406177 -1.2933335385812115 -0.7992274176857204
Ni 6.988510339078864 2.7335436282524914 8.095810456366078 -0.507828612687906 -0.5535412842336724 -0.6564098361651404
Ni 8.833772733062418 8.561585759395111 0.2893735362703703 -1.3515062902672013 0.010489329567098063 -0.7260988160208462
Ni 2.2456305501917786 5.7527733254351805 12.765446767084823 1.0069309012464076 -0.024266842967164658 0.581069057340296
Ni 8.103051975142659 3.16641338101681 2.3107754977017154 1.2193518448874225 -1.0015300419458106 -0.23835797522175078
Ni 0.1736778587234609 4.222919098942814 6.194744081134805 -0.6221185190824382 -3.1883072737858513 3.053193231557116
Ni 4.66216316710924 5.823733909250208 0.4145760234598702 -0.17659982017734746 -0.3500132722069133 0.9424700025588607
P 6.482484199083385 8.381020304639781 4.6831557889669355 0.14217249173741323 0.471728267420923 -1.0356843192300162
P 2.572165974656701 7.259251973788715 0.8618750768161102 0.3379365435480373 0.08273321463417366 -0.5733338934795674
P 4.6282810865489115 5.945902111128385 9.81148153582586 0.34091439522943867 0.7133330317147457 -0.19456128975177459
P 5.077290457671473 1.6215128053776091 7.266750132880175 -1.1843750717019215 -0.01411509924514343 1.8681782122783501
P 8.897404707163686 1.42094423005084 6.551351820908098 -1.1195609034400138 -0.22135758400901231 -0.6900442363901341
P 5.985287597719021 3.9979372662257067 12.32665112459494 -1.2194647163162031 0.18208064078626063 0.5095317114219418
P 7.469243047318889 7.220301941883978 8.35338746207178 0.1783661680491509 -1.0399991445552863 -0.5428426668692458
P 7.217142579162876 6.937015506222887 0.8468092711833101 0.82829091071058 0.15833701731241764 -0.5150459563719517
Ni 3.505447281466388 6.0676348583206625 7.80365556910194 -0.7733091551580618 -0.625079401482975 2.1099076750754953
Ni 8.792145118089064 5.494363396830279 4.709814880737318 -1.0876008055936495 0.26593691328128394 -4.677411806156222
Ni 0.9046024464961944 8.829807315922734 5.0139179033830805 0.5421476976847502 -0.342340586153004 0.5080307013963831
Ni 1.852174078998047 7.6546077686124345 8.372670692662485 -0.6756730552701267 0.2614451960585175 0.28568889909723055
Ni 2.3755442864829814 5.3549993673557195 2.084048140243682 3.3259875340798652 0.41149143411705263 -0.10214427217093378
Ni 7.660435449408838 4.343364012064026 0.37256669076185484 0.31555071965366943 1.3903127216114377 -1.9394116538030404
Ni 3.517463977798558 8.07981537190358 10.104369284061375 0.5506619058033484 -0.005637400791435453 -0.17585137204709714
Ni 0.1999292907878949 5.819027292645164 1.9265599308423758 -1.4859307626280795 -0.3408858559843484 -0.7010863531369087
Ni 5.721309408130593 3.5520131378777116 10.035008764592195 0.9778740930897675 0.5117773129230089 0.5791582134708284
Ni 6.40480649511352 1.9151389735804898 11.96872775577063 -0.026522214660244642 -0.20658119703078617 -0.12360295626534196
Ni 6.933828348521834 5.224177661719449 2.349504096266175 -0.7217878473503182 0.8747389177604742 -0.3134254457805505
Ni 0.3354122145619561 2.5542289475949573 8.179355680603608 -0.001736523075132493 1.0163123424613079 -0.010611456967259143
Ni -0.04530118482355123 5.676800380235647 10.410790408035057 1.4842927128040242 -0.8589284330907788 0.22741818838079544
Ni 4.451245594247363 1.251682067142269 13.435092689058811 -1.1007139459368398 1.065323739363004 0.9105132471466061
Ni 3.044587983891363 7.705370666996367 3.844250483582372 -0.3705000793063554 -0.8232980854816788 0.6951620172326738
Ni 7.491182551493584 0.5860293572879155 3.231299835213202 0.806694929707359 -0.12632215496871793 0.6202333862445835
Ni 1.1602643780832693 2.8619193756530694 11.970124916762837 1.3800406502614684 -0.7798006764196763 -1.1217211443161261
Ni 3.609020641757313 2.3548648213994006 11.40062060155515 0.466589660642777 -0.18092235881210134 1.2461550811231958
Ni 8.86636697955168 8.760560755871355 7.598190444807127 0.20520694239107884 1.041812286504625 -1.2344223660673
Ni 7.150351242340505 5.271540307556036 11.102390658173045 -1.2466281641048722 0.009551391133860969 -0.023751336783326835
Ni 9.321602426183278 6.341600710704834 12.983427970851594 -1.3295467552769749 -0.44058989414490574 0.32144214543744
Ni 4.315077987467174 6.67219420224261 5.80686698891658 -0.7441700717002604 1.0993769722929712 -1.5902167637323645
Ni 3.069056831241603 3.5886283914665604 13.586018503693674 0.9366120011161869 -0.17494325841053096 -0.009177038513577743
Ni 1.319325783349805 6.275735873214165 5.993103546081256 1.1407179971336032 2.6841435115440415 1.2914725741130724
P 1.2912250586192946 7.283572581245883 11.417883137103416 -0.17745548330942343 1.1580873416499862 -0.2582256606799552
P 3.8605930052942568 2.4448834964675314 1.7196161136141679 -0.5641092895575058 -0.295251345974685 0.22109970236193535
P 4.6241211045495705 6.324664302921329 2.708674533190956 -0.6896575424746767 0.3745544518813872 -0.21452076359283698
P 0.9656068684927565 3.93470368683707 2.7987552837143106 -0.616133762253913 -1.0842576001530295 1.2310398227483121
P 8.94670373660353 4.271690023763587 12.22662996274176 -0.3386500246752942 0.3779999872278264 -1.1050398270057031
P 5.1314999335693345 9.339854463017799 11.806072459596423 -0.0037484112988387056 -2.024815987511474 -0.47802824149702183
P 2.3480087263448084 1.6129148915794178 9.957199497717228 -1.5933391114114304 -0.7718518538862449 -0.9643722019485905
P 6.37046116488734 3.254467877501733 3.5614921525403513 3.258549297931549 -1.804320494392441 0.2514472043055412
Ni 1.9051883707580144 3.8427115681924158 9.598178227184853 0.20059901130542226 -1.9532701569526878 1.206180597612787
Ni 5.847257727282113 2.7883831236959105 5.600710696120318 -0.17750330582822332 1.892623232694592 0.4349733192890767
Ni 7.3715992827508545 0.982330181429971 9.804945083040705 -0.8995163818154702 -0.7739043655398994 0.031005704352894986
Ni 8.126316373361686 3.065758493620745 10.220011224647045 1.2297244463709982 1.08545033490955 1.051891268007182
Ni 9.088096799614515 7.892254847193903 9.626804277036436 -0.33366439853524466 -0.8055685294123998 2.4370643543992094
Ni 5.665895483101519 3.3350547893731406 0.8367122814664256 -0.5447622524894619 -0.6347804308208229 -0.020974802479454203
Ni 8.289862035393657 7.482010208109737 2.9458157431373153 -0.8250958008120499 1.1736944520596237 0.4523249231936468
Ni 2.3064552313179907 0.9524505779825934 7.741997038577195 0.2131025430890717 -0.7660121072760162 0.9621839360480202
Ni 7.440428918102969 7.497519806922424 11.882986728116967 -0.3722054920332364 0.3393377947709382 0.7401072144847963
Ni 3.9411613871790308 2.6479443549965778 8.987505840672338 -0.8836261929477751 0.740116470456177 -2.4520754830960607
Ni 8.126436818274808 2.3699852904927714 4.566755045428601 -0.6375140277019021 1.0642870705683736 2.6154523768252314
Ni 1.3052151985279892 8.819856713100258 1.7875803985904728 -2.823614288079576 -1.1669095679273065 1.1522437383850155
Ni 1.835293261174443 1.589761673280194 0.7745089693346415 0.24383468206560582 0.1804230505781796 -0.18864543848797188
Ni 6.1210197498133105 7.802764276744842 6.67186158898253 -0.333623003774348 -0.41592195908458046 1.7544102398255592
Ni 0.6016371650297611 1.5275101831831615 3.5421959509590013 1.7448848168336273 0.08927615795901399 -1.6083746655883138
Ni 4.461446351889399 0.2592039385321701 5.584180095044098 -0.5620480361531031 -0.3704797675913813 -0.5340590071393447
Ni 8.155482572323653 7.336920412765262 5.771786944720362 0.6329811728285549 0.5860847653873326 -0.17462289895663474
Ni 6.038867054071327 8.188113878786185 2.42819446400559 -1.419300624203356 -1.3634547208783292 0.6184505833125479
Ni 8.514788278150862 1.8904940913572263 13.15449032196166 0.3521601433465871 -0.11735954645879142 -0.22995355320813946
Ni 2.5643463202971395 3.5041038574354206 7.068689591244324 0.3974323849208252 0.4161741843047026 1.0388195224248884
Ni 0.7497807021715251 3.7498022152093755 0.6226149628981494 0.11682090034650204 0.4662271350970358 0.12406189817963148
Ni 4.994137142651251 6.901715881685056 11.910757619085391 0.9043117463215846 -0.4774564281539519 -1.602780716440304
Ni 1.4687886555399121 2.032443053967233 5.8485779888297875 -0.14054524054663536 -0.5223671726237132 -2.2497569179963706
Ni 5.1726920938567895 1.0835965583849592 9.932058938351506 -0.9389951566363829 -0.850287212476013 -0.29422984668870616
P 0.9240033425020265 6.865702852661813 3.7547256326580385 0.9476309779345098 0.5041581058148542 0.33256628037505953
P 7.248448991581074 5.116323874516062 6.15674834354172 0.11507872084441471 -0.9707796481368312 0.4795570194367224
P 8.884461511499813 1.114726935930134 1.5851393681143346 0.4116073908696266 -0.4973228280605757 -0.27516588807871967
P 2.7621539276154374 0.7888650764793584 3.902207649276967 -0.3127317621476356 -0.10063837704936864 1.1784540782317963
P 4.106180183148409 4.644763509659883 6.249324156765347 0.8970164982117518 -1.193030176273758 -1.1695773445674567
P 1.1561507210505138 4.872154240639414 7.99062406073866 -1.1590098534642557 1.76120617970147 -0.13597587600839808
P 8.556351038170996 0.052833624390285494 11.637057672009417 0.17708087357882407 1.2550814370785481 -0.01671525587215186
P 2.730551035411095 8.143095276258801 6.531662783610107 0.15475444216748188 0.3836780114492102 -0.5436800751688766
