# total energy = -381164.8730458387 ev
CRYSTAL
PRIMVEC
9.31125308497902 0.00000000000000 0.00000000000000

0.00000000000000 9.31125308497902 0.00000000000000

0.00000000000000 0.00000000000000 13.62796008574789

PRIMCOORD
 96 1
Ni 5.477763542581514 6.739568672166827 8.148048382410076 0.03176289423389368 1.4303941630133559 1.3160739176015206
Ni 3.2658195414910853 4.4252288226028105 5.2063712468003835 0.0971668735610004 0.628348302042234 1.2249167405697097
Ni 4.854282046374241 7.508910945525937 10.365644314029147 -0.9154549074225976 -0.3592836417652458 0.5150531554608032
Ni 5.741523404335748 8.480288784964877 0.7730621189047314 -2.279589942197403 0.9607286916587324 1.369251015845132
Ni 3.817446098835881 2.8528375402772075 10.871146648858824 1.1043875381336852 -0.946313287564351 0.5522372207102682
Ni 5.13207396629431 0.937512812531744 2.539106977422384 0.746376849543592 1.2934055294697273 -0.7566144681112003
Ni 0.19956529067744383 1.151941656261692 12.162735683192018 1.7575202462094506 1.6277407288197514 2.112380047875388
Ni 2.0322368195372578 0.5726495042106379 0.6615840743230116 0.9604268441475974 0.8770387695382443 -0.6022747448836338
Ni 8.917480043797315 5.944275936891205 6.936808942987596 -0.17703819326634673 0.4029281179280738 0.43229345846406836
Ni 7.749010913584491 1.6655503678924153 10.8298400686098 -1.2011003548764023 -2.01770611593957 -0.28290542281482245
Ni 7.190810611670963 0.7716989514757477 13.341936032406918 0.787845915321656 -0.9917241115989823 0.08604736660907117
Ni 9.413024924743421 8.97838494921386 10.215927747038908 -1.5248827184112448 -0.7872334785486378 -0.9675619125304821
Ni 1.7525826490311456 6.579750326872596 11.102984742192398 -0.189577463383938 -0.11475964694209913 -0.42793415305410815
Ni 4.044175107686645 0.0565807595557515 7.636986298455767 0.5825518125334096 1.018324230685014 -0.008820426505107391
Ni 2.4847357781869723 8.621009750499233 5.580540221299947 1.2877889546138983 -0.4143553859284089 -0.32118143557688555
Ni 5.062016099247364 8.212115389321722 6.028436627626256 1.6395634324862924 -1.8324082537675925 0.07610105402963667
Ni 1.2701573234637165 3.4537485593816375 4.4657597754827485 1.0506743648809453 -0.9507314712367047 -0.983627707744093
Ni 5.400340474466768 3.506515429737173 1.9389864836917288 -0.256773501614461 0.019524957406805085 -0.7699178700883257
Ni 4.700180810379163 1.577624206472384 13.743251964824529 0.46188042809256585 0.23757893096388114 0.750169740927121
Ni 7.404056926278773 5.28891271065087 12.216348946438911 -0.7786673341461816 -0.4101853137111193 -0.34413084528420734
Ni 4.480416618720202 0.5791422408788776 4.786521265425178 -0.38419634584652546 1.3767658361649386 -0.854416147042722
Ni 9.020257653641043 3.2720860147131203 11.674977803071457 -0.14123121087006646 1.9738736921356521 -0.1592189056967387
Ni 6.456851099446674 2.95072674233257 12.721727441604617 0.6958446451219951 -0.5365313799392373 -0.5000458834186937
Ni 9.004866152547395 -0.24782923911592628 1.3457116231153692 -0.6692383553883764 0.5800187616989108 -0.45165900747487375
P 1.1921010901497142 2.1358245083859124 7.452054572883451 -0.9782363615251927 0.8141902096431397 0.21294981956129133
Ni 3.089473722245721 4.2426258413883415 2.959161806362053 -0.6560745643129089 -0.5321260517826899 -2.382474434968471
P 2.3127848703246707 9.280972735687095 2.8053697039642587 -0.12563335643180942 -1.0494896005442247 -0.6221216044062319
Ni 3.28541041765626 8.063032918656031 0.9119785636212122 -0.08058814326671282 -0.8640636974348151 -0.7221156630033821
P 0.4480444552478992 5.508630346045181 3.162054938836756 -0.15856584549377206 0.004292199617450672 0.7197065393412573
P 7.357482039121831 8.461722146622026 6.934014635983238 0.006242638475602151 -0.015364912491844506 -0.7168672701202493
P 5.655720208583806 6.1240669197207485 1.2360027165903904 -0.2645875983422411 0.11055460772181605 -0.05068209973589981
Ni 4.650840481101948 2.893453225558811 4.142517767759708 1.70037027936102 0.6751043272508502 0.624123465327609
Ni 3.162827772829964 1.9900009762457973 8.62273698791779 -0.9534025903109644 1.0817523172326726 0.36092066314803645
Ni 7.22218022279286 4.685841480866631 0.6111813310864584 -0.2275161474112404 -0.2642165881560676 2.847031638562252
Ni 7.8183797479146016 1.9200455329810833 2.0580131610239754 -1.6537860038435774 0.6260978154451604 -0.07558786183864402
Ni 0.16579337629954985 6.887887620092241 0.6463368976497825 0.341091030016619 -1.2948497181154217 -0.09580316044425437
Ni 1.1182907881718909 0.83606391848116 4.507516089248303 -1.88388148194622 -0.37651826047597736 -0.981696037939019
Ni 2.692386029783723 1.7553015348867687 6.021568647464929 0.798746878504876 0.9639371712937013 -0.2661454297476642
Ni 0.3069519707216268 8.346039140217021 6.296826044337393 -0.6189090110062051 0.4605493679859682 1.2231835599286869
Ni 2.3881594627947704 5.7370074466645935 0.17918295801320067 -0.1500063859595352 0.02489959145515712 -0.524442052874871
Ni 5.70887815156241 0.8152541993074199 11.374045557369213 0.008463043165688652 0.5280333697705551 -0.07695183206570619
Ni 8.829935643747424 4.386326407860367 5.229593511608343 0.3780254411491231 1.0439833260140148 0.9049876893426866
Ni 6.922897931109853 5.49002646269061 4.948189756676643 0.17084543419207351 1.6239298397140935 0.6174442535352205
Ni 8.522301158186012 7.261538888928884 4.69394599541709 -1.182434660146099 -1.2328452513881671 0.8944325395346597
Ni 7.471433152481818 6.784001971149819 2.4878382876633203 -0.12627818910465996 -0.3159767514474945 -0.6461251664096808
Ni 6.788089611186184 1.8029658386365452 4.241198426314139 0.11792261805111304 -0.8567481376100085 -1.5397853465546902
Ni 1.8569245493671478 4.181115704531334 10.669588750054315 -0.8009698542981237 -0.8305416544179697 -0.5195685268326535
Ni 0.5513230104992708 4.674425884774186 8.9302383225623 -1.6124886877566873 -0.5960555034467993 -0.3334034315643742
Ni 6.265970414377243 9.085641271717021 8.7706825546007 1.4360436479896495 -0.6559673493110831 0.04704733119678994
Ni 5.158052361969612 5.8815925821649895 6.227405066990873 -1.484005777691225 -2.0296864282298976 -1.2705921311196373
Ni 8.474217848054376 5.739698398761425 10.442846705449448 3.3510308502017385 0.36548180015615767 -1.75727856251229
Ni 0.8316485223416514 1.9768348646024716 1.7919953204341648 -0.39069712307952065 1.194383862088175 0.7545467869488941
Ni 8.851556373051386 2.110656191715538 5.942594324612008 0.6502057642369575 -0.002080279567796417 -0.638603404111339
Ni 2.3185019796238233 8.8366769908689 10.150813224172614 2.0786741709825103 0.0945939706275016 0.9213113662033746
Ni 1.5159650895684929 8.244909622141943 12.743137736592354 -0.30544911244329326 -0.09548022988719686 -0.32188566073276176
Ni 6.113461402633233 1.179037402288621 6.44966374330984 0.8517157173924234 -1.5150988995516037 0.5314961315081751
P 8.71733466206232 8.67035939102938 12.161741241379072 -1.9496731836300485 -3.361653362912591 1.7358751571358493
Ni 7.658375177561767 4.238044704946675 3.2519178408662723 -0.24810708418871466 -0.6006966017632365 -1.386277889420432
P 3.5237598701639334 6.667350594440071 4.924340844546481 1.2929280756126764 0.5025025724893023 -0.6125478446748676
Ni 4.790183381202633 3.134819524015874 6.530232152664414 -1.4347583535193227 0.23913393415582687 1.3533343446148758
P 4.488908481392559 0.21381895666301876 9.765727736737665 -1.8783083587338167 0.7906319627072255 0.15222961886309913
P 2.9089937066993414 6.179124358297116 9.193775645371499 -0.1358581194836112 -0.8294268240872361 0.9063866265727423
P 6.14179554529988 3.248109538417814 10.55525028857243 -0.7872902999285022 0.434643960974116 -0.44918432068213615
Ni 0.8698339706084679 7.243400568220824 8.704000947866252 1.59249501824358 -0.7572808980506055 -0.339075542248487
Ni 0.4258697063945895 1.8517754264967383 9.486777496953078 2.5113034155194427 1.2133313497249556 1.0699982620205377
Ni 1.5657896039980794 6.218808918285697 5.519842025698455 -1.4697952905187976 0.04085765744631028 -1.108474563718865
Ni 3.1446801408689726 7.265356502630273 7.420342307653721 -0.36580010272752483 -0.6942022244225657 -0.4637257088314207
Ni 6.721635199023231 8.67037801353524 4.0346394535608106 -2.085648545417814 -1.0952194984811718 0.48724410366833504
Ni 2.081698195102566 4.890605244055014 7.367193675928047 1.013779548737125 -0.28842506708147103 -0.2881841547152585
Ni 5.507000876782394 1.9874124479311972 8.61551424901982 0.48830674060489454 1.3677633755560121 1.0085913196679663
Ni 0.06883436841191597 4.235903116772725 1.4067599218270386 0.9392730928881179 0.485834367805002 -0.21479278630730103
Ni 4.257551779835477 8.197012537068911 2.9317969651254407 1.0241709192737782 0.006021266493415437 1.9411029254625343
Ni 7.253857105261456 7.34536809905962 -0.18984713599417724 1.6370848890388128 -0.7249001677270548 0.2697362324227161
Ni 5.0821935843471415 5.499644986967523 3.5904628927801228 -0.3501855361187195 0.5213816687819924 -1.0495356232908117
Ni 3.8777085278002397 -0.010168819325089066 12.390432131222232 -1.8953254621171034 -0.6612689640296546 -0.5741746442133079
Ni 4.4033194444580115 7.027128096410693 12.777179677305226 0.5392595775036777 -0.36560829843169296 0.3503989376811062
Ni 8.51694718775114 0.8959632085812405 7.837848646666391 -1.0949006816891724 -1.3385903535364816 0.14559000205939443
Ni 3.7410007122788063 5.1825130234172905 11.282342751760686 0.4008560658903935 1.6958132561179566 -1.3884792679471247
Ni 4.226089056184278 4.441141753860549 8.770982376945055 0.27112951322581696 -0.0009801045250821831 0.04965211580948868
Ni 7.78601383272917 3.0423029149012466 9.12089367531082 -0.41121838296132407 1.700172561527917 -1.4333802422248734
Ni 6.357490719428338 5.576639737447479 9.992455814463135 -1.6850169368334011 -1.476639824244457 0.25100831699590964
Ni 7.147122212922389 7.541779668369601 11.176317376894902 -0.103048529152758 0.9616200931247504 -0.8627442072924433
Ni 2.8308909171206884 6.487662035392759 2.6667055942021864 -1.469562091462069 -0.41516168387978825 0.3312802145737843
Ni 1.7719128101142745 0.10376460265432885 7.9790202768425695 -1.2767103282022334 -0.29269566943236686 -0.8241540057240709
Ni 2.08661453664972 3.4247626290098747 12.904506405499466 -1.539105803989162 -0.4095065424765399 -0.9907820594006871
Ni 6.8752522498659365 4.902821607899457 7.711081524773255 0.2683622348933249 -0.43360780640011776 -0.3961514613258726
Ni 2.8703892520506655 1.9492083771585202 3.294327804587528 -0.31640689700637764 -0.7882385227743844 -0.5448560977548487
Ni 7.958253389432309 7.348841196402591 8.79090659596513 -1.321455493628408 -0.09902886647040365 -0.45848451503713944
P 2.107546233236846 1.4823514664904125 11.389676357663168 1.4069469877340093 0.114059535551281 -0.644164186028568
Ni 5.07649509755385 4.730125799802739 12.891178278055156 0.02861200730973782 0.08710177601551451 2.262916852417096
P 0.4465313766467391 5.173434551810329 12.273245357468996 0.6947007613255392 1.2923896866107032 0.9792411486406233
Ni 6.827308608528254 3.3231582370353565 5.757622560652091 0.7338051835261684 1.8418948531017891 0.8834999517825559
P 8.491844049851275 2.5429776652654748 0.13166484093442854 0.4064371595225968 0.31072912989531 -0.2353022191145625
P 3.3854970754031535 3.1794669818162604 0.7561323988270123 1.691002722103191 0.35142275095993025 2.829789306542036
P 8.331103890516953 0.4094735211097718 3.4786189159582452 2.5039233210052876 0.17127018043431794 -0.25971561496192047
Ni 0.5994072517562 7.793472146326273 3.0993110609664947 1.4518901281036027 0.354441483181596 -0.6049553770395905
