# total energy = -381174.94370362815 ev
CRYSTAL
PRIMVEC
9.19570008635358 0.00000000000000 0.00000000000000
0.00000000000000 9.19570008635358 0.00000000000000
0.00000000000000 0.00000000000000 13.45883659198744
PRIMCOORD
 96 1
Ni 8.690433263868892 2.8268685921782923 0.7203644867224771 -0.31239494763350717 0.034521945036269576 -0.7631185877783051
Ni 4.754360921265341 8.689127474439431 8.444235862644318 -1.6329937496885747 0.3398592144920469 1.8334901739778617
Ni -0.01502393499896196 2.137945124035171 7.4551325547787 -0.42236282961391775 -3.079933732875754 -0.5381910270298473
Ni 6.4860032273337245 6.447693940269411 3.295934822771113 0.20115385536762775 0.9662347090786262 -0.46433197495685186
Ni 6.067093104382499 5.68078173866675 12.528198973404502 0.9056399782147048 -0.5174363109809992 -0.47455673800865367
Ni 6.9224035720795545 2.25614665450197 2.2683116463064303 -0.12424136118028925 -0.05169614282271097 1.10812489368893
Ni 2.2954858599895203 2.1933400220849606 0.5845485925082717 0.958777995690265 -0.22711891197282175 -0.585126001018489
Ni 1.2714250977852108 3.690252884657505 6.478451718323352 0.49423467605355526 0.5246451700246125 -1.4657018371757142
Ni 1.2822576326296087 0.2691792951830788 3.1486141880273437 -0.16378749890402758 -0.4667092169397769 -0.6187794274068763
Ni 4.949732767873215 8.5974831261718 3.852914706057394 -0.4065289479054547 -0.6431743113114728 0.33655611826074294
Ni 8.84031398155042 8.814933848977807 11.22314887824066 -0.24258332615700803 -1.2461442824899183 -0.08246556279508378
Ni 2.4319132682675217 6.41736652098518 0.825127420906082 -0.4275711132877346 -0.48220859812695666 -0.34292988299757066
Ni 4.219281517593165 6.203272228754899 4.911345317357138 0.21267496863334986 0.40340145802006655 0.2192917026189191
Ni 3.4975661825102113 3.647630814195889 4.790672902244592 -1.2216077308011348 0.31233632648142984 1.0869091788432634
Ni 4.520376329486305 8.54826773866143 6.230794959475852 0.5180510617468627 -0.4118174499979037 -0.7254889503509893
Ni 0.6836580102043253 1.069671435233353 12.87795375251548 -0.0452987239367994 -1.0032737641097949 0.26632360719674136
Ni 0.3525806177847347 7.529108284667701 7.062941458350295 0.6356486923583892 1.1423509047513358 -1.1587576282441334
Ni 2.0084420780133923 2.826491568469786 8.765511558212769 -0.06573179498017066 0.20439318824053185 -0.759247534858673
Ni 7.331961667919784 2.813590001078708 4.658883805151237 1.11639458989689 1.617522650636169 -0.03668732811870456
Ni 8.836525353064944 2.933419170482229 9.600915174100695 0.09488039151966886 0.501694217655394 -0.6261638927964056
Ni 6.037436971213413 1.0612481738433117 5.072729855998209 -0.819759476200801 -0.5592897566816756 0.01211992319198558
Ni 7.230882531239291 0.9493548937188356 -0.07405021506068121 -0.45326903227447096 -0.20021283161059714 1.6646545711269651
Ni 3.4230902065299245 3.410850729553784 2.1576800162504184 0.27114571117573305 0.06241584323306025 1.3134243957938154
Ni 1.2712227923806465 1.5944148718723328 10.560934321350132 -0.313210501556267 -0.33882794501405517 1.341852055006889
P 5.9284219452538744 6.91737352406607 0.9740177616752661 0.2392087532578203 -0.32069729685161547 0.35597334644509016
Ni 8.123711455782818 0.6499254231332687 3.7933734667840566 0.7010202757856637 -0.2088720499474919 0.8776941437340562
P 8.671940710751672 0.702954267519677 1.575194938868703 0.5770424526794061 -0.2563063321700554 0.3222129621651934
Ni 7.982906894206062 4.037261827686534 7.000788640218037 1.738182208002471 1.4298714577406666 -0.801218222863504
P 2.9649144436928085 7.227323795259001 7.322091922887109 -0.40299470949995114 1.3014170869202941 -0.6262819064315085
P 2.895137470518538 0.947359426773815 11.940505451425278 -0.38452107617579584 0.0871863653095208 0.9591767737905803
P 3.3326872777903023 2.7726231566544355 7.030425462416687 0.3661705986930662 -0.5648001449769434 -1.4574761068318125
Ni 8.4451747436355 5.258193335632537 0.45625753977383776 -0.15147654274715847 0.30569105325077034 -1.330013153390432
Ni 3.483147324584901 0.9307152093982971 2.531068664464613 0.9745861663671151 0.5894094588851914 -0.2569393377683639
Ni 8.477516021265167 4.846648968547493 2.6301127926891934 -0.2427594467235561 -0.5965360426276436 1.0734219429901062
Ni 0.7194329622914604 5.312889360466559 8.076755451813423 -0.12598636889585402 0.4298362551728274 -0.832199758846683
Ni 2.029141599180404 7.955981883998594 11.698165646437737 -0.5723234499371821 0.2478628293883925 0.478708298283182
Ni 8.530363710357488 7.258524806062942 2.193346459075106 0.10588137061586282 -0.10283281359752612 0.04034832191005955
Ni 0.20337026664833083 6.412014623464433 12.227124392051818 -1.199286441596115 -0.8167006347698192 -0.652515900427373
Ni 7.608467177458153 7.6537192181791065 13.323090932028428 -1.2234846361088736 -0.4444609470645378 -0.14201976820963286
Ni 4.3507064649583045 3.5478482712446486 8.839077159872515 1.0114938380267418 0.7159938663763604 -0.07140699098807701
Ni 6.04057270498416 1.3348202550154984 9.53489924231128 0.7249580175481837 0.14182307881779446 1.4919486866873852
Ni 3.7637081379147634 1.5249229654044938 9.952015284152028 -0.3882350346922733 0.5077270541130352 -0.21102843416886236
Ni 4.122597925611842 7.857422369174947 1.7099717189594643 0.19085195922098744 -1.4173172752247396 3.4327765041116622
Ni 0.5333000356820292 7.876733339610631 0.31825950590040014 1.6939949719622953 1.995054439978325 1.2956351901311947
Ni 2.161863140274796 5.404772796939583 12.143437083173712 0.8398408203317084 0.6825042192593471 -0.8887491159966372
Ni 0.1308961946032097 7.4942933636822255 4.362830076111831 0.8752834774100345 1.9746995304710575 -0.18131728025767485
Ni 5.586958009449949 3.4826875395745276 11.12624550902438 0.5133366869903287 0.769250668817972 -0.6656398394038406
Ni 4.0956453283037515 8.601345320258938 10.873838251449705 0.16767680665610477 0.38003064450461005 0.13077581986469733
Ni 5.043813976695825 9.123900180248539 0.24921726917270628 1.3042632981198377 0.8017622682924321 -0.3248861381219824
Ni 4.460310015731121 5.591868513360737 2.052014983876461 -0.5460503751732659 0.19583167182376598 0.599268096846826
Ni 5.153932486680259 2.5366798807312105 0.7432130430279739 -0.5263341276912612 -0.8856465658119134 0.08025852784143596
Ni 8.322605255570155 5.590066156120073 4.99526067960039 -1.3199994779081718 -0.18417351875954732 0.8194637993372532
Ni 3.093405962691765 3.4421345016595915 11.428099885754657 0.33623395903463377 -1.0755526161798639 -0.8958258203377603
Ni 5.31194220334519 1.536785418672128 7.313975797883997 -0.6294603041594902 0.798860778374921 -0.45320064093038076
Ni 7.6785843915401 6.5274942266698215 10.488485077695572 -0.1469586002721469 1.272094169586461 0.5350766497705817
Ni 8.060766887862696 1.7756529272613284 11.539027617357348 -0.5692232137453036 1.5363565233787992 -1.4960495962296365
P 7.0485042090245695 2.7992814915558872 8.338489908108535 -1.1782591886121707 -0.08542747363688513 0.04491614378640007
Ni 5.785483981228985 4.032857087287157 6.609594357692121 -2.0217980266207567 -0.6145674462080577 -0.042679541146397465
P 1.8275534592322804 7.369185862359617 2.6181878086601484 -0.737997110120329 1.2797534859039315 0.603624831153625
Ni 6.588305392141811 4.9768600834852466 9.172641069628206 -0.4405826950560541 -2.1056908087806705 -0.060069454488070745
P 7.159680224532863 8.658560966949805 9.560242592083062 0.3287818736319628 -0.766967272100434 0.872731400412142
P 6.327303833153234 5.959006844143914 5.846236294219646 -0.80753233800699 -0.5696657005993608 -0.32033040043049993
P 4.923515826581721 2.469643226218765 3.6267391028945415 0.26148016306151095 -1.5026719866421603 -0.3802003373132549
Ni 2.7528248141077563 8.912031247468466 0.48271356927072456 -2.180875778753941 1.4305072915524526 -1.6781541482752969
Ni 6.276120565798464 8.697881781036942 11.730452669436177 0.6771540106910273 -0.4431381144880562 -1.804356232726383
Ni 6.354173669159456 4.518003838832779 1.3553993125097918 0.358604356310034 0.3452976118987989 0.19709151237279604
Ni 3.196029977007113 5.118299148376319 6.896415603723229 0.6315842924810285 -0.6151202333877342 0.7817367171001246
Ni 2.647101848822491 8.095784114252737 4.92166749084002 -0.9376967495399334 -0.3478715432735622 -0.9813725931613292
Ni 0.7671660029283878 1.8558210416700385 4.978423352520516 -0.5738663689442697 -0.4543175281436434 1.345437201254986
Ni 2.2750989926295624 0.32592044374324214 7.0308291536557945 -0.2876984733280916 -0.14667269360061194 0.45719613524301905
Ni 0.042755408114624575 8.94391274008776 8.750289915659346 -1.108502074522691 1.0157032481223993 0.46417616610527795
Ni 4.126303792795452 6.980879029698847 12.645209660694434 -0.012373691074004496 0.014055192541485472 0.08376088456773963
Ni 1.4239909599273197 6.0966940633503395 5.6574485689603184 1.0878252628996299 -1.4020606061759853 -0.4854438172348027
Ni 7.133582827344068 7.8386539450515045 5.318501496303177 -0.42405410127341164 0.10517534568777372 -2.255967674792773
Ni 0.671279678155052 6.749110601669812 10.065191364455448 0.4812650032667647 0.2903330827374613 -1.3145831919886068
Ni 6.803107753288066 8.588287425964333 7.384810276582126 0.5346681014782534 1.7154040337656908 0.9586610104964266
Ni 7.635980712478899 6.44715139395717 7.681981283196739 0.3748017920055029 -0.8067355531373074 0.049337927003179544
Ni 2.3649593750569444 5.427513763552653 3.2757465825356364 -0.5313313237955365 -0.6078987759386305 0.6450095647479988
Ni 1.3373582682727596 4.2548964644966905 1.1222533685896783 0.5894035453479204 0.922492016775037 -0.3379108325164245
Ni 3.111282403895084 1.219313064709487 4.989782800986801 1.1895543019100159 0.5287062274678636 0.006429557675427637
Ni 2.196190689149276 9.06545230972987 9.439664892682654 0.5186964086403454 -1.3750725076229156 -0.5945130986603439
Ni 5.05370855011906 1.5405556557571902 12.121688332613028 -0.4617071357394952 -0.30328835734654863 -0.9499367432495511
Ni 5.506688742338956 4.496927293957261 3.993856283567242 1.363766595691793 -0.6590040792548779 -0.3031909125367359
Ni 5.253393180124238 6.345557298065059 7.703784288388648 -1.4323386883342364 0.03912293414339069 -1.1660276795429854
Ni 3.9231339924116435 4.447482013941703 13.435189276267531 -0.09453046437941784 0.27349569946514835 0.16091223423876158
Ni 7.991394525497555 4.270142935440674 11.170605566825207 -0.9895777546799408 0.9960458789027878 1.422632516790066
Ni 0.5872162651384583 2.663801240399254 2.8139201267161558 0.1556147332852481 -0.22593414763610123 -0.41131402799892386
Ni 5.476398105855556 7.011859343697808 9.879055679135954 -0.16531036330645724 -0.5761237975198787 1.5613715573658982
P 4.342825749880504 5.162732771778806 10.522213066916526 0.2833314546086475 0.3518235859427747 0.3594294233144907
Ni 2.9316352046419802 6.678110600367948 9.467080033711179 0.9970072143747926 -0.2891231215897601 -0.03461013387470168
P 6.860838359190553 3.396900852339054 12.987993179478131 0.09112709512482371 0.01649388388996514 -0.48492856816128094
Ni 6.7082173228472 8.922900565113695 2.254247742409128 -0.8593153841165524 -0.8192488551129699 -1.3406505784996199
P 8.499144308153133 0.17472933878214958 6.018966487776693 1.2537609184949117 0.7772874230795194 0.34047885035391684
P 0.5752066806675045 4.26910382131723 4.304082425766398 1.5147929382754106 -1.2050536830971956 0.44619078527145095
P 1.3072055672924705 4.5478898645070505 9.905004105981387 -0.09768212263452208 -0.09052288588192152 2.3672856430431746
Ni 0.7801806774320178 3.5097964637861447 12.166519210264477 -0.03838219932262422 -0.2604193258971644 0.03065937675706978
