# total energy = -340859.31395726197 ev
CRYSTAL
PRIMVEC
9.37246119287720 0.00000000000000 0.00000000000000
0.00000000000000 9.37246119287720 0.00000000000000
0.00000000000000 0.00000000000000 13.71754433867470
PRIMCOORD
 96 1
Ni 6.506025205288443 6.348774050094096 11.39927945124651 -0.3196760546759527 0.46329222083842786 -0.574160760256237
Ni 3.577468466902056 4.81292756664032 1.033378525041586 1.1635100553274542 -0.6506798756598987 1.3328490801773305
Ni 3.6757199783993952 4.9450980154751445 7.2504085732886585 -0.19520740797620573 -1.1531716495159239 0.5544411703401225
Ni 7.9918133730971475 6.413950145768281 4.029377620237336 0.4956251286431786 -2.8498652513563045 2.446230851389826
Ni 1.1952231235045447 2.894450351823494 12.127598420629303 0.24296410653519446 0.7669341048696534 0.9262864508204628
Ni 6.208187131038474 2.199004353100414 2.353299434010086 0.13863105424305802 -1.716582370344508 1.129968471926583
Ni 7.789246367660537 8.201887720011328 11.000688355586139 -0.8527441586569379 2.2501004173787185 0.31303823764446087
Ni 5.127167448113446 0.8488057079979682 5.026931786565168 1.5315400758267623 1.162159711947147 -1.1807174203446762
Ni 6.246529870095577 2.637935459314606 6.890816288974316 0.4238728385005409 0.08225576077712285 0.49936068442621107
Ni 2.7883447177815803 2.766797429320989 10.051421109723277 0.5466275878329747 0.6620462085153115 -0.12689268276020726
Ni 1.812118524320613 2.8302302471988856 0.618957342295551 0.627498552447429 0.6072089489604575 -1.3885191200461249
Ni 1.059791058147629 4.332204655621527 10.323110954275029 1.236914022140902 0.24820324344694672 -2.0217939128556983
Ni 8.18870066700391 2.1143054206000373 11.862233112942802 0.021434772835008244 0.33869579031156505 -0.4453073542252331
Ni 3.9586839566132803 0.9054228720400481 9.31843746636622 2.16217537413096 0.9291635152579417 0.28682404114293825
Ni 2.224188156533911 0.6045734259839067 5.16931915543083 1.6193303932688694 1.1814897797343267 -0.3665752903306525
Ni 5.072572861213512 3.2149885272703114 13.50949004351752 0.8498460111735364 0.3267285906473599 0.027208184983675724
Ni 0.942953955951137 5.083557385822392 4.714720105710952 0.303129206060865 0.9578102324603568 0.04527584111866396
Ni 8.360975877614669 1.0182897996424094 9.651732498848146 1.2554712163177992 -0.3868139859750306 0.6103739769520005
Ni 2.2275528701299754 6.6300228678955015 11.007918272210105 -1.5629034206293921 -2.686495813826302 -1.1148082192463769
Ni 1.5914907860159908 8.15967415444956 0.39145865263361673 0.023594499490488398 -1.2779259457768894 1.2286628378757032
Ni 5.6352766909642735 6.084583111804771 7.403838576023074 1.2697058718599423 0.6554037634981293 -1.5660175407783417
Ni 4.126104232285985 1.7162195006021383 6.90991080432045 -0.3730799242183897 3.184305865935942 -0.22387649377612412
Ni 0.5977755798245039 8.049819535899497 8.59173712104482 -0.5262012016578228 -0.4457395566666452 0.6519145193979482
Ni 3.353719698994399 4.480608207376641 12.014566537708582 -0.5071133317884362 -0.37716643558293755 -0.17481058948740863
P 5.817674159747038 0.21590495507048063 10.799218865364288 -0.49748789288353035 -0.013460239269963915 -0.16204197696783063
P 5.458296504795787 4.61936749648454 11.680077453660813 0.09197813027120934 -1.776333779371528 0.5877364420581427
P 4.536749250386186 3.4323359041303028 8.67169639988077 -0.4058540333256172 -1.383661020622875 -1.8113691737091062
P 6.106514671177448 6.937758261246988 0.6900624569693763 -3.7847782675035138 -0.8221858262541067 -0.2661356595556513
P 4.5640231126829764 0.2641018999072559 2.5703525155861877 -0.2148609205410751 0.08526112326234994 0.7498365259574182
P 2.899511480909496 3.7804384881732926 5.619007972691158 -2.087619038880624 0.5789712942710029 0.495275972833876
P 1.9875053920731365 4.2364743362059185 2.8248542034141986 -0.7067463796361635 -1.354530678915822 -1.2086506564198345
P 9.083517661870403 4.52159398051199 11.88003797761813 -1.399172743105229 0.425244522037087 1.2342680998776228
Ni 8.155222235346132 3.392184280048017 9.381030511714291 -0.3786499621069995 0.16935830812358574 1.4748457084585116
Ni 7.603577909894413 3.9264708072270023 3.510265107855088 0.08581776709676833 -0.33744931949897367 -2.15134948716005
Ni 5.980080168640091 0.45586339474525106 0.7051389981689012 -1.1182223871342483 0.6757589301157136 -0.09486316512848823
Ni 8.811538208265397 5.99527292835937 10.069939218701284 0.13690404424962227 0.16971260613921094 0.008066579058218365
Ni 8.796570387616608 2.5037311863841096 6.873957105641166 -0.665578390038286 1.3781809713449102 1.503394466630482
Ni 0.6525388710273038 -0.024666443571372366 6.5917054344838295 -1.4479460558541903 -0.2811437029287093 0.8790982231704345
Ni 1.8977078406416756 6.410173043876321 2.2732033172395902 -1.5039099728143197 0.32060139470369947 -0.43822010836114855
Ni 3.3962706731619003 5.500781871734396 3.6080845488878626 2.0077636600148776 -0.33865362421972 1.8560860570005067
Ni 1.1004394226772445 4.642779904737936 7.765748670009581 0.10637116576808776 -0.004857070981985184 0.6840679642020412
Ni 2.480384385359606 8.751292027219428 9.778112641110132 -0.820177023354194 -0.9370295482695798 -1.0755114785292832
Ni 3.7871679153654214 2.2413866229650488 1.9120477063853492 0.20530310164931095 0.02715264915539195 -0.01917734425939923
Ni 3.7048402155664495 -0.07585414079952425 0.4663474299222924 -0.23747068752079104 0.4903847061798457 0.6715541480057466
Ni 7.669635016928015 4.791202201415591 7.724596067063619 0.27838516634696575 1.2078788112508165 -1.6702125248307171
Ni 2.2172712801163743 9.542383993206682 2.543479794631769 1.5869519769381635 -2.2197079211297903 0.5171524611919932
Ni 6.109607583396672 7.920245258836566 2.73109491260375 -0.2905922499361189 0.27300101921691694 1.3626162841374339
Ni 0.14900057753803725 6.551556622139924 6.874300137723661 -0.6177234753385361 0.3821533472745677 -1.523646017790666
Ni 6.285210017758414 4.59361197291355 5.154532223284559 -1.5328924760895988 -0.09427901049024408 1.7240671087573274
Ni 7.6421924503283565 1.7459489477517673 4.922184222161333 -1.6595275343130451 -0.6675753658636567 -0.14403988396345518
Ni 6.723756853060521 7.321991683487273 5.593164347984226 -2.707001904199454 -0.3112911730463671 -0.49923418615067566
Ni 4.356985443220397 1.3294836312026637 12.0868985075627 0.05264873654396739 -0.2746933193176753 -0.3831856451938239
Ni 4.861008292957343 5.46838127312271 9.39532445239774 -0.3231272464493467 -0.7016543098252368 1.5981270197183766
Ni 1.190180739341083 1.1457833903033177 10.767326254153458 -0.03883445636869441 -1.3162400108657395 -0.8527176762943766
Ni 2.847494320858916 8.399581045587343 12.085430780127759 0.5322242679234511 1.5474786014338897 1.4506508563798628
Ni 4.01743991631726 7.397561838710304 1.9821031053968925 -0.4084277075900643 -0.12851967684066898 -0.834723296599485
P 5.0629942057951896 6.217700179227904 4.709452782477001 -0.7387915809971664 1.9316656913090346 0.6183199712719544
P 5.549724864488293 4.021985560033392 2.0478509212085716 -1.0676475024001741 2.097141376548762 -0.8601116547656025
P 2.373097821197626 1.0746838991062546 12.983903034889698 -1.2984652033808217 0.666156374028943 -0.06291412302571746
P 1.0541675813854041 7.432277435255773 4.701263125818947 -0.0662573284663375 0.40485156020303176 0.5588277294435924
P 8.32972809173924 4.288650828098095 5.49992616602041 1.051479891501376 0.88138907608714 1.5393336037292522
P 9.444348048318561 6.572588425230645 1.019951537025647 -0.37949045573042384 -0.6942544178167398 -1.1639011201182858
P 0.5733734396609561 2.3772404490791312 8.952892731899063 1.7416465124019878 0.4239242605637667 -0.07624220759319127
P 3.6260927959727605 6.340863692781899 13.144439237759311 -0.42955857603140857 1.4165652275500635 -0.6038742281602696
Ni 0.36833304169509395 2.8002196262111454 4.746764550794364 1.1783846584464415 -0.5622724934590833 -0.47710752945496543
Ni 6.546786039353304 0.4347744196407808 8.589116580873625 -3.777920878262049 -0.31063168508549727 2.011274501381614
Ni 1.7004269033615569 5.4149863612653855 13.680644307760344 -1.9596948295321086 -0.06261433239711152 -0.9952534649084794
Ni -0.06450221570884633 4.363874202254123 1.8192753357466713 0.8452388514188282 0.4131076295642369 -0.15357482003708392
Ni 2.532579622174323 6.640070146377345 6.038353446588648 0.25093452633518076 0.2501858210946143 0.08171222956882702
Ni 4.775896972161069 8.210979007443592 8.129880974563292 1.1864828620735437 -1.6604518458995272 0.3561147571189609
Ni 4.322063652526982 7.506835364661605 10.434675109760807 1.9373930807111153 0.8492045209347955 0.36310275840101985
Ni 5.317606488666191 8.0596887376172 12.818427544930595 -0.5193638670210152 0.052236845817529395 -1.2970104732121663
Ni 1.379232655625813 2.1587027696378023 2.630682111537463 0.4110975411127436 1.4531319709305037 2.1546422989787084
Ni 7.427900495842508 6.1124943014679465 1.9472188045485574 1.4865527124827946 -2.331280428593159 -0.22386440959126608
Ni 7.569490268254059 0.3376804071103332 2.4366890336709917 1.4288152485620103 -0.07864027551172263 0.04457958638258774
Ni 0.31081330963267684 0.6503569620435605 1.206410093276864 -0.5251375362799988 0.28661449623529345 -0.4753386104800007
Ni 3.9479618609199716 8.412636884136976 5.029976899231913 -0.23855595016516978 -2.4065610436040297 -0.16700729139290593
Ni 1.6113697763704555 2.493618300673375 6.882338897755262 1.868081538799486 -0.9578133177841505 0.05887620551091796
Ni 7.644310626575461 8.139326541031577 0.2718285569785529 2.5170336331350005 -0.017111205758989886 0.27200188852844126
Ni 5.544560638328316 2.8415053181071466 10.34442768018837 0.8210283156108955 -0.8029308346792365 1.3931193378222975
Ni 4.27952205082075 3.0196851793182415 4.394813634153757 1.6071824450524255 -0.45243856595337567 -1.1671342823436028
Ni 0.06601493095788481 0.3397967088651838 4.219599219688609 1.048042326574737 -0.18903444639627445 -0.752447224107388
Ni 9.262287988141532 7.6747804981654495 2.8280502127073968 1.3261909514308643 2.3208800591954417 -1.0795825632748632
Ni 9.010646775493239 6.782531557687041 12.56986612305575 1.3504842767605902 -0.8083918577938078 -0.5867630224012798
Ni 0.22797668518672337 -0.06840115959732224 12.616972113400653 -0.15975883736060872 0.5707152249097978 -0.14727587440224957
Ni 7.29841994339228 5.291044933425949 13.354193983744173 -0.2817119167273535 -0.6834287879561456 -0.26670670156777293
Ni 7.711230000045937 3.0799782226705625 0.3816260035148665 -0.06730788121803892 -1.055926357308504 0.8204418469798063
Ni 7.450038249363133 7.802358440977792 7.509669596949765 1.371981784512734 1.2518230780422506 1.8331518168018366
P 7.059187869465963 6.9973389975427605 9.413417988880196 -1.8890447713147145 -1.014869182256878 -1.3760335859846045
P 7.689260950828179 0.7752899962854024 7.070982174728603 1.4277117310851861 -0.8634790285759387 -2.7114784519135693
P 2.5878021639793714 5.971654325958025 8.821396163029577 -0.7641588561173613 0.5443894425310754 0.797199331512098
P 8.686228401080486 2.181946473588332 2.715635037738267 -1.3649030232890818 0.16108064149582582 0.0646609305134951
P 3.318310540314923 9.359302334751181 7.3954436624632 -3.2932720461247156 -1.3591730627838399 -0.9488859333875336
P 7.636878264788055 8.574714856885567 4.2629599745098705 -0.062014494029583526 1.145242367366518 -0.0960777542618797
P 0.5027941200643988 8.14792108801651 10.859795894293104 1.8444387025695654 -0.17304115629181166 -1.2491617291600037
P 7.872136415135731 0.7948643816485801 13.596240607789984 0.3701594081374851 2.3248089619362027 -0.560332596123893
