# total energy = -340864.0883551084 ev
CRYSTAL
PRIMVEC
9.31023423702383 0.00000000000000 0.00000000000000
0.00000000000000 9.31023423702383 0.00000000000000
0.00000000000000 0.00000000000000 13.62646889878642
PRIMCOORD
 96 1
Ni 7.055584142589647 3.0168696904672205 3.8100830292991668 0.7997516656203065 -0.9079128334092815 -0.5946185138899566
Ni 8.347556041183163 1.3884631665065454 12.904183929042098 -0.2990756048167817 0.19572008594656615 -0.5145137380175655
Ni 5.6900055319042355 2.4232677742573654 12.96014867822697 -0.6787938602872955 0.5280364550943487 0.23007156684324248
Ni 6.912560323824696 4.4922438938290465 7.578633103546228 0.02441596695051924 3.2873201994166545 1.7384796846382318
Ni 2.6072752442528415 1.711910015075299 2.285213758542585 1.8501138985774719 -2.5231677710571967 0.7265173916155037
Ni 3.2300833653491474 1.8507162977186178 12.082494307690006 -0.18523589858579068 -0.7650163190216502 -0.08179861863504623
Ni 3.4768790552216466 3.010203562734132 0.8234054975269641 1.5081142407036543 -0.1508283676401983 -1.4950658921601285
Ni 1.8925285597986465 4.135512957766172 12.356018749111282 0.23424421016369334 -0.1381309746781879 -0.8245095892912767
Ni 4.176589711339337 5.269732246988945 0.8443684209959893 -0.34769619403796254 0.34701973679622816 0.11249476216732239
Ni 0.3714811402074733 8.897716404316775 5.773085407359843 -0.4179333330876544 -0.0058204633365190085 0.6132659537878147
Ni 2.0832673291670596 5.303286331276726 7.48079557575861 -1.6226386317064958 -0.2545667237711293 0.2808832501784711
Ni 5.994291918357492 3.2882816397339742 6.159232028580111 -1.2338248416926172 -2.1235471202358007 -2.9098863691049437
Ni 5.8982847826261935 0.6282434358596816 8.118282212195682 -0.8059912187721151 -1.6145548262570968 -1.9001704489142308
Ni 1.5469978355554714 9.00098552277406 12.87769445051391 2.0194161566521416 0.481159588037152 0.05759553902628146
Ni 4.111678758050101 8.634786078464607 8.966625172199011 -0.34871589355172844 -0.5037037918862551 0.0927926557527047
Ni 4.072901632340166 9.225269066195992 4.258679908892672 0.2695302870594971 -0.4808132604413268 -1.175608895473517
Ni 2.0189429206364613 8.514693366692109 1.6534491920842245 -0.6517648811939614 1.0520074818700722 -1.7784433695153627
Ni 0.7335784953001702 6.649620687738263 9.658972364037231 2.2894002434196055 0.018581876767245417 -1.5003330540963387
Ni 7.292250297582817 2.8340166895204915 11.158865069333539 -1.7726198208550503 -0.5873538619077433 -0.73702343335315
Ni 0.8108450604812801 4.523098010180241 5.577136630897245 2.785206634835655 4.726228570548609 0.7884866342294485
Ni 4.368287434836952 8.206291856694124 2.00427650860024 0.12633783869800178 0.5311438903750788 -0.03695318018558152
Ni 4.651802688647022 6.120901794114852 10.66659574285404 0.14499736278071804 1.0031094706177885 0.5889011517902051
Ni 9.145135879884968 7.045631502161336 1.3980480526814263 -0.15049206734670212 -0.37501467934725735 1.2338947756986038
Ni 1.0545423043906907 2.5093874412001984 5.206401240454325 -0.31548772762621796 -5.662146116700932 -1.1842210626225607
P 4.148742800655444 4.08231427918116 12.627757487600705 -0.13624995560539116 -0.6376572381479857 0.6875860046576286
P 2.606865593945222 5.055550307743553 9.927891032568061 -1.5180703234751016 2.7819971267594217 -0.7236701519746956
P 7.981440388982086 0.49079551639549324 6.858433414883555 -1.5689966780113236 1.9261380766225862 -2.1102252063159144
P 7.861068370181664 5.201804777798143 1.4870017549342485 0.34227939389776535 0.7104443973130409 0.2736520225373545
P 6.578620841240313 0.9393933270124247 0.6746819533455364 0.7952751179061917 0.21969870824935064 0.1252955134764165
P 0.7567395650789471 2.073808131154744 2.809900389706219 -3.2484577180235026 0.4658155014809139 0.8019389030796125
P 5.009576370947476 5.632067944078803 6.562030934805131 0.929488245587212 0.5609267780644661 0.8678632736865635
P 5.790397787973919 3.0847785391894935 9.410057664846224 1.5441227975877794 0.40971017384691366 -1.3542360304935386
Ni 7.710559123068384 0.622724328987929 9.70601139163312 -0.2762352098834984 -0.07833739955932315 0.5895482984559008
Ni 3.7411500548078442 6.403541885904098 8.414140043569656 0.8224529638725642 0.1241698845124055 -0.1269171082402395
Ni 5.3455827255384865 4.397000197307405 4.1342160421331835 -2.2682058687301776 0.09988350116121507 -0.6288931188021104
Ni 2.667577631581353 0.34536686412012707 6.0134421392152975 -0.3192839614438565 0.7259432642795884 0.4922726672311781
Ni 2.0411012781849958 6.606039481148058 2.8069434593039437 -1.3587010082434277 0.46384192269431085 -0.660385790093753
Ni 6.055758084969014 7.226827281409056 8.550472596969007 0.37904154111846333 -0.38564516247791003 -0.13588408762554016
Ni 6.897226367991739 5.1243715594237065 10.198362648174143 -1.3856831932592264 -0.8136518206411664 0.08598077503719385
Ni 7.314799684970443 2.253933233462095 7.922960014499056 1.4321908499024625 1.3840456576558036 0.3993198317515252
Ni 1.8190335705179193 8.829221010835864 3.883693465484769 -0.7645424647090252 0.6632641400828125 0.2538964371769821
Ni 4.078729838989486 3.769667302358752 10.515886325704082 0.8328055107514818 -1.3473632146331054 0.3209811466406214
Ni 3.5413338070319424 7.390314995086478 13.494851259411913 -0.23863848257664708 0.2913988049978143 1.4887319795223009
Ni 1.9602791345384298 3.9410780253949143 3.7054592717564545 2.1720370974163887 -0.9718636252296295 -2.2565209761930816
Ni 6.76538414057796 8.109809899015358 1.2299005667548273 0.4834941497075996 -0.48124289177957763 -0.6168310454312538
Ni 3.19480688772251 1.5768743773089364 8.178279223840331 0.14017448747077796 -0.9637453669978693 -0.2554126167111924
Ni 6.287312921351199 0.5302951162843219 2.767671960154585 -0.32165271878634927 0.6826451157125856 -0.7066389075240217
Ni 9.63395110945249 5.144565457542519 2.9881615831138983 -3.878472609134882 0.4896084901354536 0.10017969224539522
Ni 1.8931430352600762 3.037715304984518 9.363564216978212 -1.1318224944161863 0.6931380448241096 1.3090270380570683
Ni 6.240026241523885 0.37001757138115837 12.225327266652545 0.08489936904755702 -0.9617568758129306 -0.9338701767049917
Ni 6.086509788743303 0.6981139509413983 4.9995650760433 1.0329463514735628 0.9017776670458211 2.601365302604546
Ni 8.595319995419128 8.309523734214356 7.955200424732174 0.7210100886440293 -2.3321839142440353 1.5700953103921411
Ni 6.904143872049959 7.58460096370951 6.200547124150438 0.3721389004613591 0.3233396195704689 -0.5425068807963819
Ni 8.974833074726233 6.327626235714708 6.453168227601978 -1.3239980575446038 -0.28398605747351086 1.5459948177995118
Ni 3.2107925599539526 6.8774421201805485 4.770040801754114 0.36715970207921284 2.6912981203109525 0.45442680002799807
Ni 4.156507536031694 3.7397442094339666 7.745435260621665 0.05244279118074839 0.8482107895629586 0.384495365144183
P 8.921680947312542 8.38683591954336 13.398266889156243 -1.6595542737859224 0.8536234759380977 -1.4216583258022548
P 5.997001196528341 8.141613659261491 10.7569115323797 -0.9075374523477338 -0.5197752435268209 -1.4470070889796887
P 3.385284970531529 0.45186663386705345 0.23120570259728096 -0.01080917480036203 0.06586574945487365 0.6751418653570049
P 2.730105164898982 0.5333795968960149 10.143080339160829 -0.13056756050863322 1.1061382022762047 1.1375282865517118
P 1.8243683347512427 3.076538981865774 7.033437888345656 0.7274427316432504 0.3236630643481587 2.0226714303646456
P 8.310622341857519 3.986316453684128 5.291634573095217 -4.3662512451504485 -0.8240637600031098 -0.008531177399462726
P 1.3193998487355254 6.6233285861764735 13.611316703915122 1.774834312007866 -1.2191369006631392 0.6615466431710736
P 5.576085505448829 6.718562972463851 13.506828875792664 0.014313074188562447 0.1253407648920551 0.3931445561787487
Ni 3.683286948856524 2.3702739208261643 4.360892315760984 0.487132003570503 -0.10097776266665835 0.8410890909165126
Ni 2.207856884089113 6.799413046813209 11.751888819995594 -0.8051756648493552 -1.2094047609770398 -2.3198773289625403
Ni 8.628473739633552 7.67897880844459 3.595398337403514 -0.27815582394497906 0.3731976807431766 0.8506661930819867
Ni 7.9561910336578725 7.438141668501109 10.04708158264037 -0.8443744465360038 0.9985627317873706 1.810866008820443
Ni 3.3587601131131364 4.8582105822819 5.463069502740467 0.014669943307348927 -2.638861242667475 0.48628405374791095
Ni 9.053169385824285 0.5350349565481701 1.3777722245010908 -0.8686009231835363 -0.6603783338945852 1.5621140919588776
Ni 6.265359388956474 4.7121050759755345 12.38023280638533 -0.7670822004117435 0.49861686428165103 0.829168942440159
Ni 0.41346657264481396 1.5257984321361382 8.009311506275065 0.20715301037385614 -0.6100785571987687 -0.29104399276155685
Ni 4.937124127904328 1.246388991636531 10.08789299453701 0.0597588652261874 0.33320597084158743 1.778669112372924
Ni 9.285031459937185 5.095612245781933 10.904867913257766 -0.8217130003827462 -0.9010446455345387 1.0749851737121678
Ni 1.4698997856145413 8.588942484948227 8.984353720284691 0.14236326759198062 1.3891444123349495 -0.5121897178700792
Ni 7.139366940732194 5.776637261731594 4.552017459851358 0.9966603725583352 0.19523054790465733 0.15707434854991015
Ni 8.73497350938048 3.916471076234924 13.010498425127171 -0.22039264899258174 0.6123010187713842 -0.3204435289695965
Ni 0.06852797930083501 9.15196959183481 11.20802962341192 -0.41463923571741496 -0.479545963693129 -0.8418637642990082
Ni 8.437343940426048 3.1416826910116122 1.4811018594810947 1.1169427490908763 -1.352323386851858 1.6279734136558477
Ni 1.6418225715352288 4.477766479548387 1.106451515530125 -0.3413802791222637 0.9826866839870625 0.002889405732653088
Ni 4.782862856382619 8.346643638225283 6.51026323922651 -1.5294911637175337 -0.2977597142188355 0.4055665839921854
Ni 5.606660314772101 6.2173837517936175 2.5144103125856754 1.192199967062979 0.15260345726275007 0.24574758281760256
Ni 7.725399636485344 6.465510805165882 13.094968318558406 0.48177048214827345 -0.05059288245620319 -0.2706955110121919
Ni 9.184955751832481 3.9630781089609592 7.98062760553083 0.6648623378078679 -0.054676565607273575 -0.39248455399724663
Ni 1.0646718392700207 2.116681759940879 13.880330336835446 1.498380301245342 0.5154578470983897 -0.11018256909437797
Ni 3.8685140595405962 8.509498255972746 11.575849048483326 0.759065500754854 1.5560372896371784 -1.125180049399004
Ni 6.2094886731376695 3.875338461256174 1.1989859338809161 -1.0937467705903872 0.16695715488126087 0.5559036138182619
Ni 8.349464639207302 0.9566265706352554 4.085406207980265 1.399018991136184 -0.1274477839327289 -0.15844526075550777
P 0.0037082663073870776 2.9734374476252405 11.108883076686771 2.189425468096165 -0.9634460905898955 0.022263953604522945
P 8.255319550328823 5.754441663246003 8.805233192254434 0.9815865089443481 0.5266452311737769 -1.6427513432959708
P 3.6094009297367053 5.385207082566454 3.067154265727571 1.4387916430484318 -1.4229580184502848 0.44193355265699374
P 5.960411975870468 7.921072830013725 4.087245910270849 0.3362398725719048 0.01401714021469844 -0.4625224325519389
P 4.438281776034381 1.6691574193345973 6.383306091731099 1.0018393456561134 -0.5619575333218257 -0.20887333549907253
P 0.9424470838510463 6.926041543039099 4.957868260868146 0.7262219718622719 -0.2739291874581411 -2.1420256386559626
P 2.2316538428681274 7.802832854859781 7.068376404468507 0.8690390391622195 -0.6180163239886067 0.796155463628616
P 5.061601960015212 2.5474197481690064 2.637797916264234 -0.0064467840666082524 -0.18053283668316653 0.2654962261994395
