# total energy = -340868.2202343575 ev
CRYSTAL
PRIMVEC
9.31534768984357 0.00000000000000 0.00000000000000
0.00000000000000 9.31534768984357 0.00000000000000
0.00000000000000 0.00000000000000 13.63395295385933
PRIMCOORD
 96 1
Ni 7.874132998862154 2.037210650659256 12.473690259337042 0.13198089591639206 -1.1372444367627057 0.22183683763827602
Ni -0.09916094476850172 3.0767568776262495 10.88562096126938 1.8433683523235223 0.7908646475433219 -0.9554862123128707
Ni 3.555565749583806 2.791362570035517 1.5429001085883816 -0.40300705079512533 -0.06773751255628979 -0.0971373058746456
Ni 9.378412607406784 7.382012495036362 9.315684919041264 -0.48241531482112404 0.39145508429146775 -1.0342113342289154
Ni 9.007605876723078 4.422200492479279 3.6417923340660607 -0.7686991671898761 1.0000313459130972 0.5850491250339667
Ni 5.1337905881984565 6.484925880498296 4.009622811158513 0.3975563120931992 -0.2574147347428857 -0.4244281967833787
Ni 6.814419044117182 7.804351729215577 10.806938876892152 0.6728970351868863 -0.44788848468884795 2.136258911375515
Ni 0.5713298368830355 8.181949348375102 2.524707947419824 -0.36040515696419867 0.39916453712058353 -0.16331235903982197
Ni 3.245802492400837 1.2445583992246179 5.044207683938646 -0.03502742391777838 0.5490207706554996 0.7230602863048387
Ni 2.2904390626299604 8.340254367247605 4.262709629844125 1.470785422346209 -0.43739864090111763 -0.4227713779062461
Ni 8.014002944629523 6.942477128996569 3.3985630163202445 -0.18214877502003468 -1.3808652030452928 -3.0470423814643715
Ni 5.914118634621424 3.64232889809378 0.5628193352211596 -0.29229766266299984 -1.0155055302892961 -0.5780613808622239
Ni 2.950692277155401 2.541152330720732 12.0156574073625 -1.2241065859635885 0.565913175535464 -0.05158455694551115
Ni 1.2022480899555281 2.8995696489588436 5.2692096608331145 -0.7167723964135979 0.3166174703552869 0.8585198847984505
Ni 6.340864028264375 0.5605165812688656 13.27742497993448 0.23106221289128595 -0.36005137316920577 0.463806441470685
Ni 0.4581222793124949 8.924056523170796 7.21732366838268 -0.27798304581254063 1.5299210521661006 0.9657220311082659
Ni 7.666428691118231 3.133589813965025 5.452477016946564 -0.5749778568408936 -0.20715840969049484 -0.15990873267491168
Ni 9.086618655943779 8.116779175841735 11.568776889658535 0.6173750908601819 0.09364549067130325 0.4902260691147944
Ni 2.0028183869381024 1.5472326768052582 7.404054470772275 0.1749625416842406 0.6264991646486371 -0.6083672309346168
Ni 2.223769119116337 7.424825833081439 10.489281794065276 0.2878288282583688 -1.1014161142101868 0.3120211092338562
Ni 5.524001188148458 3.89034071535055 8.86358314894951 0.49957382887828156 2.198045862775324 -0.6293857421678128
Ni 9.123069611507395 5.097777453976902 6.366197116343918 -0.5937677358538871 -0.2235340228350408 -0.5261988876649776
Ni 8.230044488568035 3.9565635221744073 0.9515953716248288 0.2902238108531066 -0.3269929000523401 -0.25923816110486964
Ni -0.0647342142608453 5.849740266642851 12.521109105286707 -0.9883482531482141 -3.2768190427750143 -1.9315775024706023
P 6.733981016697853 8.58576967131985 4.246349084672548 0.40361948756814353 0.11022036431084888 -0.6927948025520778
P 8.872524019675286 1.3141440465694223 5.9867094131353635 2.188377486447625 1.8032835684874942 -0.33445784097081754
P 2.415013207468256 7.9484322121449065 12.680912032069925 -0.35328011588364316 -1.148733411238912 -0.4988109825703281
P 4.543383850753517 6.176364303169073 8.40571331555978 0.044216289505898045 -1.1961581803797785 1.4215189720109132
P 1.938356180830198 3.8002985644489597 13.702122860152208 0.9292486187725802 -0.5359348840058189 -0.6249207644179237
P 1.9733818881951866 2.0817845894202853 9.99717805786535 0.22463779742218087 0.3643096342249274 -0.37819179152365834
P 0.531895175450002 6.599746856291076 4.5148285839033475 0.1762306097633868 -0.7765032366153272 -1.6672472715548063
P 7.281117964060248 7.897225745819018 13.016130408387355 0.2832872316342734 0.06448172462315346 -0.37203734188648835
Ni 0.3877923356861845 7.475687631542299 0.1439006967186525 0.605418432718938 -0.0819135469463557 1.4376292473092145
Ni 5.6509693773465415 5.778924993401191 10.526161255623252 -2.178633262576667 -0.6809147632850402 0.28178442183650176
Ni 7.224834633235976 0.17959897218783044 6.390451487159402 -1.2650596313371827 -1.666327587954014 -0.15239314102415688
Ni 4.591087746342907 4.273872210997174 5.187868976221321 -0.2392460342536589 -0.6669048221591933 0.8549123699528501
Ni 4.237933599557247 2.1494140137473643 9.357977529149718 -1.1242202565888961 -1.5263832142161713 0.8829479359338277
Ni 4.333229606563585 -0.11464025804733188 2.4322698890889054 -0.7281924653250814 -0.9770477405337302 0.9125971262588283
Ni 2.48405856464626 5.2733251814485 3.4482995207785283 -0.6279515808244476 1.5192455747301254 0.9401876342825872
Ni 2.634920620703704 4.310788933945964 10.172878557039285 0.16465781732412285 -0.85651956653897 -0.8869478011218401
Ni 0.8617097185646566 1.07313737078565 11.762883584359724 -0.007731050095670555 -0.2598883930943589 -0.3373253923265997
Ni 4.735037814404388 4.261259230206697 2.945411406542313 0.06435754034046334 0.2745729916897271 -0.8047216080310721
Ni 6.865932916917285 6.634101858621416 8.68924548514459 -0.7114424995602522 -1.3696942740301379 1.0098231351925382
Ni 3.065345576689518 0.053716952531969786 11.305805555524786 1.2648827394396862 2.084111025727365 0.2051264668621306
Ni 6.835499675970099 2.9961325432528514 2.739483535605439 1.0042721234673222 0.7206303367071073 -0.09725043441374219
Ni 7.660960582016304 6.828792625623612 5.453935800396926 -1.3336471505985934 -0.10762380722826627 2.921668963562168
Ni 2.07548741437275 1.162434293870964 2.8003453598259584 1.697287012450006 -0.3126016643276745 1.2832746116833125
Ni 6.421264794292888 1.7731391739617306 7.94714948876614 -0.521676831424908 1.5619564833350907 -1.1285631069386242
Ni 5.122966154167043 1.8324034160511076 3.7226691143622226 -0.26388208763478427 -0.2364180778865606 0.6521191792095866
Ni 5.397228621252147 7.325198189392993 6.934105426015475 0.974983916026166 0.5790538266824802 -0.5911035587581627
Ni 3.4804654163985562 3.6141313405954234 7.349409709609041 0.7744244997094275 -0.4800581274428571 0.5648263702291886
Ni 5.150213546199646 8.066262045245901 0.4910473757703544 0.39156127085202885 -2.165586199584722 0.8504815878750062
Ni 6.547282818025219 5.805380580879002 13.03958086469603 0.09932145801015799 0.34147978081460545 -0.6147967886100444
Ni 4.780450134458728 8.486300388542363 5.0134772833997205 -1.0507466128797776 2.0501251557002242 0.10862448057863873
Ni 7.656368115598501 8.10034690249284 1.496435154243551 -1.0474154916240155 0.31874428689030265 -0.11432641605942247
Ni 6.320360947969071 5.850150141941803 1.8476871070281653 0.14163795939018187 -0.046507656643236035 0.1327216307371585
P 8.067305364188687 7.595417795574799 7.398587293205118 0.9379883126384232 0.665228720008351 -0.26907288780710437
P 6.725038282902537 4.8905016522273375 4.091876399845245 0.09972306432395082 -0.5301756129245385 0.4036110029277113
P 5.431453208714639 0.5721495874809395 11.218070816249343 -0.31943102854468214 -1.061524420221572 -0.9991872527452469
P 2.8114091982933513 8.809161024596389 6.398932179708627 -0.6958955529645886 -0.19518298249617352 -0.06524431382079086
P -0.31793654325798 5.824681981320559 1.450530052295698 0.3525812900444057 1.063500570111336 1.1286597804174883
P 0.9041131813107811 5.660266094354588 10.310022832068622 -0.27389087802103795 -0.7060532102238808 0.3986665144382424
P 7.833927958174045 4.036647566381005 12.427484271658367 -0.25266899252778424 1.5442004449032503 -0.33640699427738835
P 5.299845976360235 1.5135856409003807 1.473243664601031 1.2963926371225092 0.6930629686118 -0.012570894686475126
Ni 4.763570724420069 8.269960753477338 9.797372233439187 -1.0767535784665005 -0.042391577592333446 -1.6362621360272016
Ni 5.189878296720956 2.4234994892261033 12.161827322781715 1.3132791284652028 1.2187275810398623 -0.20209693600718745
Ni 2.333094039764078 6.050756154735693 8.369460776902246 0.18446045387234683 -0.07874311963817406 0.69697001697569
Ni 1.375681233498442 7.0263990964569905 6.349413654386605 -1.5741607387107663 0.7185210036735883 1.0516632111567759
Ni 9.070754618804797 1.9464325872890929 8.35919433219827 -0.9688886017617055 -1.8564452401121383 0.47670078093484997
Ni 7.983634911116261 1.0478648324661783 3.6495361826119423 -0.4750231361221109 0.5235799619848919 -0.15194036975745442
Ni 3.388019905789475 6.4784889752352095 5.7792147007147685 1.8919673442781477 -0.7810875135518999 -0.44501013469978845
Ni 2.0403312921399133 5.98634984071401 1.0255592323902567 -2.1140391807453653 0.22425161772735572 0.6536068194987066
Ni 0.11109297364185645 8.863525393793749 4.689412172887638 -0.8752914478298345 -0.3134452432748924 1.3554573044951495
Ni 8.917917709034219 0.16602185291004565 0.07265132827401119 0.001010186432069228 2.8919544672168707 -0.03170170197865508
Ni 6.875555671094953 9.156381294894949 9.072291651175865 0.7547259928392357 0.6120079130109976 -1.188400905031863
Ni 2.24834300635805 8.45341721114917 1.0264348750743815 2.147820648071185 1.2132233633921814 1.108326211066459
Ni 6.329154636201132 4.9607859506499015 6.700228717363927 0.6174743354422076 -0.1970110368438478 0.06911536674042291
Ni 3.9528560137884323 0.6605764570907506 -0.12344512469663699 -0.2667354979231793 0.203821632007778 0.16784649946474964
Ni 4.356722913471698 0.15189233351344603 7.686563815179248 1.0262974786984778 0.7360173606861388 -0.6100204502673235
Ni 7.045122945340933 2.486322194138199 10.086902555410251 -0.09143434195259736 -0.9077683374116173 0.7226355400625941
Ni 4.498530451561384 7.391644564561733 11.885930012174654 -0.7259592051191884 -0.7852401022676928 1.1454817370708337
Ni 1.1874180564116286 3.76313964245988 2.0222557914561303 -0.023819213906784785 -0.9984274917610869 -0.08615278183868388
Ni 4.092791166989724 5.101801684184794 0.6901871528357212 1.0082773879719733 -1.616836680312738 -1.8965428794639725
Ni 0.8611014263596211 3.8878535175137277 8.153403396872635 0.7626120804555317 0.5733295226041933 1.2247683879173035
Ni 2.46844604189527 5.363618846738084 12.342967985014466 0.46356218667036286 0.921118019245646 -0.5563574135262289
Ni 1.8396414412166917 1.5593333134720453 0.41588090361641056 -1.5263605885083518 0.2223538864840106 -0.3552243840942076
Ni 7.799395964237339 4.993920642431089 10.364040670331415 1.2416417666338744 0.22828850680089072 -0.128709681364288
Ni 2.431818094725288 9.394248698502656 9.10150923924775 -0.7679867145038838 -0.4819987961089957 -0.21790382113245696
P 2.6340170319764686 3.1929192634883257 3.7172019367950653 1.347793874412621 -1.1562741997006472 -0.29107921687486643
P 3.811523558431622 6.459960748653038 2.1304684595880787 1.4390855201397668 2.8272760532018792 2.050835294393371
P 9.55139861425993 1.2259742805562264 1.991375413819179 -2.453015221301511 -0.6349177277296355 -0.8410605516714225
P 4.7622572603938815 4.680040001563193 12.28869118008552 -0.4835645979342188 -0.3335160458828385 -1.1379052102751566
P 8.712858960038078 0.4348264577756961 10.189975946214204 -0.30890647486427447 0.3842775927064221 -0.5554395296976498
P 5.180572264365204 2.3629310984582426 6.275067864365335 -0.6987160531325193 0.2293799400928566 -0.3523992559405867
P 7.870276444912924 3.845636361721672 8.406354211481776 -0.522370772168139 0.36938807718909933 -0.5315331553936975
P 1.971444295872868 4.862397248206016 6.548701545480457 -0.08873699762609234 -0.308117660414392 -0.7882665477988424
