# total energy = -340891.4556091822 ev
CRYSTAL
PRIMVEC
9.06812204897898 0.00000000000000 0.00000000000000
0.00000000000000 9.06812204897898 0.00000000000000
0.00000000000000 0.00000000000000 13.27211323850318
PRIMCOORD
 96 1
Ni 6.553305017685727 1.7377695465654746 11.158648676904445 -1.0486172252416004 -0.6003075938549339 1.8425160316255558
Ni 4.824413162492328 9.398473614667752 5.729597627871506 -1.4542264895462633 0.22306042563273198 0.654615463268879
Ni 2.3413346742814523 1.542451268257891 4.833172968279278 1.2080729295394934 -0.7591498329385442 -0.6471258397600532
Ni 3.6548158637396555 4.305000206311443 5.392565460436878 -0.9514007293895871 0.9051152160594863 -0.5559388379315716
Ni 4.983966767897496 4.847754508346997 2.401761011591932 0.10842804829711648 -0.6030723010842646 1.620261389723571
Ni 7.5393907328871395 6.438557002749836 2.689248588035274 0.3811441892837629 -1.476316122356451 0.6244857337630342
Ni 4.971697598922606 4.788548740248653 11.771355378340738 0.6010624697430874 -0.7845399908768746 -0.6222175065541476
Ni 5.498881935599781 7.95511878288998 12.614546534939475 0.5110723164361844 0.11621154889727728 -0.1410337501472797
Ni 1.7835816985692774 6.582214190407051 0.5331783652746639 0.20521748391404013 0.2473072139952386 -0.8154191969542345
Ni 2.6374451278705617 1.5950735798331224 0.34438369388543666 -0.05809381881893865 1.24954250953819 -0.6540791311494348
Ni 0.3211584199915055 9.215206870408675 4.715780688987823 0.5958153624115352 -0.6254802364658196 0.4872127362097674
Ni 8.390542793730559 2.6292928862530998 1.4032737328354112 0.7500100754208051 -1.5001888152089904 -0.253944259695782
Ni 7.005514122223661 0.3901577597771224 4.63179537089629 0.6457243314268363 0.5123488691557627 0.9032059148519155
Ni 0.9359027284260677 7.363396622418057 2.755317110812255 0.09443507645213413 1.4524208037960922 -0.8106012067403007
Ni 7.598913885253126 3.9472265235802393 3.501833926299086 0.7589166338818155 0.019614946017450088 0.35526192220036235
Ni 7.37387030325028 3.7261819833496967 12.551702636321748 0.11844172377937666 0.21558365763971263 0.37765314541136896
Ni 7.907701573304095 8.656501741893571 6.917743770037436 -0.322141999717942 0.37662136171274496 0.20768754272108747
Ni 6.680485427791297 0.812326896788731 0.6403817027625812 0.22988336209183635 -0.32975709306103856 -0.8518915808486553
Ni 1.9364248937442772 6.453519403938727 9.393205035824877 0.5139383251300698 0.46828736006017413 -0.39971860985184066
Ni 0.15038210688247555 4.849958061976633 1.3085336221317432 -0.4152357316508333 0.8960309943700311 0.09385272158610289
Ni 6.50758354690125 1.9281094259320273 6.907949291537969 -0.1494227455419233 -0.39650447378991716 -0.8315752378888065
Ni 3.4056692136397966 4.405520337934989 0.5839426186658929 -0.35005929495350036 -0.07710892646886075 -1.1775439077127012
Ni 6.093768870626202 5.53643302852293 4.712980452935017 -0.29967775717715484 1.1188682482483636 -0.02867962732287964
Ni 5.364057098704978 2.543916518257097 9.152077325950069 -0.4762400392483475 0.09327602314702646 -0.03529610419813276
P 0.2047146662542067 5.628401921163977 12.389889254930962 1.2642512765032743 -0.5268758591273442 0.9354089819470214
P 3.875742518385073 6.3510586942215905 12.902020509199918 0.1124734220110837 -0.2328146768060184 -0.6125241905257838
P 2.491557182217913 8.689609455069716 1.4079320270722193 -0.6975883672859792 -1.154313990650483 -1.0998852793879572
P 6.174284725266299 7.696577558467885 5.858032159240363 2.148567039318906 -0.6215703598884521 0.27036898091070855
P 4.798296971326264 0.9903658687536292 12.528715854034646 -0.4341497949465168 0.9939553149223463 0.6799778532930676
P 4.125406051435093 5.9095681098080615 8.339465690132652 -0.8626359638493531 -0.28162089967544407 0.2299944337484039
P 4.536826743519919 1.3599643824850227 3.8277839419198094 -0.046418182253223285 -1.4413043821679565 0.38747964458348755
P 0.3240203192734533 5.651307997165879 3.6831836695815983 -1.207749484761804 -1.757245909502141 -0.03396710097406408
Ni 1.4883145803199054 1.1279020741062973 2.57331718318717 0.27012806854449606 0.8665880065185656 -0.7402080017287188
Ni 1.9796889034850025 6.363318795074548 4.840937094278022 0.6286416649129367 0.30368970655002536 0.33500548594417145
Ni 6.26974484485142 5.6278487657260845 9.434654514366876 -0.39670347717460064 -0.28067679059461986 0.3553421406189945
Ni 8.528985811276494 2.2817389769400047 10.16235044278247 1.0119473806243928 0.3559039266597354 -0.48676407870812294
Ni 2.322246277613201 5.461004390287056 7.04874004585227 0.40078098967808395 -0.866202855265005 1.0863499639056837
Ni 0.4524666392008221 9.245040991567128 9.092936848329641 1.5277214734116205 -0.49192479697345604 -0.05125802684402786
Ni 1.4391653594448834 1.2255113385894594 11.514699416468442 -0.1504740696245731 0.3592677009256458 -1.7638369324560976
Ni 4.020152360162698 7.00305666117991 1.768323676605382 0.9285667622142073 0.6470867589920017 -0.8824393717285254
Ni 5.500858786181102 7.481826294858609 8.18873446055577 0.8126298071345552 2.097470220643091 0.2967904083270308
Ni 5.429955140789625 3.2335290549920948 4.617593785137551 0.6331953457218902 -1.2496242706187188 0.24434967402881147
Ni 0.8806026004441216 7.41517559865355 6.923437643798954 -0.7650646557610824 0.4915082782613277 0.36244172777825323
Ni 5.323196141276408 4.244098699411692 7.343938246374953 -0.8057816738644703 0.4007056563554583 -0.07365593492325379
Ni 8.352547362832711 7.243098916859378 9.283524287424955 -0.7259278376606209 -0.9940373331131912 -0.5543997755792258
Ni 4.621323503688454 0.3054179739407927 10.464649889590621 0.21116418841577825 -0.7043051171845224 -0.23987312631469657
Ni 8.339688765932197 7.121803717888105 5.023720507638089 -0.8209825499746247 -0.29942861728082626 -0.142693911458522
Ni 7.075683249738591 5.91426539696918 7.066099151667962 1.130934178273962 0.8814199293250754 -0.0906630110042116
Ni 2.4708546598456484 5.2877397845197045 2.5460030931138027 -0.4547350752970363 0.041710235254592685 1.1741130276542813
Ni 2.4582862428469805 5.260399396892732 11.514393820759313 -0.8132355590393542 -0.4492383138485231 0.28975535585712037
Ni 1.0769573650886082 3.5811373730367855 3.608740736199805 -0.3313923146716164 -0.7994318203870425 0.8255030635527977
Ni 3.4897760445652266 2.8199864223750257 2.7499152305769687 -0.03599390159610575 0.8977235515811055 -0.23857343366666656
Ni 0.901299681943227 3.548065932348371 8.046072952686762 0.5552443829677083 -0.8095082307864382 0.34601597812206214
Ni 3.849970915852451 2.4044941435424354 7.094435219083142 0.4476115768783775 -0.23310212613945014 -0.23660165465227637
Ni 4.287807047127118 6.6811201963265825 6.181168336625381 0.5362390455097991 -0.9789259313930496 -1.3024046476445441
Ni 0.9615745816174307 7.463472416066903 11.450847142691806 -0.6721074494060554 -0.4626949535740612 -0.20682725160332124
P 0.3388875051820509 5.666814485670729 8.112247572490356 -1.1215069714227912 -0.12430820986248269 -0.259808688896359
P 8.528323838375409 1.5891793005768926 7.885320541562096 -0.20945697591668444 0.5911837771767947 -0.5673401377899777
P 1.5378355941941666 3.183808542435315 10.265979126604533 1.0763020927513787 0.15466805310126266 0.4701580947203257
P 3.9730888073321884 6.313861258053815 3.9795235466556043 0.2431505115143877 -1.5360469625581803 -0.9509129911198914
P 6.682208370958502 3.7900215617556294 10.447143880199619 0.07363973697333769 -0.008943325236216855 0.01724567445432514
P 6.360398859812231 7.692478767354322 10.46742382808982 0.1500863472678512 0.3664444211797431 -0.7845955267051585
P 2.1990830455238006 8.47172968939367 5.571142172032382 0.47076127552196345 0.6760998583949 0.49845565611343834
P 6.687694584727762 3.9170115413006132 1.482680556163143 0.276230324787492 0.7276864722229404 0.009071109063332765
Ni 5.116841958576776 2.8070643486209845 0.5250623961449323 -0.06477842992796586 -0.012514330416926834 -0.49090201213589646
Ni 1.6966546817227899 1.1945618384332877 7.305554699858386 -1.0767119265952878 -0.5088850789768785 -1.9945893274164486
Ni 6.874760872076624 0.48252383615882 8.995267734241724 -0.6977266926360565 -0.4178042637089579 0.2953973846342461
Ni 2.8174836207216116 1.5312702739149202 9.233475508854214 0.2143562129905147 0.09663054144155615 1.2275233249546214
Ni 6.372704301274853 1.857505028564329 2.88399013378794 0.6246274015472211 0.33099173679908805 -1.6486556245955477
Ni 4.106780128985408 6.888898074169642 10.645137254477335 0.49633783843948714 -0.07751876031276972 -0.978515069107876
Ni 8.197654772100929 7.410904513223268 0.29832216852848553 0.193416377514054 -0.23543745914084613 0.48079989070488804
Ni 7.534466742677705 3.6660240624484244 8.19138869984546 0.2786533324066878 0.08640449283817377 0.3893223542191811
Ni 3.0119676318113906 8.359683974793715 12.329686900232218 0.6689431927454608 0.6394577816918342 0.6663016413575558
Ni -0.3264034217173566 4.785864576156586 10.092367211767158 0.7457361306357996 0.07406705431874341 0.5532137256909246
Ni 8.860978823353143 2.4876760260307345 5.651345176465802 -0.05369980351630107 -0.5720915364320341 0.21716951406959376
Ni 3.663602873892404 2.730801443167306 11.501533410234414 -0.30136362952001 -0.3227582931457022 -0.018037831338317323
Ni 0.8960120600442923 3.4944189229947487 12.414190008086106 -0.15073195127165007 -0.11865563956239567 0.5732225647126838
Ni 3.1838992236546413 8.056482249853264 7.560485904939089 -1.1685656154734907 1.4791222243466784 1.2397332367572522
Ni 5.5512231353951 7.8624153723723875 3.749611289987113 -0.4392590911486241 0.05878158891458264 -0.8825563569223639
Ni 3.061397964466325 8.402558055291335 3.4152995591322823 0.36539052599393207 0.8664751350897851 2.446360949209787
Ni 3.4786041183441885 4.1848475907036855 9.457177008811026 -0.2386521094234019 -0.09708485537015538 -0.09270935201027904
Ni 7.412899500048453 6.21351342074699 11.7323352496645 -1.3230935434524633 -0.01390066924149219 -1.35708635545814
Ni 0.8585670641477557 8.998297393779426 0.05329425941044146 -1.3163539107357844 -0.03008884896558044 1.1746858694386155
Ni 4.376837868261982 0.6949727036093931 1.5770325512480934 1.2335782728994498 -1.1578163473767866 1.0903182045248125
Ni 5.976046511696398 5.839117870513218 0.46364400629501995 0.6815189725279424 0.07537291761436052 0.46339737895772454
Ni 8.242641725008859 8.947615660297785 10.945737335235307 -0.9351611276022733 0.2560512787364558 2.2777066091317613
Ni 0.10802762977159622 4.916771984376479 5.891530708471805 0.05352548272196588 -0.08855984861827974 -0.028039422635719454
Ni 8.212064017851926 8.889207886929515 2.3705984105703424 0.24380228616577365 0.3808467126480022 0.0524726159774193
P 8.711436424561631 1.65777057487554 3.3988554268195954 -2.1492136717639694 1.5728245363978461 1.515425686763403
P 1.688837960616836 3.2829865920128274 1.5219128788926075 0.37751019207560144 -0.2570936039580411 -0.8418138848976793
P 4.658548144222026 0.5739468278595208 8.189172450845117 0.692831055106652 0.8423157642347622 -0.7623390292998031
P 8.399538370687758 1.5380260247547526 12.638608796487791 0.4686280312290445 0.018653096324813035 -0.9028120218476064
P 6.480089001201423 7.837994920007731 1.6365448218677605 -2.0634280434567174 0.9124634288944414 -1.5541310737534009
P 2.006040865821315 3.1253826328231806 6.137702107765558 -0.9161185091485254 1.561141443632963 0.48079731960172684
P 7.077777985905036 3.981222912705785 5.929661254386451 0.05198924858309756 -0.472929743928192 -0.2732712421591681
P 2.403378764544718 8.583657518408506 10.15702836202019 -0.05139558086315665 -0.1592908965852547 -0.1546721668663207
