# total energy = -340896.88282241346 ev
CRYSTAL
PRIMVEC
9.02857302708367 0.00000000000000 0.00000000000000
0.00000000000000 9.02857302708367 0.00000000000000
0.00000000000000 0.00000000000000 13.21422924729199
PRIMCOORD
 96 1
Ni 6.248106445617195 2.202709938404554 11.672062193190714 1.4767974328682436 -0.07691275129765462 -1.4072516634586214
Ni 4.567852930335291 0.22509315458128887 5.8156612820373494 0.21053478236189546 0.07484249903218723 0.5683981467408469
Ni 2.741002478245838 1.5909338444167747 4.74225606570045 0.16454803121913597 -1.3319095990821965 -0.0751677435820899
Ni 3.388531720583553 4.268943970127891 4.89921509552851 -0.3710922043643996 0.9562565148199919 -0.4576663900112182
Ni 5.126080558953509 4.231881678719688 2.7921403146736243 0.2578379383232334 1.4265007414962205 -0.9458808280126226
Ni 7.415518967825103 6.062948474314045 2.4841693759311663 -0.11006532679022335 -0.4162598020399735 0.985244931632542
Ni 4.8559546888823695 4.441182053731859 11.48825218780894 0.7670822004117435 0.9278743641328729 -0.02818443285401598
Ni 5.896949134525685 7.85471389244192 12.395621047208932 -1.6801853197727126 -0.37256107560044227 0.2878848783072849
Ni 1.9541804145084265 6.570643180883125 0.37334683450050865 0.00046794077535403274 0.19222904207417216 -0.833229742773094
Ni 2.633372861710592 1.6209267633103313 0.5277435553634902 0.5968695147076624 -0.9025726521432907 -1.1733992894167082
Ni 0.4797115479842843 0.04233858936166313 4.770891990099815 0.5031931707984237 0.3208356222016926 -0.015603767975527965
Ni 8.584168404508754 2.3859719094164187 1.3498339330906373 0.8530907433630792 0.4036688527488403 -0.05966399151953596
Ni 7.008808848198958 0.5988950291517058 4.849251876424039 -0.5504665019630907 0.702186785289939 -0.1880296592808439
Ni 0.8223404691941403 7.4083593095823 2.4996696297410574 -0.15411963679696036 -0.23398170053092604 0.18053026558000523
Ni 7.60635591142929 3.864427793695948 3.8161240262749914 0.6763225159286675 -0.15392834672176073 -0.11805014476791281
Ni 7.670512949857228 4.054443137173911 12.66821713480243 0.5607051489719634 -0.8648039180349494 -0.30574941729253147
Ni 7.7395725033240605 8.625907496635458 7.0177597752883845 0.1101414314437974 0.6217608786327035 0.6693733383043439
Ni 6.80665007428396 0.7344816214105825 0.35710262629060885 0.4043154851939037 0.1126135471333738 0.10788991640545936
Ni 1.7885151319142445 6.389412638754779 9.255444599066164 0.7990721230547786 0.3759454186916429 -0.2850409811005865
Ni 0.3279872846747323 5.032029915932985 1.3259687065670556 -0.8230684859693761 -1.1789636708783633 -0.12075931616895978
Ni 6.31496302731701 2.0437709425580244 6.9774300433782015 -0.3055815242560995 -0.664156827100411 -0.17282878317068945
Ni 3.316483709514744 4.460746971023352 0.3749692690354793 0.5268684029281765 -0.45269413360760746 0.265189236481982
Ni 5.937550626477618 5.575477770851999 4.717096141835105 0.7681042139183546 0.654517504238434 0.7221470304619498
Ni 5.2097212575176 2.7788592840618174 9.458929670327784 -0.20230750935609676 -0.16862914326704506 -0.4968155494068541
P 0.30084197764722853 5.620403949182625 12.339222261401472 -0.22764933055499503 -0.0940272994907542 -0.2962543333179027
P 4.011403930561754 6.268149877267915 12.446323706427005 0.43795502762521993 -0.014928082064742032 1.2152131401287005
P 2.2935915523667885 8.506947021216583 1.1807016785352493 0.7339208831684263 0.5523184675701649 1.1886886114756108
P 6.147943458800482 7.629306543526647 5.922630909899772 0.6810898554103237 -0.28784528331860104 -0.36791586351894706
P 4.680989976288079 1.195085097887846 12.71976577129333 -0.16378981289687278 -1.4832007652914263 0.37574281576253354
P 3.884724025385507 6.109472710033039 8.260928343420485 0.3904245861444244 -0.6575673468083514 -1.122474477542383
P 4.893694123251747 1.095563139741044 3.8068209848457557 -0.11347846623683037 -0.37224920078697826 -0.07199860182548891
P 0.28444157512761814 5.613163033784482 3.703552168980463 -0.13046034550680755 -0.17123701320353735 -0.5091738138618908
Ni 1.315201230627123 0.9196233412826634 2.5989613592810605 -0.13783118404958197 1.2066503381603542 -0.09316212327698149
Ni 2.0109881946644346 6.384329552259573 4.8716896855854674 -1.093422811592065 0.7623799098400675 -1.653848995871029
Ni 5.898231191865506 5.701904875989409 9.294188010732642 0.7622618962049647 -0.26936187980243287 -0.1409000527828928
Ni 8.523243595148815 2.223710398773733 10.122086469352089 0.43872610146328955 0.9674284722764113 0.1997279215543786
Ni 2.300001839065893 5.287845498091333 6.926357212674688 -0.1571872199786906 -0.6144453188078965 1.00462025083536
Ni 0.593284674004067 9.12310197301995 9.177282438486605 -0.4544278284692626 -0.1187476850555697 -0.25971818606508174
Ni 1.4738061692794742 1.1410129752949767 11.399201568413716 -0.3945337232167915 0.23340963007753995 -0.12045592599592803
Ni 4.134084177980673 6.6929171425253395 1.548786660798803 0.2500467244135887 1.1764208498518514 0.031646680371003565
Ni 5.396034886141151 7.874793438383904 8.092724226150546 0.11205638907832315 0.48644783301928474 -0.18751286754542545
Ni 5.279331553926186 3.044705610618343 4.828809381854866 0.8466714701002966 -1.5856908508375531 0.1359823037663013
Ni 0.7208538936026552 7.430054970058284 6.702984001214779 -0.12098840146063035 -0.22382481460258227 0.5827173915769964
Ni 5.212781943702102 4.371472443022301 7.349423494813645 -0.5784902408695263 0.5762397542724528 -0.3185018318621934
Ni 8.441878096934264 7.086039260063946 9.331914805100075 -1.4124206092540708 0.6501340304587577 0.1999454368818234
Ni 4.806071824075957 0.35921079804306083 10.608845721276262 -0.6477997258986262 -0.23230816948324506 -0.6945999740816167
Ni 8.075318040619273 7.258033572201891 4.651329308874137 -0.3444702309014971 -0.7252932894004154 0.40176032287221775
Ni 7.2511989425804515 6.045974757420642 7.147391120918065 -0.29763244461235194 0.12395853983254781 -0.4590265035835385
Ni 2.306908697269858 5.359649737694121 2.59356949559556 1.0830219279737157 -0.3481857320798713 0.5413907649140676
Ni 2.3061864114446062 5.276090296285371 11.386529063609684 -0.25224733160933327 -0.40668321409513186 -0.44804557909200254
Ni 1.284106825850058 3.3927390355156417 3.740723706119735 -1.0899168553213359 0.1913558954405995 -0.25134821683383163
Ni 3.581020893013002 2.5074062137867794 2.6901002875685407 -0.09957034079617046 0.05877696092889231 -0.3408688867034839
Ni 1.0973598257313564 3.3393350273111295 8.035717817392593 -0.7702803956340669 0.17543382489370432 0.12192633989386745
Ni 3.675929250451012 2.6344021190115745 6.8205378249889765 -0.028131211018577358 -0.22501189293214796 0.6862739707144245
Ni 4.020604046260892 6.721140461147031 5.874689188248723 1.3493591620172116 0.7008927490688638 1.2222898444698238
Ni 0.981387807914458 7.5744669922444485 11.337874084706197 -0.49247809837376477 -0.6992318164266732 0.6512054091460656
P 0.2242038401589483 5.649566239377143 7.9599076000315065 0.044094419216053095 -1.1455735254536916 -0.24495928258835234
P 8.368177857040193 1.554341038794985 7.948437701126517 0.45118515316224883 -0.0879003606574099 -0.10700134315291894
P 1.6624491696894605 3.2123030077950725 10.23654800693693 0.14514880075691777 -0.4656902887569592 0.6588642112429041
P 4.205274474631997 6.266344162704788 3.689042349608448 -1.7064116004590932 -1.1594371708096614 -0.5030584449927723
P 6.75301132318624 3.9554087219591545 10.407407427471952 1.2641941980130935 0.9846733753997878 0.13476900018449048
P 6.409907499046282 7.8154125149754385 10.129618104794897 0.11382993603897815 -0.8007415403374016 0.43236236402879086
P 2.405175683795286 8.497755934090263 5.682554838730929 0.05390240644541039 0.013254808127377175 -0.35101034601286
P 7.023362907577772 3.9880921555517714 1.6027405090877873 -0.380190567121242 -0.01064539552898812 -0.045074009520503014
Ni 5.256380921828828 3.0090969194334587 0.4668530545802495 -0.18008443629183823 0.6041279960422886 0.9423615020054544
Ni 1.3708533534627292 1.0563971908667968 6.987684696382206 0.05532731181739504 -0.08129673929796322 -0.3184074723761742
Ni 6.785992699681774 0.7929876761132125 9.253475467335075 -0.32285290974203756 -0.5738380868094956 -0.3515343368371301
Ni 2.7014212150220716 1.4120958740845735 9.131204214264704 0.6339077984078826 0.5646985864020727 -0.17617558815573528
Ni 6.42038967208524 1.8983928630805857 2.4452002499443 0.4792703414342392 0.6574778724183385 1.2217730527344055
Ni 4.057828851979776 6.7413825213996965 10.33742515386336 -0.17108403256544083 1.8123071121423433 0.29793094968937717
Ni 8.214276804824792 7.129674352481935 0.3384550119971856 0.510175772763844 -0.31705275812049266 -0.550621025263084
Ni 7.540212586981909 3.7025454831115194 8.23768428270662 0.4340253535535106 0.555072119055902 0.2575031806916339
Ni 3.2100007217270843 8.514856051003084 12.353612903612323 0.4005583321443166 -0.5220498984936106 0.17110383005978275
Ni -0.013884139275891492 4.824968626979093 10.150761216614562 0.025551108996226965 -0.909113281475286 0.2526137138098165
Ni 8.548171484692798 2.35186196131893 5.86804235294185 0.2023710156041805 0.7660437318448999 0.1746090149995638
Ni 3.5941213521684965 2.5207233586898488 11.372839038649328 -0.8825537858192027 0.012200912941566085 0.001275781388630061
Ni 1.2419253336553873 3.4389021283220096 12.571554525666343 -0.9011315488213899 -0.40555192870416606 -0.22497538326725772
Ni 2.9393602230054534 8.130130506183024 7.796461540635409 0.11306786106197303 0.45243239530578855 0.569557714266587
Ni 5.76440065701927 7.917670130685379 3.683004040109348 -0.7256414167684534 0.013159677310409595 -0.740788299712221
Ni 3.0716739576186605 8.424994665769017 3.3556216698132633 0.5158034033632665 -0.6426071259540932 0.7242882451746688
Ni 3.285100390407579 4.140124293194337 9.12706822505786 0.1940604388559561 0.4375770754605109 0.020522288323067885
Ni 7.244084427201727 6.098990536994081 11.421943640479032 0.1351153277803157 -0.2286680016274965 -0.4571678531082449
Ni 0.37195824000146327 9.130685974185086 0.3119182307774559 0.35035111516230627 0.6099304616566786 -0.15895202518859722
Ni 4.6758617469287955 0.29187209055489 1.6590463005952458 -0.2000963606373909 -0.2881309328798199 -0.6546828261717047
Ni 5.974071203516883 5.572823370444201 0.5029772772729075 -0.3445784743445872 0.31029769878484625 -0.7863657312317038
Ni 7.955535965074175 8.756144659501068 11.481433809618567 -0.015983519912449895 0.6691290835040218 -0.7287488520491836
Ni 0.032123662078047815 4.8531648598823365 5.795959130439059 0.29685879967112094 -0.17474142681237004 -0.05062810656951281
Ni 8.010321344919479 8.867611419482962 2.52897908567247 -0.20954079387974237 0.6337969838616311 0.34457950278585175
P 8.594172063188484 1.8315633670992169 3.7369181626779433 -0.5502718694537814 -1.252168377196811 -1.2680981610531903
P 1.843011597429449 3.26741341626174 1.5466198033230494 -0.7618875435846814 0.9004836308247459 0.5796045569796276
P 4.671681517715154 1.1136563996635869 8.154976235714384 0.037032884383581384 -0.9598565734664244 -0.29544932091810405
P 8.502053534750507 1.779296959069476 12.268274833358891 -0.4600626581575367 -0.3380779542219081 1.416420217331767
P 6.5089599714066715 7.748465647547466 1.4278110079274768 -1.793987487897549 0.3573085203167459 0.08612527103485812
P 1.753276612214801 3.0897401318227566 5.895409762860617 -0.4102747881011321 0.8719898942604273 0.8821434377546614
P 6.88739260097423 4.048430107678695 5.988107022816077 0.3256494986505682 -0.34452808072262603 0.5014008547846913
P 2.4732330656795813 8.483228960429898 10.124173875387065 0.6777602768164586 0.19784330293715605 0.017229990725041295
