# total energy = -340857.2471702069 ev
CRYSTAL
PRIMVEC
9.36407524652885 0.00000000000000 0.00000000000000

0.00000000000000 9.36407524652885 0.00000000000000

0.00000000000000 0.00000000000000 13.70527065852074

PRIMCOORD
 96 1
Ni 3.13056959521897 1.9612400438250126 8.949952910256581 -0.275126550200352 0.45218968316736313 -0.7370810260639629
Ni 0.5068062343831728 2.210436818347299 13.095317656964811 1.706720389948764 1.2415342945217327 -1.7653523406593599
Ni 4.729841304489685 1.3067192656503452 3.326653334077255 -0.9034177737524054 0.501982181209458 -0.24250619306216942
Ni 6.489791183534483 6.836364978132572 5.561462031465933 0.8626387920628305 0.5033847179839395 1.2884327588454842
Ni 8.953816527766273 1.463455159681385 2.929296285774474 -1.7946001817808834 -3.9450814074033667 2.376613862422636
Ni 2.61288605085214 3.7464541982967283 1.5706925511524965 0.1768193923873213 -1.7526150955983493 -0.6834403579203714
Ni 0.659387288159608 4.901718908441157 5.712877257855173 0.4373122518348985 0.2566233491898419 1.2796719819337186
Ni 4.255335511788354 7.747517606696455 0.2562423048526099 1.1729801996014186 -1.4730636768574243 -1.6961061047680273
Ni 8.139385434000252 6.419392064683643 11.577281174596836 -0.1270196952563748 -0.18902647597647448 -2.725997985685983
Ni 4.919276549814571 3.181912820632532 1.4964925540971403 -0.8977718883205378 0.02222538705710366 0.009942970145324812
Ni 6.2456416456523405 4.576457749451542 11.340700618859831 0.13219686858194007 0.7457813820514382 0.42586184390611176
Ni 1.6506898472874691 4.563516597249912 3.5623836317680184 1.1706294399810548 1.244043948317464 0.3892555055369877
Ni 6.466483999865989 8.110103970227097 12.099780662941452 -0.4553575393723835 1.40726837562917 2.829025431792818
Ni 0.3806815028319675 2.8392157532496927 1.6595847825091257 1.0286209846253318 1.8002244699461964 -1.7421435066430644
Ni 3.5044771259071896 2.3361682587317403 5.361734730869837 -0.7535851943665731 2.2370065603092377 -2.100126170208699
Ni 6.460996651682084 5.171675838123368 4.044987476874537 1.6313341025979646 -1.1826318637585695 -1.4725473993426381
Ni 8.165361379157504 7.584985349993338 4.196211676125635 -0.38374254613855846 1.0886266757550025 -0.0684003429512693
Ni 1.495433477169496 8.05881692926593 6.693147063347751 -0.2901772738858874 -0.8301773291000154 1.2416307108902809
Ni 7.323737010432341 8.80340138462966 1.0825610923378566 -1.938200407103759 1.5208291171671615 0.06927863179116456
Ni 4.634870851791465 0.5963455233498834 6.148937902597737 1.2806528577897491 -0.8460582619963299 -0.1886804054909654
Ni 5.954119250325879 2.814981526116682 9.545748762380535 -0.6648093730827455 0.043364225918247894 1.2433155547918717
Ni 8.91077923723176 0.08944845743533882 12.736911416692351 0.3739425293290011 -1.9713943773572242 -0.3577378945446807
Ni 1.0305820462046926 7.112783119840199 4.54625766988173 1.3440621752843305 -1.5314356890384142 -0.26544866079095575
Ni 5.4160407497396905 5.588536382667506 2.0711817802714 -1.2062788137535483 0.7906553597459931 -2.239329809125776
P 8.045810228536505 8.720969428890909 10.901227705041814 2.2220064873559795 -3.8905475380215444 -0.6125882109944998
P 6.197660123307076 7.369471154681809 2.961174407655814 0.46189739737343033 -0.11226130600027763 -1.2241688066600918
P 2.235598088944826 3.680821393824058 7.24936190516702 0.7874787617902245 -0.4289672223043129 0.4890045380028676
P 7.771620736773877 2.794202642805959 10.939958457300255 -1.0951086839349202 1.3899586807061288 0.3837032082601908
P 0.7650842892275589 9.02899132507068 3.760479710429581 0.36933691223618975 0.3714369892983281 -3.7686811048313356
P 3.422410369109004 7.420570914134992 5.941974980940715 0.3301705264493733 0.11777297984712622 0.715367031425639
P 3.368117459944709 1.5750000258361074 1.2440483182264273 -1.8587875150920699 -0.32723818329392673 2.0068550321576795
P 8.969304708476473 6.302172568837033 7.2309006305175885 -0.47293874278925646 -1.2752705104319133 -0.4757805831134258
Ni 4.303429403038408 8.77431656643989 2.110954754121767 0.29849890637770526 -0.17311211873906315 2.8904819964364026
Ni 1.8703055076238282 1.2747409481622343 10.830494288699224 -1.9506838842827505 1.140833696775861 0.6074370058108636
Ni 3.4643707909726134 2.7990719620135196 13.133802134040254 -2.4420427814504073 0.6851583690527426 -0.06850601529119814
Ni 0.15540806813943972 1.571685143144807 8.010031969251418 -0.029891902463425938 0.05006992007319764 -0.49224232821387487
Ni 8.892818940616182 7.581483185794054 2.041208311326248 2.1267057204694404 -1.0029986560715372 0.9994993846690271
Ni 1.3637090285295965 4.03842606924235 9.280880271270224 2.2263603934493013 -0.19898744384392825 -0.46771811782026546
Ni 4.09255978912486 1.589018046708641 11.023683591851631 0.8008394993678466 -0.5515795325216113 -0.8340998040828732
Ni 6.916521463549331 2.7844359121646414 2.685685182227783 0.8106354024123458 0.569058148922349 1.0330473958278015
Ni 7.83245913464218 8.89429846452925 7.952620822979204 0.8815795948313913 -0.5417589468867637 -0.44714903541966217
Ni 6.426770956098177 8.091179173845406 9.728165633193754 -1.7910479456532509 -0.4091062217143277 -1.4812161307612297
Ni 8.218811521535876 7.027719858914284 13.622779168863437 -1.4286360426716684 -1.3344264519667792 0.6267277357196755
Ni 0.6835334929838665 4.966583858731097 1.461804273188514 -0.1508913596676498 3.1178071108827594 -0.3734313940205375
Ni 7.906023310977934 4.416875176499159 6.100832774457204 -1.3868838984355472 0.13868864695387081 0.7973872791531881
Ni 2.6978556710240635 0.0663538382784053 4.689491503594731 0.6292355897431937 -1.1646863350237424 -0.7198476929048119
Ni 5.147600800272143 0.7935922803727432 0.5121784044396674 1.7299271670825305 0.806758693065759 -0.12675924250613654
Ni 3.1916982794246476 8.825097947329501 10.486245594022746 0.5911087009644852 -1.4216161597104098 -0.3477704989193237
Ni 4.0223760440082 4.298138700437887 3.4963931196151 0.20665858723594085 -1.4097613172543526 0.7372293787163691
Ni 5.543532636299172 4.761594884168216 6.025398592264239 -1.9340023098620112 -1.7432827624538298 -0.1788500496641049
Ni 4.377396234616326 4.895023594530762 8.97619854078533 1.3186056828844388 -2.251303950768516 1.6246530910333632
Ni 3.8948841574487187 5.373097099959169 13.470362922814028 0.08910466537815623 -0.5572930379666209 0.3607016051586949
Ni 6.880966069258743 0.9799785827476643 10.858946095392014 -5.545716281145262 0.1149375672808601 0.8536625567061491
Ni 7.046663383446773 1.2583631802891138 4.473181361874273 0.6730569578035183 -0.17953884820101337 1.0624890981276862
Ni 9.169377543454797 4.2312792020879275 10.983349709884854 -0.7445449385411758 0.04708306953073182 -0.9258280231268056
Ni 4.6104961635274675 2.654818380489552 7.2732505979178015 -0.8827203933040539 0.403430254375473 0.8101414934950629
P 6.787765426810963 3.0822135098577386 0.6484884408025327 1.4602770666157172 0.04935335362214726 -2.8930412725231465
P 4.079328350585856 3.7988836564565918 11.096637230471359 0.7860325162620011 0.25990073438953304 -0.6175686949282267
P 5.433158279569344 0.7742329908925323 8.935712960797087 -0.5615906369007103 -0.8555268636083975 -0.2503107767082528
P 8.536852978392742 1.2838334653748127 0.6869448256517783 -1.8233060343560084 0.34827212114609046 1.9094768139168212
P 6.2742582600721555 3.763506179598588 7.761390484400301 2.265486412916485 2.512339055872809 -0.6794831730448363
P 1.8159002295547435 9.537685357054322 8.703340620544461 -1.269297323567614 -0.7611781762224826 1.6312618545991324
P 0.7891490265958447 7.4797144143560494 0.18917492402878908 0.8520322201915778 0.7243296399355654 0.3340585486498699
P 1.6437885237182928 3.9054281063481664 12.114047768219603 -0.07266297488236517 0.20342902455504966 0.12977488940400875
Ni 0.7789309475202879 8.38956543643945 10.64891362981915 1.0806207747313905 0.7336123507890719 2.191014666960156
Ni 9.593307964925298 0.3977306749112072 5.583952667759621 -1.2349255309559632 0.954367525327395 0.7051355835056179
Ni 2.1571084089491173 7.958171846875823 1.8622992231575515 1.4767215853249858 -3.7147216198957445 1.324412776484519
Ni 5.603359714024367 8.63019408197151 4.479869184524349 -0.7576827614747145 1.0078634403630062 -0.07962295113996609
Ni 0.27866739261850393 7.3500687904547615 8.884140315536246 -0.43172344489321135 -1.098513081630779 -1.3493043975198762
Ni 4.180713194932496 6.506019126201217 4.1918255432086715 0.3540020816513323 0.9156279426653521 -0.6317056485502411
Ni 4.712105745683687 6.883831476330884 11.497090978508641 -1.362288211374054 -0.5002649414080352 -0.05527100465816288
Ni 3.757250977231953 8.755663328244774 7.899196900011951 0.6090439452866672 -1.018359969018956 0.9106384598705606
Ni 2.2698612408303305 0.9851756445941947 6.789536173468943 0.01085288355410389 1.529010110316057 0.234327513906119
Ni 8.906827597413317 1.0878527313459185 10.187361162617467 3.458288018119205 1.352685141066651 -0.8474291742019278
Ni 8.986122587893353 3.6853348781664503 3.9755294476013128 -1.1520475632138096 -3.304563045657502 0.524324296350084
Ni 7.744071626949566 5.000069792358471 1.518256538139854 -1.1458033820763105 0.10351158483210561 0.9663820332897679
Ni 2.865435164367324 6.211181848183454 8.08516369180899 -2.3903715783283603 0.6530710015998946 -1.7706210452574667
Ni 1.7720482644605051 2.1598614471164685 3.5524745671806337 0.8494598314787113 -0.5863711862794998 -0.137125416231809
Ni 7.198192851555883 5.728941329202422 9.195771126374852 -0.5295053263303913 0.5074308630288551 -0.1612711602400771
Ni 1.2201577526605654 0.3298308277844016 1.3538973503263627 -1.2571910272223832 3.222250977721147 -0.9105127329259739
Ni 5.518296453098452 2.481732810811589 12.443343907298713 3.546214861139177 0.9047737735596676 1.1204805870408059
Ni 2.91263010437906 5.071255493542839 5.692484174450896 1.1147529405284091 0.1505856555017729 0.2626857533338379
Ni 6.77572322584765 1.5404934079902248 7.342585021395758 0.48306528970029705 0.30706222256668403 -0.3491367831392309
Ni 2.3508324008068153 7.95974501154288 12.642290244006519 0.0021476424706221076 0.3711773078790382 -0.7828101526699615
Ni 1.2487743670803801 5.924201029425581 10.998973669688343 1.1651794726100773 0.878355688577455 0.2012477006330147
Ni 5.376290249670282 6.496673778952862 7.469098362076028 -1.009376534573423 1.4156591707960264 1.8062930447377796
Ni 8.733320644342394 4.5694627851283744 13.203589778767528 -0.06057956135526986 -0.508096521637312 -0.04055375305264629
Ni 8.611016455554042 4.115211487515413 8.486440542073856 -0.4297130993314019 -0.7590621583207444 -0.8465735110698517
P 2.786542829129451 5.814257420164114 1.822513139601626 1.1415507774475437 0.6390080957489253 0.3230244023228953
P 9.138073439395425 2.4935877302669183 6.118773406514443 -0.5677463720894609 1.3018035237254355 -0.3956282418325509
P 4.423636038937349 9.341367516311058 12.465710937797132 -0.14924328254126554 -1.2613125055899246 -1.8454486318913188
P 7.522929622323145 8.951999897138837 5.764409637591797 -1.353128913472289 -0.11369675289522353 1.8075102049743321
P 4.139651724307205 7.0561023714491204 9.482868996075215 0.9527526154317913 -0.06339234821371663 -0.44531301065218787
P 6.024874204041885 6.201583670899321 13.204384788768918 0.18262854286993063 -0.8064699581807466 0.17412487627429366
P 5.616666065166565 2.843607504611896 4.449909761692295 -0.9257048672853799 2.084572024524184 1.1076199290280537
P 8.732768163893843 5.589238688322443 3.522912181145504 0.22564489853045652 2.1079631497546147 -0.8969445073232359
