# total energy = -340885.96508199954 ev
CRYSTAL
PRIMVEC
9.12828247822181 0.00000000000000 0.00000000000000
0.00000000000000 9.12828247822181 0.00000000000000
0.00000000000000 0.00000000000000 13.36016410781327
PRIMCOORD
 96 1
Ni 6.589944473500592 2.1748772040663873 11.6391215793563 -0.8180062409551201 0.9186196783038244 0.9698759053756393
Ni 4.916757675741213 0.7087527152681723 6.105568593443278 -1.0113251736593614 1.3163066024376169 -0.8341468552707246
Ni 2.7493017653489082 1.6875547144174445 5.167297081430901 0.7525081592523105 0.30803332823070173 -0.799860423284029
Ni 3.3390983543647077 4.8811665022661215 5.304492428950414 0.5431180320178195 -0.47004907994628725 -1.6412331068792316
Ni 3.4050319388762715 3.2956386013729384 3.197702171237799 0.6696057660301242 0.24920777345206116 -0.39863231876619737
Ni 5.436832443007141 4.772512555645446 2.7968299938517958 -0.4173982865197908 -0.3291423422951751 -0.5041146541714285
Ni 5.662958257145372 3.3266382487495503 0.374535256711386 0.44942420460708404 -0.08078328999665442 0.08070589979149971
Ni 5.747312715745864 8.313309440173175 12.51284883145391 0.25705529452093795 -0.04590421873128223 1.6934372996866125
Ni 2.4682510753964624 5.524418313613323 11.533762942718827 -0.4060720628736942 0.23920052572770417 -0.025014519766466597
Ni 1.011231135565689 8.110971930235017 12.184590315714393 -1.407698264077737 -0.7259257807780917 -2.338701917868211
Ni 0.8200593407839134 0.045778336747264226 4.937623103884163 -0.4785627738442532 0.5166963474911811 -0.085471182390627
Ni 8.884803822772572 2.716102201889327 1.9592142273318875 -0.1922105301314109 0.8128846034578388 -0.9315353579242279
Ni 1.4848246883317036 1.3465585932747124 2.8994364533149306 0.8306036180041566 0.4816761226622543 0.20220826477407114
Ni 2.0153422107798593 6.9795395706836905 0.38579864449053836 0.5999162719537863 -1.1203988259602768 1.9115321537839534
Ni 7.872185188266586 3.871961845415864 4.216040587559504 -0.5257065214095914 0.6579859224030087 -1.5084780518009762
Ni 7.851235779924617 4.2594300527760085 12.80671928135209 0.683769716235332 -0.47128346657402065 0.7955134591692429
Ni 8.0513459889323 0.1473733825091838 6.901326620550508 1.9296322058187736 -0.03505493472160414 1.537033494841166
Ni 7.011844562458081 1.1191730761512124 0.7947813008795218 -0.6999612383935301 -0.21522318897650033 -1.3425153996225008
Ni 2.2665799300809466 7.0262489922461535 9.477112515132907 -0.3077443362353732 -0.10329355528402857 0.44065442883425404
Ni 0.2770561535295943 5.336969032435841 1.3268953599372681 -0.6240872127730348 -0.11628174001358037 0.019631915298314578
Ni 6.485170046943244 2.6634867815481043 7.548212401161735 -0.6330009703228969 -0.7001694977495941 -1.557636515803498
Ni 3.701308604041965 4.576336636396103 0.7038964689771365 -0.0512027481260602 0.9641474875322942 -0.4591730564637318
Ni 6.454051731894107 5.979079808470299 4.921777318289033 -1.1130058759303154 0.9542130020274018 -0.3836186189661845
Ni 5.3507709955787846 3.229047780521235 9.594254851652142 -0.1763293401247802 -0.6770375397178211 0.5467453443577616
P 0.38006608307931566 5.832379180381509 12.496496426179922 -0.07471137277096165 1.3985158262475206 -0.2811822694761286
P 3.8439562746998908 6.643518363504519 12.702135635899035 2.0473889877159834 -0.19664105509893876 1.12951904309399
P 2.265338483660682 8.985780883809108 1.457994840401981 2.0632035861507365 0.1888881506263973 -0.23212973492385183
P 6.617320192723932 8.127621917518569 5.935573501237769 -0.5327279470327471 -0.13721000552581533 -1.4586768120081328
P 4.921741717987275 1.258251588350877 13.239053910037553 0.15803079892590846 0.4827927527652008 -0.8491129896622537
P 4.181739240401938 6.496023574838059 8.514405503691068 0.4673787322029757 0.8428862920262516 -1.0196933431183988
P 4.659915190983929 1.6101377505184318 3.7070977608046998 -0.32889063129568524 -0.8053013917939421 1.732178167900236
P 9.441747723063864 5.938805826071709 3.584318709840512 1.1669951856625773 -0.20573453275977469 0.43823219254600654
Ni 0.7524388496659903 8.109073247474612 2.541450772779575 -0.7777895595269185 -2.266649579986651 1.5386687164517436
Ni 1.9453465405549297 6.768849682256252 4.898958437690665 0.040918335480916626 1.0223523780078005 0.8132977797358574
Ni 6.103343118169303 5.535545689983196 9.450152132763407 -0.7059704207020874 1.1871744888239297 -1.5084381997019762
Ni 8.921992445685502 2.4528242779681717 10.636360577124167 -1.7128303595012437 2.4911781055244773 -2.4760888152915226
Ni 2.316265171739045 5.610242425696629 7.255797912322614 1.4622285339151333 -0.16898266995172187 -0.1039558714583758
Ni 0.5904766460621947 0.21950233235481842 9.368133601655162 0.2061878182471094 1.1438269750762302 -0.4973919907356143
Ni 1.0362608861860276 1.188812743358566 11.683116249702683 3.6041045343671088 -0.23792140190496444 2.075456178265845
Ni 4.279886533862872 7.326551229995206 1.7685782627329762 -0.9024006453418008 -1.5137351864348576 -1.4447907980546602
Ni 5.848152852544873 8.707249599827199 7.936218264361244 0.13759181434526624 -1.1292596187850164 1.9171060483273048
Ni 7.062844276796459 1.4748931169695851 5.377599930680257 -0.7273306315454183 -0.07910461674265086 -1.937528834958031
Ni 0.8448143301009434 7.6798066345380525 7.1891577987454 0.30268054855922066 1.3603326303095797 -0.3383998563377011
Ni 5.096584841029568 5.147073371547838 6.879643298295383 0.30304590231843936 0.48967790992080834 1.4206273134345793
Ni 9.009897806179254 7.315496879885347 9.888953236773249 -1.1018403462317992 -1.0594960769376334 -0.32695767593903047
Ni 4.839450251232223 0.5529621434639432 10.632325876258305 -1.13997571965094 0.22208777730681756 -0.5043126291148476
Ni 8.534798086800418 7.2720645117410845 4.983688981530238 -0.5447771648877973 1.0381687762147669 0.2224179069527266
Ni 7.620819673010471 6.61323072216306 7.325044150554135 -0.8893245288841328 0.08770984191315861 0.19346445714317004
Ni 2.458858072701959 5.811703620514598 2.758513115221623 -0.07174971903947644 -0.26339846313014637 -0.42522678142527415
Ni 3.4520791068913064 4.606925511060127 9.164111010767146 -0.2886574948072513 -0.668459568240823 0.9811067410944524
Ni 1.1989360086532252 3.827005054093775 3.8461105493703505 -0.6229320161226691 0.11270842084002525 0.8321393379223928
Ni 0.2650579390090351 0.45349033621197654 0.7841441132800029 0.9707644786281798 1.7851405790298804 -0.43029545419743315
Ni 0.9921986665491296 3.5728919258045746 8.49945611543763 0.7771982057998228 0.3449751955623736 -0.8182011305747456
Ni 5.422400628371563 3.3381307564195017 5.185213161497473 -0.5737900071803795 -0.44164533199261363 -0.8213286204601338
Ni 4.561713127827984 7.507154299296227 6.202843223097026 -1.4494036142363231 -1.4461887068434511 -0.3750702151755412
Ni 8.328225053781356 7.71551647568567 0.33422202269803736 -0.9595930353923924 -2.053216650141354 -0.3468410451265188
P 0.45995133456685466 5.847778592962293 8.094615873648028 -1.3364879624814983 -0.18660989611518183 3.651293790458402
P 8.621936671564002 1.9495090373758177 8.189032438050418 -0.436577430551403 -0.21721013749954204 0.6392911742069829
P 2.160226310650762 3.5360410493442145 10.753489221219649 -0.036154081323053866 -0.8805488395740318 -1.2011088395168348
P 4.449097506601464 6.309970920883376 3.7695306489767666 -1.6889162718878075 0.9223994570612307 1.4074858909566146
P 7.264725372609519 4.02999067208957 10.703549300479748 -1.0061384872520993 0.5243788037371033 -1.272862415211053
P 6.524184326356566 8.139479556488599 10.431522830608726 1.5839998362883754 0.41226199373449 -0.7917174824619203
P 2.5508711603215843 8.784785231398738 6.162456049995412 0.6129659060488928 -0.45541487497288025 -1.2960637930281806
P 7.325090704794894 4.325902205955187 1.8361804972858953 -0.3782396140424583 0.6243142411821764 -0.9672065860735923
Ni 2.7026106003514494 2.013671735082003 0.5704656251614266 1.2395802561191556 -1.6398161719270468 1.552310218494578
Ni 1.4236286824386508 1.2853443308166554 7.232257897406593 -0.5071819802428427 0.4771720641443136 -0.6912207731967386
Ni 6.91010072569138 1.1981601046405599 9.395308498663459 0.5736475680652442 -0.7092395783716624 0.3407285044708777
Ni 2.5506520815415374 1.9271995149410592 9.224912674856116 1.3147482568115614 -0.32470487534911174 1.693722435027199
Ni 6.334872875548688 2.5630665457441855 2.6840172017232335 0.3024326942144727 -1.2751782078284233 0.6982414274889459
Ni 4.668614444208286 7.08713463653414 10.72695604247124 -1.125280322422294 0.08883932753191152 -1.1324572997867077
Ni 7.434255835235679 6.1938865523061155 11.345919319737261 0.2304780582530418 1.2478378681422573 0.9640919517040107
Ni 7.824188678871349 4.285600838709091 8.481900602529885 1.0445119448239755 0.44497233948331755 -0.12831424569808225
Ni 3.169805227083599 9.008172560786385 12.669069345363981 1.3849267747091762 0.025532597053465705 0.46916950555481135
Ni 0.27986766454019396 4.89517841590661 10.443560296744044 0.04191746616939232 0.17316868300861146 0.2717064687752095
Ni 8.80349821052773 2.917672936097321 6.105648009501045 0.5770892467569416 -1.2821078450687209 1.1729138651398574
Ni 4.092765870855461 2.669721398496934 11.83739974206584 -1.0232802891387087 0.8320984573821283 -0.27079964069022394
Ni 1.485755773146902 3.4664652801143743 12.843459705594178 -1.893832422511345 1.5001199096442681 -0.9051159873904346
Ni 3.2092941771870214 8.841070221305742 8.200174419672294 0.6358566946041371 -0.37881245582679274 0.42038513706225666
Ni 5.725012321593608 8.108772014152049 3.5469630393577942 0.8904252181474794 -0.4659507415071975 1.9152471407416953
Ni 3.2859717502033763 8.628426880422888 3.761821814403872 -0.2277444613719626 0.3850149850930789 -0.053316966255585595
Ni 3.837584733513532 3.114825581574372 7.201088463975446 -0.5745579956946556 -0.7090176921688435 0.0399423447208925
Ni 5.316722501846522 4.974211085808467 11.59917438947128 -0.9937390851464821 -1.4295459560804478 0.9085322121608352
Ni 7.719532919986526 0.18648259606052553 2.8062622481610577 0.24806748920003086 -0.42318403996363246 0.5675581673380548
Ni 4.923804709832716 0.396336333810786 1.8858538721767404 -0.36154261300275153 1.5721771326218343 -0.5336993098070808
Ni 6.141134207727364 5.841598745708475 0.3498943709256302 -0.2893072125761082 0.37381577394314974 0.6019849815573567
Ni 8.004499643132307 0.4251880963146899 11.590610234827952 -0.14116024842281497 -2.789918181378711 0.10766494487884685
Ni 0.11577765828519462 5.230204640293069 6.101052832089565 0.3509977476073697 -0.411906153056968 -1.3935366278653742
Ni 7.527784217750628 6.400185736850118 2.73594800087681 -0.21062168564874695 -0.02103805161722183 -0.4276940120188441
P 8.673703161632544 1.7569205331497397 3.9426247930916865 0.5494558013103892 0.270239911532012 0.6521029812596705
P 1.8710879624015908 3.873048111033596 1.6556312848516355 0.7995153812397844 -0.8444379527840877 0.690989631022539
P 4.649362896411679 1.405691607322325 8.40546675465633 0.6212335453743236 0.8058330959276961 -0.24269439781357555
P 8.561543954531123 2.155972531004855 13.050061036288994 0.23860917200060838 -0.2548906827694513 -0.9795324546287969
P 6.445708481687328 7.767949330376853 1.3389017899120792 -0.2158762491794669 1.2482039932324245 0.6792402037960947
P 1.8217861086085751 3.4289023976188626 6.186691640038081 0.5350697077920462 0.2965404970997538 -0.005795009415222278
P 7.065391067614502 4.447509185446125 6.203017573292814 0.4933245055344601 -0.7413076625508007 1.3155941497516246
P 2.4802456386040204 9.064959606230998 10.570588563212889 0.02144120059291146 -0.6379757978296691 -0.9528580306614042
