# total energy = -340888.5867380157 ev
CRYSTAL
PRIMVEC
9.07537036137374 0.00000000000000 0.00000000000000
0.00000000000000 9.07537036137374 0.00000000000000
0.00000000000000 0.00000000000000 13.28272187636834
PRIMCOORD
 96 1
Ni 6.5781730928889 2.413467615702409 11.444698718699666 1.9162876661910675 -1.0982361738203084 -0.0801993924687264
Ni 4.828242084695313 0.665480551778433 6.3030496189814 -0.28500987075233497 -0.5769696904599418 -1.5912485474309885
Ni 2.762678780736902 1.5427403094296517 4.477446360046094 0.29194182198547786 0.6151760263263341 1.262033185806033
Ni 3.5030746973929756 4.260051315172208 4.459939063638494 -1.2102789360518769 0.9972908070534825 1.359521190151878
Ni 3.562926763023644 2.947534993751471 2.5664338858178715 0.20277570724176688 0.6966977371509099 -0.6165430818771898
Ni 5.3275961722155944 4.591148041541225 2.774255322801872 -0.8903442283978988 0.11342010219506918 0.0006402046871601877
Ni 5.540649560046613 3.1969352387243886 0.013225536807213466 -0.33667464611647824 0.5098561846408961 1.0202882963899202
Ni 5.799914732288755 8.256508506577507 12.331917787468868 0.38429430487697047 -1.8358373340537995 0.5917813015514776
Ni 2.2941174238739146 6.541889763337511 0.17976674547769558 -1.730672015668355 0.8133276045325283 -0.5315298129595878
Ni 0.7849732269170713 0.27998787226656524 -0.16395926588474669 2.2224255771712698 -1.056965854316612 1.8687230290382268
Ni 8.195068251184086 9.411612534084076 6.599294201659522 0.9839917759517309 -1.880508965929561 0.02156435643433706
Ni 8.663883718409114 2.6421941676492975 1.2860117031228804 0.4353543567775793 1.1307315753448526 0.1841994869014763
Ni 6.940098851395503 0.890125909803546 4.538201424999015 -3.069707684272371 -0.8306408989999953 0.5941366891575316
Ni 1.0294010766270563 7.764532694926481 2.364855395907007 -1.1689224845922772 -1.4640375620994142 -1.0046439049844438
Ni 7.774869541439495 4.007256881792031 3.7231469764383625 -0.38175148385045865 -0.09675703971709143 -0.7512400911731643
Ni 8.076634671732952 4.086076470875027 12.447543447419449 -1.2946748831004542 -0.1323573054192043 -0.09142842841532642
Ni 8.217284757122505 7.899565126240917 8.835254839032384 1.0591569484306598 -2.4338574174261374 -0.1216193501764099
Ni 7.040871760684804 0.9993706770558839 0.12086850124168744 -0.3020516567259701 -0.43553022023381116 0.9617643320120984
Ni 2.300751519397193 6.647781181347919 9.052546424687439 -0.3659291721062214 -0.1980101675323235 -0.7274874688382568
Ni -0.13855185982870138 5.354459267631331 1.249621284204631 0.7945814342732768 -1.294766928593628 -0.14723859340641093
Ni 6.797025642196491 2.0724424344736567 6.730833523032906 -1.8494158440691826 1.6992665047738797 1.4215796500455196
Ni 3.59180459059556 4.428735218716898 0.5948360560570916 0.09638474397933723 1.2627610651109928 -0.23827287170711225
Ni 5.93997491862357 5.7865013353210335 4.815292439138315 0.3131253980416284 0.09314772509927828 -0.13127718498114813
Ni 5.3333227307315845 3.0366914293474805 9.75629145930417 -0.014241854630994826 -0.6932151779189482 -2.2519518687651603
P 0.522473592780953 5.75508240412871 12.298750940000506 1.1581140811228636 0.6520245626132513 0.7888584157465705
P 4.38496470885538 6.268321807860503 12.676471472581955 0.6803997713218346 -0.48021984983170196 -1.1712043386479185
P 2.610212563512455 8.698152315804322 0.9731510253783155 -0.23106786931824075 -0.09431809125829563 0.5998728203103605
P 6.329725761773635 8.339675197925414 5.708395977862774 0.8775023394382242 -2.7939712684021623 0.208780261564634
P 4.9484181352004395 1.2057082910329684 12.64357053345673 -0.05655064270153486 1.8495048042385631 -0.7451907996552909
P 4.445724311493336 6.297589876345554 7.890680338939565 0.13013021586089846 1.0532161574661927 -0.09001277901472239
P 4.602129239329415 1.336030605279579 3.321703426486394 1.1151285787002732 -1.8974365949228353 0.6905425161827914
P 0.21906400543028945 5.871519402163808 3.4565225866041183 0.2164660602446659 -0.29271186738228294 0.541707524823538
Ni 0.7509977639752164 -0.019895933810783008 4.345720993586216 0.03090671688118548 0.6121264408667328 0.6940937238691595
Ni 2.020939709310041 6.4784620018981265 4.68420507119456 0.1444468895938867 0.8026963500709273 -0.038055155000508656
Ni 6.222654545653753 5.875567017216314 9.14606992836252 1.0283512759037128 -0.06801107793265061 -0.9377628268911785
Ni 9.137808618985174 2.6332095512771425 10.221399637854427 -0.8416066539828796 0.5469325206679032 -0.37806040815211667
Ni 2.8882002242149567 5.227349634390521 6.830612679299227 0.08320784027774701 0.8035769529036677 -0.9426435520222476
Ni 0.7161193017111097 0.3346624392706533 9.202761042596803 1.3373780783959355 0.4155342367278585 -0.17118379136809872
Ni 1.757155002771603 1.2956361330851733 11.209275451175996 0.7191614654710647 0.4944946145831613 -0.16209339903105632
Ni 4.197767050362007 6.858211787227874 1.4724297873269923 1.1597500740643896 0.44068296807934426 0.978896877927327
Ni 6.1572120520581874 8.28115721169546 8.00523056753651 -2.096463890865764 -0.33380889453290896 -1.402014326319082
Ni 5.3653406363487175 3.0033848211799974 4.706240977268529 0.8519759130323457 -1.099292382998965 0.49211171617328153
Ni 0.9611724444191163 7.820291768654279 6.637668496475705 -0.4984481999142706 -0.9278075154506796 0.347941220169233
Ni 5.405671580952613 4.328343474970658 7.065437879935093 -0.06155632344624238 0.668667827596887 0.3928630203825879
Ni 1.0616730926062308 7.809256118645651 11.163383119791439 0.6313960877296223 -1.2189399541609847 0.1464225252630188
Ni 4.895554104525892 0.5470506024753294 10.557292697306963 -0.018496773252606853 0.5190149683220288 -1.585871085169159
Ni 8.185530037237484 7.3464848478891644 4.744415613943107 -0.03566814282557083 0.3007915590666239 -0.1092060641137216
Ni 7.469111248313969 6.270999042032004 6.754090973918686 -0.3198169511291911 0.22432026618176207 0.7311520621740376
Ni 2.2046796518056455 5.450458532262295 2.4209756693637052 0.0670379153861039 -0.08401490956007467 0.2948487112196277
Ni 2.862417097837894 5.4957446289259835 11.264690568378033 -0.7146851748672659 -0.18222487967360873 0.08453761483276408
Ni 1.0584876377106485 3.542779441461842 3.8636119242784277 0.41190203929191 -0.2522694430965204 -0.729805318338156
Ni 1.6818022050564492 1.2402945263807286 2.3729851124182963 -1.1620049315368375 1.0518874113524401 -0.9773938110192392
Ni 1.8062618302359768 3.590688320076595 8.066729812835407 -2.0046945341712505 -0.5270152129186859 0.5285059385315994
Ni 3.799113269170443 2.6214750977729038 6.736730698506267 0.052451532931496764 0.9918817202227691 0.48569912777871843
Ni 4.278692125301911 7.230873708530698 5.786603887002857 0.11254592712023198 0.25174956603730836 0.14950759194624577
Ni 8.582477648855345 7.499550039538421 13.476117757832865 -0.3990946031145965 0.10861856704136778 -6.864845440633339e-05
P 0.28307077548032383 6.169754213498913 7.957053965504606 0.348265179167555 -0.5606082183827829 0.05961411211820701
P 8.751751451454773 1.861022613255757 8.099590820332311 0.12321086303324587 0.5201920193492654 -1.0609343520460566
P 2.214871292397494 3.4939630258398005 10.127517657061466 -0.6249019953648465 -0.322863965485631 1.1489185306665246
P 4.054739218013359 6.252703095965071 3.6740274434558864 -0.7523315244651301 0.08522281382524678 -0.06987152818015709
P 7.524171518546155 4.226644877933923 10.178363325431805 -1.3205754050162999 0.4357112258963658 -0.020686581815074052
P 6.446180910548879 8.009613063744705 10.163977956329276 0.9801947708031441 -1.0142289775697177 1.2087182764329762
P 2.6819170624583095 8.724289381614227 5.649553093384211 -0.2494720828570413 -0.478772318751898 -1.1346242255310395
P 6.796145331299421 4.2956539919681305 1.3863444569636465 2.299408519585227 -0.6743239974413999 -0.19836497976858097
Ni 2.850101820648991 2.2070937002450326 0.34771282143546006 0.5720110609030858 -2.4632500116556417 -0.719620150275038
Ni 1.719056599205637 1.1434875538132776 6.803954687247138 -0.9527114777812107 1.188672413525695 0.800538166077344
Ni 7.229603156720495 0.8841080319082167 9.449846160664128 -0.851248805058334 1.920241765742809 -0.7667836953347182
Ni 3.1927787192310078 1.591665629492568 9.026153433441479 -0.7783235776535177 0.29557941873806515 0.5087632086870335
Ni 6.406830105912855 2.128646201335026 2.4198993304730614 0.39117277716435855 0.6162849431197966 -0.29274194928927
Ni 4.47201565859448 7.012710887348646 10.26317356629991 -0.3784974956895353 0.7760579215477925 0.4505148665681015
Ni 7.928905797686551 6.406022397976368 11.179867621991823 -1.8481475188797203 0.4886885494243454 -0.540311930027592
Ni 8.155091246013031 4.123276412803777 7.945179751301246 -0.037539134596038574 -0.13460290692027138 0.6388929103272997
Ni 3.3873274274834166 8.809280222346782 12.1803082851793 -0.991817442643737 -0.8642336473537761 0.861848177840735
Ni 0.5879414974127217 5.2950881966145245 10.065752503419434 0.24529866820564208 -1.4249372536638427 -0.7624300463517127
Ni 8.885513330959006 2.6355146952756554 5.872862556934594 0.24075450047838537 -0.29447512993029284 -0.6157604380748944
Ni 3.647128046559859 3.143254424743281 11.584061009075874 1.2111775366067463 -0.7012745578883148 0.10760580950613725
Ni 1.2584815680067873 3.655014543153195 12.359107596207227 1.010832550293659 -0.3715359767700375 -0.011032860775393902
Ni 3.2516506448938047 8.511471953405103 7.767084688990975 0.7724118401547729 -0.7685073628940442 0.7153328357535937
Ni 5.518115416155643 7.921055602573507 3.5561429238941633 0.16954291333056606 0.8087726381719942 -0.4351252714859087
Ni 2.9845715790189096 8.567185650282536 3.135944214149573 2.407507723788015 -0.5619315651798967 1.2244922514377814
Ni 3.80845182497544 4.585829874678515 9.024507161310257 0.13466692738898742 0.02004149203190742 0.7591408340774797
Ni 5.566223952911999 4.925012755782472 11.23708964537537 -0.12852636170888831 -0.23941212751787797 1.0145681060766916
Ni 8.465505203985947 0.35690707885629863 1.9796304398122893 -0.8579264741888256 -0.7713751713601424 0.6619680469792083
Ni 4.9346417234298015 0.2620122867632044 1.2671639745555152 -1.0652432638340559 -0.24811454038788236 1.114270858685668
Ni 6.719322323632461 5.979307572519448 0.028234383833748586 -1.2894887109138244 0.47376689511750664 0.4799485984481864
Ni 8.145389675405118 8.947861123359717 11.391580577663078 -0.6490976187744434 0.31389312944558845 0.12019881567979944
Ni 0.4728912159247601 4.922281069390534 5.962507247440525 -0.5920250421311675 1.6915737641153124 0.08938080185767833
Ni 7.2373444473926645 6.314479140051191 2.6578990955604227 -0.40207733989200434 0.016152698500462505 -0.3164943145138614
P 8.455640276716723 1.7282317983493223 3.7080310400449674 3.6676249235182574 2.295395541771092 -2.094426805831077
P 1.7070226584889931 3.4870203677340443 1.59383373540298 -1.2285006012662263 0.20079724335915738 -0.5091151927098135
P 5.194542171577046 1.244777759196733 8.299761720344872 0.46965261583881696 1.3403788128954723 0.4090905379850438
P 8.740525218674616 1.7730913526195866 12.425308790740884 -0.47465289726688586 3.0486999716724528 -1.6583641101325635
P 6.659379504301064 7.976297380207149 1.3291623652084206 0.5550530928925086 0.10593150712750787 -0.10828046697565868
P 1.9471660259875696 3.3370589526497136 5.950898034043292 0.49844794280395455 -0.7626398483696737 -1.8056314998943805
P 7.0714103809800575 4.2327616773630465 5.7523879267540705 1.0562935108399356 -0.7799963373702503 0.976087690613306
P 2.747477535864822 8.547265212972556 10.005063688668047 0.15083453828778537 1.3553642305607112 0.05337970117272098
