# total energy = -340892.9376944836 ev
CRYSTAL
PRIMVEC
9.06821600298129 0.00000000000000 0.00000000000000

0.00000000000000 9.06821600298129 0.00000000000000

0.00000000000000 0.00000000000000 13.27225074968774

PRIMCOORD
 96 1
Ni 6.736514781889291 2.147616556952767 11.47570599361507 -1.9355130900795825 -0.736789205855157 0.5760705756844402
Ni 4.622142305255188 0.48303122746483274 6.106031639747544 -0.051820584215717204 -2.1770579476697476 -1.4088478043011476
Ni 2.6558537979619965 1.7098393552441427 4.949766978857199 -0.3618650293391768 -1.39767507551378 0.36034422181927617
Ni 3.273063792159819 4.247688456755847 5.0784812385525395 -0.04313308374404829 0.672526539221345 -0.2768157649773168
Ni 4.834574336227643 4.590321934868338 2.4741067967173906 1.5305244900780546 0.08969576199493585 -0.8504733603448902
Ni 7.159093653370398 6.176579640744572 2.4909627968527785 -0.8216124702491399 -1.1010795568063747 0.2946422516357764
Ni 5.101007594231643 4.495812986401041 11.396828836106122 0.025115307010389002 0.08405296188686168 -0.23843228010311196
Ni 5.738956598710095 7.882138797977148 12.208440527152668 -0.5032541059433462 0.028401691071144635 0.6471620923146274
Ni 1.5541018114927152 6.633744688531022 0.5516386302108544 1.2207129869010074 -0.7098260470027518 -1.06563947083121
Ni 2.7713556667614565 1.3660451454674967 0.5683604207475745 0.023527650808294963 1.3405029971781623 -0.6490598235579725
Ni 0.3005497007140044 9.2380638142478 4.802696836079198 2.182959914976479 -1.3213788747542017 -0.15657632586756903
Ni 8.830193589323397 2.480565180242473 1.2749059461126961 0.379832669561191 -0.5329326068443854 2.0846314170072096
Ni 7.170238490989502 0.6271233680669891 4.989543802073181 -1.9712033443923405 0.184238824779844 -0.34256247235582293
Ni 0.8145779045414276 7.402058368039781 2.6305335248944095 -1.095343682763862 0.5171141517548902 0.3144885969377423
Ni 7.455442956374744 3.7684876437827226 3.6950740864898126 1.0382353677866443 0.5529177917170607 0.6548712880334271
Ni 7.8160768434977514 3.9198271027129405 12.932189365330814 -0.9992402174703693 0.6505433500820345 -1.2008201046318223
Ni 7.9531338620291985 8.855267206912352 7.436880317964405 -0.2989591338435755 0.08295175840288294 -2.24090615247396
Ni 6.929985172941854 0.6806856934380255 0.5494740470215295 -0.06667436139909808 0.08241131251838066 -1.7977623815589492
Ni 1.8376739979752406 6.561035731631119 9.169002093873855 -0.7225681771597684 -0.30729670717499336 0.48224536490216297
Ni -0.049425405174262284 4.968140091550501 1.6197321188845042 0.5834545268533371 -0.4395917918976945 -0.014680484830310201
Ni 6.336007948459366 2.0420262483792477 6.81003171684604 1.451596508122584 -0.9647627525187901 2.0307914883686182
Ni 3.4693271937792525 4.283045431431916 0.27847947630604913 -0.413083718304837 0.7642683851120322 -0.3443005380928522
Ni 5.712468339405452 5.63242319565945 4.715843275665642 1.2880512071363492 -0.4026887482237581 0.5035919488987392
Ni 5.366833281755188 2.7760348662825782 9.3485890460372 -0.3314105695040615 0.033787123752774074 -0.22808821786462657
P 0.20947488569369976 5.556422476305734 12.431998352490364 0.05764490420697814 -0.2654255208625042 -0.12405418487014763
P 4.0302417022656005 6.173179059697247 12.494616198485026 -0.12662605936238192 0.0031010075228269174 0.396870084659452
P 2.3341951037494146 8.490552622532553 1.3408028590585952 0.6234251537090036 0.015012928469064466 0.7107359604115308
P 6.307669773064978 7.816521186087935 5.7769333810250245 0.20009584641675862 -0.4098479849763587 0.3179369604976589
P 4.986213046290026 0.8880694484930227 12.676393124842852 -0.6126203497840159 0.015958837322101547 -0.8726784356870196
P 4.099223622337634 6.17508338508375 8.217261979493918 -0.6595329551751544 -0.2034583351310883 0.53328561930843
P 4.653300695864826 1.1138489867816372 3.8128919776879053 0.3933301898269935 -0.5846053526283287 -0.06227468966950565
P -0.03364761593627994 5.52709586535359 3.819567998400017 0.7494045806263223 -1.1184756407956349 -1.081521689279105
Ni 1.5229434208830783 1.1096141298507 2.7506338860914683 -0.6417540339251787 0.5535523399772659 -0.7664170560239187
Ni 1.7758922415074128 6.488889004131039 4.6271579355945915 1.054120414448017 0.01115704505808401 0.9877499574425826
Ni 6.059717539526182 5.54486956896095 9.127114189943693 -0.6037857822115213 0.46781633396102656 0.2759919835244408
Ni 8.794120225573359 2.3006880451630907 10.36805694619892 0.6320429772850018 0.5046067633164987 -0.6929642382504065
Ni 2.3795271161643083 5.271480989188152 7.105512284745497 0.25688020239565434 0.03130909452592672 -0.08665723227892817
Ni 0.4759616461728441 0.054762957186145954 9.232549432021456 -0.19187962915455342 0.08670814012152164 0.6001353299431277
Ni 1.7418320217373906 1.2982965027886266 11.540395020172959 -0.6889466324505812 -1.2469222983065236 -0.46535630245630827
Ni 4.101127947724137 6.987559277127123 1.4550369912436123 0.0917827264309516 -0.23844487850860227 -0.3422971345095782
Ni 5.719605025496775 7.655016256880242 7.883491775823177 -0.008761034022081686 1.0524499687241293 0.7228263159171616
Ni 5.2287334183692264 2.863398060442427 4.979761917337845 -0.2165977007265238 0.21297578770322032 -1.4976207973714981
Ni 0.7272781878944617 7.587430842091643 6.721386276925945 0.19396068005329822 -1.1068051464362423 0.06395104893066406
Ni 5.1924514856482835 4.538605898300598 7.12070880132979 -0.4744088995768797 -0.04946391105808255 -0.4458462574478386
Ni 8.056121592574497 7.052922978964801 9.006788030165094 0.4909660326046126 0.2273163726956085 0.7981033313836062
Ni 4.548707891065188 0.48059187732688385 10.446934103707866 0.5984959945674918 -0.9839956326064732 -0.1738338273964361
Ni 8.002147570191331 7.170356377799143 4.500036054651013 -0.03836343026954683 1.3628101453157948 0.765301711472553
Ni 7.602810536641686 6.195505007799961 6.8096336221581 -1.688265525677686 -0.397903925240605 -0.9584447807205624
Ni 2.377967382990601 5.284321583222857 2.532411799122432 -0.7200855199472309 -0.4532042404748066 -0.7680566485098708
Ni 2.304260922316815 5.368773880006194 11.341788391506515 -0.3819633427509486 -1.0019797278887197 0.5803360358290135
Ni 1.1772358175038031 3.4768084720833707 3.7375060833875464 -1.093551623860446 -0.07495537046096769 0.18070047260928232
Ni 3.546951123819559 2.8252480751994873 3.0509323972187765 -0.20905074161720127 -0.5327891392879857 -0.8231618170141307
Ni 0.9982836404692935 3.6910178734165617 8.486316858780002 0.10474262902572927 -0.9314417697691572 -1.5529805050887255
Ni 3.900792917064039 2.4648408934796358 7.07994989030734 -1.2324583003623937 1.5259499833334946 0.04573118348852769
Ni 4.110513551414759 6.819017412205495 6.1040810664587974 -0.38230889901582543 0.8040518356575571 -0.8079977076791827
Ni 0.8678110536670829 7.479555343054321 11.535005779329158 0.3132045880189961 -0.17533972251800126 -0.46090855109759976
P 0.3060985421616287 5.735075402208079 7.832565580880027 0.49752311699683993 -0.4014595038023473 1.0694950971318742
P 8.46564223283387 1.8629471163189713 8.079721625042943 0.7923939397036548 -0.7727656239497659 -0.3376331533750056
P 1.8501518633648975 3.238069546128798 10.374705762262652 0.7816346443046216 0.1369104720075255 1.4719208215022328
P 3.9130984863472977 6.102845975422408 3.6912255355658514 -0.00516226092722982 1.3171584089149508 0.805454886652671
P 6.959955627238958 3.9434860785862074 10.28259717060396 0.8270305559409176 0.3625265741825756 0.6027959074944264
P 6.54839463835119 8.012702973762233 10.227543123680164 -0.7407201654784469 -0.5380915253375056 -0.7303341942584325
P 2.445616275292083 8.422459387640886 5.6127025460497935 -0.27405491440272806 0.6129515078711895 0.6249834993350593
P 6.786934063550985 3.8647014168817466 1.5802472922277866 -0.42774414853048914 0.9017599264340083 -0.4833144295966257
Ni 5.028108204793089 2.6044188760941673 0.5842588172600354 0.9373547928194823 0.9710246742681019 0.42879701527503566
Ni 1.4639637431982475 0.7219923247144975 7.106945062893437 -0.07030501617314988 1.7555759779988862 -0.6094928598986278
Ni 6.905718626588133 0.8551726808519925 9.16106468429859 -1.3108054701137295 -0.09586229581696393 1.340150241824434
Ni 2.734783551124476 1.5483344260364496 9.096004767701139 -0.2706674859877338 0.3336227466640319 0.6869900229448427
Ni 6.413033376235343 1.908415151975758 2.5584919887013946 0.21389058620800583 0.13911853540243782 0.8845088526630445
Ni 3.963399881199351 6.913408473863153 10.419646027740894 0.8006116996277567 0.460179129130743 -0.7286262104283903
Ni 8.170952413380618 7.076028793654369 0.38680747932806947 0.33785221136434723 0.3237507389659585 -0.5880724852413227
Ni 7.5627290213638645 3.8717474208118072 8.035166758750066 0.678872793154347 0.3780382966649296 0.31003287515923383
Ni 3.273326770427479 8.359952173882963 12.449318645291413 -0.26391654041714546 -0.11269582243453494 0.17412359072271302
Ni -0.01330670034359175 4.94922379271124 10.244093524932099 0.23180757569774274 -0.39457717486021726 -0.026267932557593472
Ni 8.911907284836621 2.2646418860614297 5.8472492356892225 -0.4466201594993856 0.18807696757901157 0.2576373922766531
Ni 3.803772072729782 2.50852249055956 11.55464934910174 -0.1778627460501711 0.657194536849965 0.17170186865509784
Ni 1.1172949089095947 3.379968992071638 12.624856638954409 0.6115219745135145 0.5579620390091875 -0.012544926544546137
Ni 3.0577480684592313 8.285293550515926 8.148949293771997 1.410999560536828 0.18186415390008034 -0.5920317269993869
Ni 5.625331850648758 7.958583859921048 3.637140880945946 -0.726258224416846 0.10977916300837223 0.13484947571343872
Ni 3.106063523979646 8.522055605354986 3.435004902563183 0.35254092372477347 -0.8356617492533543 0.8333318155685971
Ni 3.525096722955407 4.254553096363383 9.244640084582523 -0.3713495717908443 0.35502255249604664 0.00020080315689642835
Ni 7.25686715964313 6.07386395668306 11.21860937093461 0.014822666835129311 0.33989958081167915 1.0620386408538292
Ni 0.5731176069273811 9.097869192936688 0.2586391262435274 -0.496401601797887 0.07765991387632432 0.2514662304689346
Ni 4.737979698051318 0.376971185295976 1.6857750301100352 -0.2925264908443543 -0.852494504539977 -0.05585953017178121
Ni 6.00833702695511 5.684873757733414 0.05759496108235946 -0.08854802154373784 -0.36284667652615576 1.581317918580838
Ni 8.030549223098602 8.77309103237669 11.568425783040668 0.001983606088932068 1.070204978714705 0.08566298668645893
Ni 0.27967738765632066 4.630766178791208 5.899250014243327 -0.521530792765347 0.42390986238606354 -0.4152341889889365
Ni 7.674005101448514 -0.25638295407132783 2.5535543450206766 1.473107385611166 -0.175213224242466 0.8450599026388026
P 8.573962074461377 1.7019137343498405 3.4873366710058935 -0.45197088228833776 0.045500041314328096 0.10870804143138052
P 1.975628769903182 3.274587252469021 1.5880912991769531 -0.7601024266598007 -0.2410458064665591 -0.5462856311125237
P 4.774098402881989 0.8884167611706564 8.226127974400507 0.41274587534944396 -0.07024716635202095 0.8545007363367283
P 8.544535713131845 1.703137943526878 12.601816115420949 0.6329271796621679 -0.40673077950361564 -1.2128058162387887
P 6.305584083355951 7.691116825278661 1.2413626146618675 -1.0510970542406608 0.2486364743296234 0.3417862563114307
P 1.8626660016190588 3.112302456674475 6.434891404385944 0.4073894961335371 -0.12685283066120734 -0.31485652180012225
P 6.937402973733089 3.878793424741868 5.9228618353927365 0.5677947088288932 1.5151089268539326 -0.8494120089599114
P 2.2965348021772893 8.597303662770226 10.24819507908598 0.865373160274858 -0.16894281785272194 0.44479904713024687
