# total energy = -340858.97806919145 ev
CRYSTAL
PRIMVEC
9.40453701810121 0.00000000000000 0.00000000000000
0.00000000000000 9.40453701810121 0.00000000000000
0.00000000000000 0.00000000000000 13.76449055116361
PRIMCOORD
 96 1
Ni 7.0161512429266075 1.7241431393224453 3.2312004148286575 0.9644341655347777 0.3740032073636075 -0.17552844149003963
Ni 8.688588238825439 5.868054792760815 9.034089291072391 0.16982599178862368 -1.0051804942142044 0.23519243300957557
Ni 2.7529336354191245 1.8503802370261901 5.329693023086295 -0.009987707340331185 -0.36127110450891975 -1.5471507857808258
Ni 8.711121509040604 7.091472178299423 2.3249190580411936 -3.4649173505102646 -0.21091247741628838 1.4381565805675942
Ni 3.9376419474161524 1.770074897140004 0.3110042707460143 0.2205461438513105 0.2315044426350271 0.6384331970820618
Ni 9.20370293394033 2.753243985134108 12.087067150030204 -1.406210880898933 0.6622364701492466 0.2780627500105405
Ni 8.542187814184583 7.678682052658663 4.6505528608805315 0.05285236791434123 -1.1111163722170865 0.3799763942279069
Ni 7.173489143886426 9.304162196226809 7.056930255021758 -0.7972579526641753 -0.4550880877610808 0.20032261771558402
Ni 2.683086140474201 1.2429788221193852 3.016336843062442 1.0161441923145598 -0.09465027778673377 -0.8882662628229476
Ni 1.555388130665961 2.97394025063465 1.495360853066061 0.5097170879598705 -0.6753606662360303 -0.6085505505900165
Ni 1.1206916298790668 0.6713278134713161 13.32734404872187 -0.2895486391629529 -1.2006946347975513 0.25756411583655636
Ni 3.475700503468434 5.3247923189506015 5.4000709339077355 -0.6198916866344486 0.05679695438438606 -0.34619698378461666
Ni 0.9971066115579087 5.729544774509996 1.676556183024975 1.7383256755588707 -1.3181174303941106 -1.2793817043868094
Ni 6.178507957649313 0.25427798556912046 1.1221004294943557 -0.24761163260953484 0.5390744580760652 0.0022571714652928868
Ni 3.3859530086172955 4.116337551488927 11.474258126453233 0.16826816038320055 -0.8805958907618834 0.7428233278643788
Ni 7.481873310675035 3.6903966744792944 7.300025305860974 -0.5074015524528164 -0.04273147743025544 -2.186491068058189
Ni 4.251386700190839 8.05219263690972 3.0460401321474087 -0.441520119268659 -0.16935033770378577 0.23808929494139638
Ni 1.5004750401875162 8.43196664268135 3.184277418830515 1.8380489969931377 -0.9357198283192207 -0.22783573553418826
Ni 1.244690447820203 4.897610043081035 7.689973139561973 0.1661824814987654 0.13522022878929615 -1.2539570936661177
Ni 3.7585513527970353 7.747429216795919 10.623420276020731 0.4726255824242118 -2.524942346459116 0.23251925705278667
Ni 2.7350179927814406 5.5414728472299934 13.200999739298403 -1.5760569272922147 -0.07183970765012145 -0.32962416702760006
Ni 5.6223142457147866 5.540165616612335 11.617683896098653 0.42263485232838177 -1.4499666858286446 -0.41653619562981165
Ni 5.926861361481781 5.493349832333915 7.0964067387676595 -0.19921755757686335 -0.9576616226976347 -0.9801914283690344
Ni 2.0133890736870708 2.6437375584290197 12.801264604131243 1.0792305792520833 1.652397093915851 -0.36243530002034996
P 7.616762582251047 1.5107541989292426 13.124551199961148 -0.6207486353181051 0.40232853667086194 -0.03860511396670771
P 0.09703318952379683 8.797013143796493 11.647539538680068 -0.34298721859806736 -0.6946683654257068 0.23636896981618002
P 1.1947335482446768 6.656324259745279 6.091791545014514 0.4967345596572736 -1.2595916662440758 -0.8463020025760198
P 9.131805249969151 0.04574742889593197 2.7876674112478694 -1.0797910797412433 -0.06272540405367907 0.1972108115594797
P 3.3942195964800375 1.1470149284317586 8.910373549689467 1.957473653511074 -0.37479407869601905 0.009172924748519688
P 5.123318926705402 3.4840329230889 12.85524946682578 -0.7511868693377256 0.12660009122045293 -0.5064240190308955
P 6.791994107877159 7.187953321512021 5.89746466029707 0.4655002842333402 -0.7362299909175772 1.4995496389630947
P 7.6831021849629755 4.793783956613827 10.860857557510426 1.4657532592389402 -0.938533386508616 1.3003747616987087
Ni 8.683218248302541 1.2520353910748128 10.1969273526999 -0.2726325801339047 -0.5123743230770594 0.6409281955897737
Ni 0.9681124245489954 6.02528924381564 3.8604852464565265 0.3592286201575942 0.17047262423368706 2.446827090212928
Ni 0.3827806361922445 1.9837083554904669 3.553192946392451 -0.6417329508792561 -0.15808582053356 0.5232176935494666
Ni 7.0899486433349574 8.006289092702614 10.21439439893138 0.07629054433262344 0.022224358615839147 2.3026591653120407
Ni 8.834490223014956 4.2170601408063 5.076124139593228 0.6063244894729751 -1.6161113721109392 1.1322025034634242
Ni 0.6432787824125797 2.052069933618197 8.068661861784845 -3.6786068764510578 3.8124263682380857 -2.024068053601856
Ni 2.2035958308246877 0.02364676737437944 7.02575327501746 0.6495933274639393 0.22823862739956177 -0.9711591429634372
Ni 4.909854750017657 9.03769405003461 9.04174270313462 0.9823652960919017 -0.029721952544464938 -0.017954784706207788
Ni 6.304951955163047 8.263841737991651 4.180454862150837 0.11534585846287232 1.0995623488308999 -0.6384231697797328
Ni 0.4768053143880649 7.589969056857471 9.683773503511496 0.41842698489462127 1.4846297844284688 0.9226349701108045
Ni 4.1486797536049345 8.749858796192635 13.330688302014236 -0.4899576459447562 0.30253219590681446 -0.0374602017289871
Ni 6.459477899614379 5.546570106185176 9.409515579473208 -1.9923712367192075 -0.8932084373195713 -0.9123333310744804
Ni 4.816307822292175 3.7715013999949836 3.7891574774165 -0.9842650842177758 1.3483898561254068 -2.7994004098375336
Ni 6.655317974305788 2.7849654878201493 11.295044332401803 1.8208048652007094 0.6483543128505157 1.5467067562648718
Ni 6.180078515297867 5.435323840168817 1.8480479118954047 0.41965340110255467 0.40002714223119495 0.3669511856128325
Ni 5.625229652128268 0.5510795248130714 11.63312802646065 1.226613154435526 -0.24809165756974694 0.49559916050124964
Ni 6.550767738503618 1.596608215537861 9.205869739223123 0.015828225281508224 -1.3760752378558172 -0.6799595984606225
Ni 6.63234269086019 7.439835031099996 8.168605755453713 -0.188115791236747 -0.46124125184667014 -1.647070539496615
Ni 4.880728899493296 6.464076718118225 13.525056566693678 1.0990041623345845 1.7462498155019537 1.0997736935107576
Ni 6.3615202441214045 2.9586672828427343 0.8455468580188739 0.16382272301733722 -0.29823382564177675 0.11839492970184125
Ni 0.7230997886526551 4.939432018309266 11.010904121075496 -0.034386190789353684 1.1612120033218971 1.5111867089813908
Ni 1.8815938947240762 3.7654824964316673 3.6421532815119497 1.2451202121007783 0.6885653378517625 0.7128494072101077
Ni 4.663192558363495 2.6838479079564332 10.324180140379953 -0.7985818136819215 -1.0525283873705487 -1.2515348573778704
Ni 8.850562576436374 1.6216430925465302 1.2250565963059286 -0.590052491785829 -0.606954152637174 -0.22168899920650204
P 0.4929218691325264 5.634906920513663 13.367866316961896 -0.6732868144261372 0.06849675931981752 -1.2135015567542327
P 5.5413976109354515 3.2029501266820226 8.201199999156437 -0.2563760090657262 0.8258954138952098 -0.6035001326503026
P 2.4882805648327375 -0.2106644460771205 1.1862102165268118 0.31356274268936324 1.2400268567382708 -0.45627182365653673
P 6.719099543003306 3.6394711076115467 4.6971739712468255 0.33576267582517016 -0.1390192908204122 1.3035691002662904
P 3.9969187429780018 6.261672276728075 7.281552914643683 -0.6411058588182185 0.28629953609803593 -0.05616446300670972
P 3.409172810020152 5.488741609293251 2.696394500524903 -0.9269505667670228 0.3566621449819986 1.7242190609541594
P 3.305271487258402 9.029775430034121 4.836552968699599 -1.2713143539976426 0.2560368805587526 -0.17705361988531443
P 5.570918452006155 7.692958139547905 11.751667510779122 0.12412643286897977 1.003320301077014 0.8135332927854313
Ni 3.700751069515562 4.374529705281566 8.77962509567428 0.4834949210385479 1.3008414169224825 -0.24250387906932427
Ni 2.749190629765687 2.4699135044278044 7.488185635787063 1.572440156475234 1.9613045972213898 0.028591695594763662
Ni 5.068114295585608 0.8158106530550454 4.201968680574966 -2.8620803053652577 0.7442778009227182 0.4093746448843659
Ni 6.4398600358126945 5.975275917019207 4.013835623805648 -0.5128859726061554 -0.7048553332610378 1.4291214669485195
Ni 1.7883855303240308 7.456311779604575 11.93158288327715 -0.13994128841404932 -0.5798318424990853 0.36585563855580866
Ni 2.6653397794992353 7.360517167579667 8.561677776285547 -0.4974475265638981 -0.18631601902384687 -0.3814475794567947
Ni 5.017912878052822 1.2612706462297765 7.146578061782629 0.23475226014836345 -0.11734000607476565 0.26803133391646744
Ni 3.4869953521864696 0.41681283357439014 10.90710624821874 -2.082690234120439 2.702342293940256 0.9804174283369115
Ni 7.873553460057851 8.704566546878679 13.091392684049366 -0.5100711288651796 0.04741371339727318 0.28910460964699886
Ni 8.991282660839348 3.9639652459688444 0.8447766264535057 -0.645097753586431 0.2824778483591006 -0.04122069721268385
Ni 8.27066943172129 3.3172716762377643 9.237032612422194 1.1617159395415089 0.8391679626343999 2.197667653500299
Ni 0.5079230458104109 8.068970330592464 0.8915105912616125 1.446076092524987 1.165909408797566 -2.0302788103982583
Ni 1.4259817040546579 0.6058421427024333 9.085417372115936 0.6497882170835647 -5.217772072923246 4.011930860927749
Ni 0.20155803307655906 8.068650576340662 7.269990977080024 -0.25657424111946137 1.2522529664908175 0.7292551022616409
Ni 1.568987090904329 3.5621564104333836 9.570216542799031 0.7894988775440468 -1.3287720818944793 0.4855659446349637
Ni 8.573711821597454 1.579397913161503 6.410604402680249 0.4506344228651013 0.8792758863988793 -1.6312222596104489
Ni 0.5972962400962057 9.223668765604268 5.185028675941985 1.0071936679894913 1.7440744051171897 0.031232989872352658
Ni 8.623903834593422 5.9665955295364865 6.7662520096998 -1.2486202548342367 -0.2449993917976684 -0.8661871715357212
Ni 8.587630536087623 6.680597369271716 11.653802019746962 0.07232127527223028 -0.3176420549650594 1.1185586874277444
Ni 4.8069597126954 3.169027962380644 5.889315629144549 0.6809769839815433 0.5650636830509753 1.517055251947026
Ni 4.322842370931586 8.483033277601365 6.7689492308591115 0.45006698039740556 -1.742353308661025 -0.5660039354770575
Ni 3.0197873676208493 7.1757086145754 1.225160986664605 -0.23485150473038907 -1.2057851619465814 -0.0945749444641081
Ni 4.260509100903991 4.682819826701998 0.9373972073024461 -0.5069480098551657 -2.8485763573415523 0.20652900363661206
Ni 7.461700579201106 5.567401155236342 13.769445681799006 0.399737378904918 0.907461861914792 -1.405069311095322
P 2.804047293023226 5.783987638147558 10.477172204876322 -1.1784461078119963 1.4082081138346199 -0.8872267658148396
P 8.283478410866971 9.108519616808572 8.823919523631881 0.8444556933959005 -0.34293939607926743 -0.17777867097679706
P 4.874775827687704 2.044903676563123 2.4321025641523146 -0.02673304511947009 -0.3130912023695834 -1.8550648148248439
P 1.217078727723489 1.3602816098463317 11.14002841158227 1.4247235949911399 0.947541246434181 0.7612504242213147
P 6.827214098259377 0.746265984195651 5.260857456302955 1.0138929343865377 1.258544455926484 -1.0459574190212502
P 8.276161681222815 5.132055741409028 3.3423074937001154 0.8842337446247869 0.9837444358276154 -2.517915521519322
P 1.0550761765021002 2.976676970848595 6.115700698966107 -0.5556467606124496 0.31521364802922486 -0.7339787329895552
P 6.598740280810613 7.527729832198052 1.055487154761033 0.30993260213594365 -0.561238395767614 -0.1994175894028114
