# total energy = -340890.0274252783 ev
CRYSTAL
PRIMVEC
9.02194156439423 0.00000000000000 0.00000000000000
0.00000000000000 9.02194156439423 0.00000000000000
0.00000000000000 0.00000000000000 13.20452343132139
PRIMCOORD
 96 1
Ni 6.387615918273225 2.2082014275816215 11.643577210621755 0.09798911235197963 -0.827449645756207 -0.15580448069855105
Ni 4.382751012637005 0.32549451470398433 5.971837930822775 0.8767397502405868 0.3410493781454062 -0.3012888104180166
Ni 2.4070811103291785 1.577008342643109 4.887508802258841 0.9811329663466973 -0.9385804376964674 -0.982955878488049
Ni 3.4067393160757553 4.345517459257438 4.7699357602701875 -0.8557412936120488 0.3676482116798572 0.5983764382704921
Ni 4.941976068666188 4.443324329184233 2.826163835022888 0.9718440848456038 0.25765950376384017 -1.1294475664261066
Ni 7.058289020073619 6.023797097438623 2.533881794284544 0.946279349002622 -0.6027843375302006 0.5115806235311705
Ni 5.130931615548099 4.555566305824696 11.304749168285191 0.8156850490211113 -0.6051842052209448 0.6172257097665113
Ni 5.920071833759224 7.993052399200563 12.444260101038799 -0.9139991488126776 1.4705542801720093 -1.0376738388562192
Ni 1.800490860395773 6.430064153953103 0.3002664591393412 0.9023157989374784 0.8756570586993693 -0.7780497551668407
Ni 2.7026128544664365 1.482765139686251 0.26038225928947734 0.1353752663099217 -0.15321563692545226 1.4416969896206848
Ni 0.3100958646171793 9.128220169221695 4.604747616592331 -0.027069088302650157 -0.7943947721837674 0.9119651491017843
Ni 8.483070140479406 2.51022896974003 1.3744062067517648 0.31890498083788305 0.31721808005376334 -0.35598208819583854
Ni 6.815445415441248 0.8028959727150811 4.975398753873347 -0.5751848306453772 -1.034012073733916 -0.3188103642415477
Ni 0.6345519538319492 7.5766266363363375 2.489012971647617 1.8048671109245302 -1.1343439752864592 -0.9727342007600409
Ni 7.30936063553278 3.893698619119639 3.7259599725243118 1.2578973092607886 -0.666654139600968 -0.14927053623477518
Ni 7.6764363773196544 4.056499557024723 12.484045059530004 0.09609189532926678 -0.4395234005536044 0.014951736213825863
Ni 8.163242307354706 8.820725330395486 6.896102476398036 -0.5774522865233153 0.47180514340544555 -0.7186734700910525
Ni 6.807650457815867 0.8002760008465505 0.811273747774026 0.45209300968849886 -0.31907698763937303 -1.1588036509907202
Ni 2.0008320976980887 6.24873214780435 9.051700570726714 -0.4625782254905388 0.6813914458111426 1.1698133718376627
Ni 0.19743436768785083 5.046639614281975 1.1515588336945022 -1.5331038207694565 -0.5047376324674081 1.2530350960724805
Ni 6.286037876717485 1.9009592031229003 7.068011966639443 0.39113935282326184 0.4462167534133799 -0.530992452398879
Ni 3.4945498746033348 4.373016337546975 0.3988149326735506 -0.1822027681864217 -0.2356673157634651 -0.2139263245419477
Ni 5.972516380838318 5.670876782172839 4.901017355560326 -1.415374292565756 -0.24799498409088255 -0.5972042723392618
Ni 5.418551116817928 2.7092890913215077 9.316015494401494 -0.5952456059509943 0.41279986851583106 0.20619398889469648
P 9.104402243144143 5.696111153096669 12.179945177364015 1.3865666243054444 -0.3561561518798576 1.9830214200731915
P 4.162335955060995 6.098976937591742 12.59390704795105 -0.6486337917641475 1.5996100320218065 -1.0579043069704812
P 2.4310253435904747 8.404570225782141 1.226138714724836 -1.1248226660595855 0.17738374953122352 1.0298214326913362
P 6.3963762236600825 7.677437812847915 5.923391006109198 -0.6479118259964584 0.7743671641089309 0.08101983148749273
P 4.911427774083388 1.017377299237604 12.842283809425606 0.07406242633305309 -0.7148366128434657 -1.5621637142498903
P 4.161533002250048 6.298758814508904 8.305170080951825 -1.24762318102829 -1.4856222302487254 -1.9233371168386812
P 4.518910156713676 0.9331935612718331 3.766920490018513 -0.2428882589919365 -2.0656088531581203 3.643358337661409
P 0.171667702203954 5.445454546955525 3.408365069969382 -0.5672334370087844 -0.11316247765830834 0.07139593524448348
Ni 1.1646244096587106 1.0631726752867148 2.6388971956264773 0.8700952483408758 -0.05487942564669903 -1.6763181235078228
Ni 1.5536505355920553 6.641980542451442 4.552801080694859 0.7168287035728299 -0.7320840870700037 0.7728054760487658
Ni 5.962059950412605 5.561287256391013 9.195339806663572 1.0722094107392437 0.014063162961285458 -0.3571902495713268
Ni 8.761812051120328 2.367555983758817 10.188478757340588 -0.21806220108719224 -0.5782053626392558 0.3821453768547677
Ni 2.466066565137903 5.26052278607005 6.895203891005109 0.05917136815383357 -0.6725602206727579 0.3376053854608637
Ni 0.7007603751625253 -0.24972734614645134 9.041414654999054 0.39264216262103346 -0.020301687671829556 -0.03923837667533243
Ni 1.7485425201099616 1.0681978968114103 11.356986210705276 -1.4234953790109934 -0.41221417121569015 -0.8133492017990831
Ni 3.969555104899963 6.594840897089621 1.5557309953471627 0.2636889977873717 1.5208054630180776 0.459611429552731
Ni 5.497727677142396 8.03897408243342 8.059750711965235 1.3822803382252646 -0.25643565865906803 -0.8859358149175582
Ni 5.20672494773655 2.886353719048034 4.8827425104608215 0.4441799254890092 -0.3192101707831277 1.1252792939810297
Ni 0.678174846320653 7.038359550867061 6.818274696357126 1.091690659392307 2.1577553906863938 -0.4362313600658939
Ni 5.085921148426543 4.394308119949635 7.067946106465063 1.4851674020994938 1.5695700340162904 0.14949062266538127
Ni 8.038441787873351 7.1854352443959435 8.791677384716738 -0.6610169959198487 0.10665013046108728 0.8110825172520933
Ni 4.861951445822293 0.2550484873587771 10.158623347880047 -0.5934754014244489 0.9271806804999579 1.0880792878919647
Ni 8.127903361731308 6.891536471705669 4.8802073448442345 0.46553370857443693 0.5127885277963428 -0.9090263781884345
Ni 7.146207841901552 5.833849136970148 6.931371050876204 0.5331920311533591 -0.13901260595219286 1.0362620461103573
Ni 2.2726180912913634 5.063258030886085 2.4961962416260057 -0.16129275750663188 0.16393945110085958 0.7747849683726398
Ni 2.8627884073379715 5.059243266831347 11.23912266219401 -2.177759601722462 -0.031170512065533413 0.3927357507761043
Ni 1.0055044239656121 3.1694622494698423 3.76314390522455 -0.7050797905670181 1.54949023254728 -0.5117521161120283
Ni 3.576117249477254 2.556249894331542 3.0788061705313305 -1.5444724676177142 1.6774411813686723 -2.02490391923959
Ni 1.382387016376084 3.544432190240753 8.266362198746299 -1.195168819883316 -0.2061605645535998 -0.2261884297387524
Ni 3.5225269158027626 2.966243012766489 6.927621531907329 -0.7100893279664674 -2.5385715072067763 0.5184585815979265
Ni 3.6929153066742177 6.92055103620014 6.020272224817978 1.873855722279102 -0.6955949910050343 -2.0303394884328645
Ni 0.5258556002780314 7.581218804659623 11.504163852175322 0.6427361953327898 0.8553054916262108 -0.803691881214977
P 0.1288766327396253 5.523647715635124 8.043799919046632 -0.03466181304824353 -1.9104746590537163 1.5287288316302123
P 8.848088879559581 1.5269726539968582 8.189960787687536 0.3261274667282512 1.2012785323254795 -1.5589788887640055
P 1.9446524667568332 3.161757511261422 10.378557535963655 0.5275343186469496 0.3183514223272582 0.7799770540965406
P 3.967471036368177 6.153180763301565 3.7565416482913863 -0.26091040660097 0.6884609510634143 0.5709191133904877
P 6.9386129634756175 3.839873714961051 10.286125938899364 0.6611170118328227 0.8993014375911867 0.73546405928583
P 6.373216899326341 7.77697689558035 10.117596068017292 0.845676196066563 0.3349332379453393 0.0924535272457311
P 2.2520480642243874 8.54820855952483 5.714059403906776 -0.9221631726807086 -0.707097335217679 0.4185113170783115
P 6.864380427200581 4.061903700100652 1.338766830469889 -0.24906507722660975 0.47864530625573054 0.9874275411061575
Ni 5.176275894512407 2.8496344163451424 0.6850649031939205 0.3486667854813479 0.1513037646147201 0.4719732935521936
Ni 1.522218090723044 1.091555703862464 6.9778114957565816 0.004677607981327428 0.33916347397660296 1.0342277892891478
Ni 7.182394850044377 0.665625325421458 8.975880172713174 -1.7793296287750582 -0.3676415268116378 0.9233453659142679
Ni 2.8072673781405273 1.5834409870723871 9.09431210355129 -0.4746030178655568 -0.41925590855381983 0.29634329348728317
Ni 6.052324477081508 1.889122415617693 2.877001574285917 2.334482994690857 1.3806847116033705 -1.4228076089153496
Ni 4.316340499812438 6.8862496138717875 10.432339134802103 -0.8661079815583534 0.49854615894471555 0.5783506299678685
Ni 8.00039625974114 7.270647483715062 0.3758152967078299 1.059101669712692 0.22769406775000142 0.14714500525134014
Ni 7.797032671970652 3.624141045125287 8.29542548172593 -0.14504595663046632 0.2610361335455569 -1.224557043237446
Ni 3.3127667713697786 8.413492926119527 12.368095967046639 0.2028780371475861 -1.0995569495142612 -0.44425911546637686
Ni 0.17403866848167393 4.629311657248146 10.313631132548089 0.17935861386940724 1.4343983990767426 -0.6131749367359052
Ni 8.648207761283764 2.242647200977111 5.7908965747494605 -0.2235684756174021 0.9148149598457535 0.3295310930931615
Ni 3.7683748270199153 2.2256588847634635 11.46181666224244 1.0383621231724955 1.5649099095364596 -0.8812062706523727
Ni 1.149133735766606 3.714098825776525 12.60161810151866 0.8401760921839402 -1.0342936095300768 -0.5376960896712998
Ni 3.1475479530901556 8.203570386736015 7.816641862247 -1.544853762216533 1.3714307971052702 1.7658313371783072
Ni 5.649639131420355 7.856261719205169 3.6497967407263223 -1.6678699927404692 0.10487735483138066 1.2806194334486525
Ni 2.9375081284645943 8.272931074495188 3.6700915985715694 1.1673052607038283 0.3908868704928236 -1.4700914816029778
Ni 3.559345459864311 4.328087067900685 9.152940289468852 0.6192514819472884 -0.5488587911563385 -0.6810366335748852
Ni 7.28391875994994 6.2779812827829184 11.306650993594717 -0.556377468130887 -0.774123680639557 -0.520969263834922
Ni 0.4255415327539064 0.12166178596530025 0.29192026087633244 0.4278014841309858 0.13134223389112862 0.4278526490838954
Ni 4.583534325082427 0.39825557228839603 1.7359857816574098 -1.3930835994883557 -1.680107415346926 -0.9190181992938237
Ni 6.043897983537405 5.956484390444451 0.29382840154504536 0.024201536946867996 -2.4527205728792274 0.42578419659064093
Ni 7.905602718340825 9.289622706163893 11.170829270137478 -0.19194313540263716 -1.0288626683224924 0.7373736176037171
Ni 0.2803072175251868 4.888674437125971 5.940635545467013 -1.0860748558674265 -1.4477185132244166 -1.155775405687358
Ni 7.72076117687231 8.527340808381885 2.732187681540233 -0.153017147761401 1.77676932424705 0.5231251338356604
P 8.180014096967648 1.7158921131119844 3.468287002326156 0.8139436408499724 -0.4139689491232677 0.3102653028850141
P 2.125993494847284 3.1239375316716127 1.4800820142258477 -1.8945135077387694 -0.13166362178628938 0.9043202309620169
P 4.6169967068330475 1.1178456419647311 8.174802121249845 0.1792745387960332 -0.8021924138513152 -1.6315048238478742
P 8.884266865760711 1.8300106536252236 12.298838129422801 -0.8603368834025313 0.21380779668621244 1.715456227159865
P 6.131663432356504 7.756361758804893 1.5494977358293671 0.03903217420179729 0.027438298716610812 -1.0867268876291285
P 1.6956468759460654 3.2630829384496733 5.923364842478279 -0.17390144740957794 0.40833926164131606 0.11371500772766867
P 6.990922181429271 3.8082427873747267 5.9864426500403285 -0.3964003441118851 0.20473668762287967 -0.009722883714718739
P 2.278428221743615 8.160481593195716 10.28451462011245 1.4395794290570498 0.1424411720177676 0.33617559499287264
