# total energy = -340856.5446635697 ev
CRYSTAL
PRIMVEC
9.36624773745863 0.00000000000000 0.00000000000000

0.00000000000000 9.36624773745863 0.00000000000000

0.00000000000000 0.00000000000000 13.70845031859737

PRIMCOORD
 96 1
Ni 5.058991354858228 7.59834032483786 10.50749966150935 0.4281241575777272 -0.693834813780818 -1.2863337102246104
Ni 3.9073362736543364 1.230968466486952 5.161574245856597 0.10255616289737177 -0.3030842117555425 -0.2868096429652351
Ni 3.786389917471039 6.111935551851188 4.000852636906602 0.5741221937088177 0.2993658823636908 -0.20850438219542802
Ni 9.032500168312378 4.748481512049534 0.4052213392638557 -0.30893604255062923 0.13683719556742885 1.3086542280986817
Ni 0.33681963251820257 0.9273896469552378 7.135988621276347 -1.0863116544685807 1.5630360895525146 2.174297354205475
Ni -0.2427825058953958 6.445533195170362 6.204937708106283 1.3215542239898015 -0.029741235818174585 -3.0268936744306383
Ni 1.3403475067958306 3.422454997943571 7.904689680430831 -2.55954965212034 -0.8915822145700579 1.0741709053409887
Ni 5.261676954471529 2.8801773565012763 4.759546797048756 1.3374552114907738 0.8565625039617635 -0.7088564840006308
Ni 5.7335204134234345 5.0121788489956005 3.2602259685229553 -0.24729538692069666 0.1054136869508249 -0.5269578773181892
Ni 6.507013244886706 3.2434847374347475 1.4898346928840096 0.8088988793372134 -0.2021535002767357 -1.0327614891562664
Ni 8.94961824266644 0.8115994101151534 10.777953809525703 -1.5315840416908202 -1.352733220695767 -0.29296357838177284
Ni 6.868091458874338 6.214561527588847 5.494264299776394 -1.3063464059011116 1.2636576087833333 0.259482673015508
Ni 1.1601783665850425 3.5546783163234683 2.13528342567845 -0.7446768361333498 -0.7753956053734452 -0.04431733386013658
Ni 3.3693764723886463 1.032357184610795 2.5638089257739995 -0.3002446854242184 -0.7935249679843043 -1.2897954435209658
Ni 3.179035587206507 4.228045960177397 7.016917387876903 -0.5421350992792598 -0.6500653820043514 -0.2687566421182662
Ni 6.172525808038731 0.5047152417801333 1.722809800842479 -2.8936819914309395 0.2652637984736593 1.5317851019580329
Ni 0.2541100458294219 7.054329927576319 10.053448326634406 -0.28013068828316273 0.6267351919188432 -0.029488496377420185
Ni 9.500653325681677 9.182369497305558 5.220095497933485 -0.5659172893005221 -0.9374244697151534 -0.2358336661380003
Ni 8.024869877554593 6.652274380025462 8.044159664634241 -1.592921050037405 0.5845215346652708 2.2841929881870535
Ni 6.907036316692827 8.073162250549332 0.725954441406095 0.6791777259892755 0.20702574076737248 -1.3915620206375068
Ni 8.794803534902657 0.17042543275802835 13.210092962157198 2.09832896909896 0.46566354928408193 1.4046080551881874
Ni 3.2735691249559085 8.67056025953896 11.176430513841245 -4.2539999664525 0.2615680947896269 1.4521516092951057
Ni 9.13561318892896 7.19685611839497 1.0237580326235043 0.8251063423350113 -0.18033203352627006 -0.5071439279160556
Ni 3.1430504636522416 2.727226532024141 9.64518295687728 1.387503791407733 0.9419866351645391 -1.3373168861406968
P 0.6573354377144609 7.450344245378997 3.8188589516493883 -1.2451541506625072 1.515913682143415 -2.119890754430136
P 1.1141245267838134 7.672352413938798 12.633886088524553 0.041204499262767744 0.7289828224368607 0.9906540184632552
P 8.170412000123497 2.507082246750989 13.795636111468887 -0.07882230961554168 0.737205210346653 -1.0659274343852738
P 4.310937252071006 8.32147084257097 2.1119783282219893 -0.7034998476744078 2.5110254792677074 1.2416001147626616
P 3.058285922224313 1.6338482438329094 12.340210202656014 -0.6524670494673085 -0.6513031110661944 0.12956097362098978
P 2.216072931594554 4.970255524417544 10.143594713974432 -0.8537913689745296 -0.3903736783018309 0.5523032980615133
P 2.7563461960351283 4.68647695246358 2.6861021483724725 0.8065332073185142 2.0835710940634953 -0.9273673425894674
P 7.647672351324146 8.210012495278997 6.089307634101383 -0.0012474992538559161 -0.23731076490415906 0.7526002047454845
Ni 0.6954392064920408 8.136084702407103 7.982362099121828 0.8198340381924784 0.03317597253133641 -0.23282958920435387
Ni 4.982768831306794 3.021279877673844 -0.5275763790969606 -0.22683634773539643 -0.19228843455719785 0.5670015235036364
Ni 3.5773540019363974 9.625505407144027 9.087962403899724 -0.44682353375944334 -0.2586524638047287 -1.5383722682572474
Ni 1.1241838767831056 8.871672329543433 1.9288063690076882 -1.084414437445868 0.17873666401469218 2.0521247026287557
Ni 0.40715265953373847 5.331633458330667 3.841423178915026 3.1557645639631393 0.11447502582214478 1.6905579212562887
Ni 7.543360451005601 0.5640326249091071 7.917712511193416 1.9479073499788775 -0.39399610554576664 0.9688423219048024
Ni 3.552411684386942 5.889262379706705 8.817878222666398 0.4670905115385956 1.113011275246954 -0.6349442100921968
Ni 0.7046715168219313 5.686511216359703 11.920401869268417 -0.727349914819128 -1.375233201570496 -1.1079994238546595
Ni 6.035057390962742 5.581834032381965 9.585551804451308 0.4306196703060713 0.5523932866721583 -0.7433061810380682
Ni 1.9502962876653942 5.793548694750682 0.12275029548484623 0.060379015308689554 -1.640950542641806 0.5345495736225181
Ni 5.118804212489029 6.665939735378319 1.2717640948453484 0.6643262627987397 -3.069335388534617 -0.52091295667569
Ni 7.057195999363827 2.614157190132655 6.28261012679728 -1.950589267686415 -3.007210337069098 0.34904396631510853
Ni 7.502476779919092 4.489186311509117 7.016917387876903 0.18082285711975957 3.5363688215830322 1.1911632982683487
Ni 7.307799322065004 8.134838991466781 10.061193276834045 0.4248555141287844 0.4923413156855843 -0.3231411304064177
Ni 2.907779688389464 3.64827522930571 4.413285050252819 0.24804074972715345 -0.5264040616972483 1.302038265444061
Ni 4.438374417890718 8.174570614089683 5.398538438698399 0.18079637475719829 0.8975142637837769 0.119995955640374
Ni 2.4576565577879856 9.436213541701107 6.506304219937967 0.40692129824786694 -1.0770289436150742 0.7036895950877108
Ni 1.6454998559363727 2.1042493006433896 5.7962068358398815 0.842816872240897 1.747659551365287 -1.3374863218390256
Ni 8.964042264080696 3.4897889524546626 10.133382694138092 0.6965887223768713 -1.4601140586752916 -0.8127200528555164
Ni 8.178729228055872 1.3029949110815122 1.8462812973980383 2.5140840635883737 2.9326290621180977 -1.4297997239624667
Ni 4.53590515489503 0.951395339737534 13.825108883017094 -0.37761817840837547 -1.653291323595346 0.6303727886714304
Ni 6.143368679037057 7.686785801600725 3.5932728764790394 -1.2335595038463725 0.7864873444112326 -0.5182032710540108
Ni 2.114149424432265 0.28976641409041426 0.25415500381824563 0.42740887667825744 0.8257604309792423 -2.181736326982023
Ni 6.48065662393884 0.5088326442565662 5.264154326980665 0.24354080497427089 -1.4605370051453233 -0.5297176994515135
P 1.1939343231934683 4.414331260117736 5.699452560767545 0.13536883855201848 0.1388200303254125 1.4486669931806149
P 6.862865092673589 1.5349500346685452 3.544155337064432 0.04184881771498599 1.0017380441915587 -0.9860779690567985
P 5.183281461460284 3.8719974211894113 6.686639142732542 1.2159510467359897 0.5766112786792585 0.18369580779218042
P 1.163213030830639 2.0001153590306044 3.665667414607093 0.956544735484372 -1.3220460760245554 -0.5959421177973866
P 2.6617658270473687 1.7975234218940197 7.74659022960862 0.8855486067814684 -0.32057311256892534 0.1257742528850479
P 8.53714742770477 2.8579606170242546 7.928090313613542 0.37532475438850843 -1.4695173542670628 0.7531103116126837
P 6.972159836753423 0.11997226642545135 12.349586753200049 -1.618882764208489 -0.5196109500348148 -1.2474187783269677
P 4.021061252882834 4.583579355543445 0.8587238120252456 0.7181134838225245 -0.601919418426744 -1.0837883738260947
Ni 3.0494067194316417 6.491334146284458 11.825814007282522 0.4079499966226974 -1.7600137020552655 -1.8120276332287115
Ni 5.557734677122953 4.976427881633124 12.325240129002506 -0.5840386814915813 0.4764164169252118 -0.8307568557525692
Ni 8.332663508538523 8.974326404024106 3.064099552154072 -0.5319329619352774 -3.0450590324857556 1.633271943050626
Ni 3.145532519285214 3.673180081864479 11.759122577361701 -0.462776457544274 1.8420066960893051 0.5410002143438684
Ni 1.4273318489219267 1.9754071976729386 10.805823079472532 1.0959831161200737 -0.29609106826716103 0.5033088704406815
Ni 2.295170893181168 2.698191164242199 0.44721210082514723 1.2685959266252151 0.2558702730739013 -0.9875514682785315
Ni 2.0462628613085494 7.182179208293582 5.338262888432621 0.5404335432071209 -1.4055444509595276 1.076758463562507
Ni 4.5210690185832245 2.9630967471379006 2.5649057133763438 -0.7646357957537799 0.8084671911164334 -0.8694915533186058
Ni 0.8092531650734189 5.629461401792023 8.048066326538063 1.405725456622082 0.0727575914787005 1.3384420008840756
Ni 7.877623097909458 6.127249366794244 3.0550517569033118 -0.6758314352248619 2.6841077732101 -0.3278123106298419
Ni 5.514968390254453 2.9117322449068777 8.715585685345848 0.27466349452100436 -1.1825339047281247 -2.654495863880938
Ni 8.78817223155117 2.374877660866435 4.970697611307643 0.3532621181615142 0.13634174398824905 -1.6529223702917017
Ni 0.40291443246234204 3.282045579098701 12.516596315432245 0.8230448318202923 -1.3655871938403 0.07613113593662373
Ni 5.844220094654008 7.757482239025919 7.916094960220532 -0.4753334682736781 -0.26273794672801204 -0.22822782876628434
Ni 7.815983821982696 4.586988669695905 12.071743572395572 -0.3279316098165255 -0.3458061761041012 0.8786845326717835
Ni 7.041076687121014 2.2391700983527056 11.422524924913317 -0.45004461179990235 0.22968050205241092 0.7322311541708292
Ni 4.764778782998108 0.8229166471767407 11.2296336104902 2.9758773312837716 1.7460335857260896 0.2107327573053145
Ni 8.435842092888807 3.980898782867038 2.7563855342753483 -1.6320604392410276 -2.6402349830865495 -0.7796896047631088
Ni 2.2851115431818756 9.167542727241425 4.1216650557481955 -0.2614274554467046 0.15772997985603804 -0.5887196319070184
Ni 3.395704994593498 7.690373074458946 13.729149802372078 0.658868325007962 1.3393889381783772 -0.1752458772526143
Ni 8.075175993798725 7.346275867499914 12.179560322592831 0.18309416965243952 -0.2418233080625319 0.15195116839073183
Ni 2.495880214535762 6.876558546769459 2.025615904941287 -0.1860961897035569 0.4908397914393934 1.9959790086751237
Ni 4.312754304119296 6.066602913120671 6.3011581070613385 0.9646470528765321 -0.3637157093946704 0.36031362569165687
Ni 5.529064593000203 0.7906630366948385 7.253963067073447 -3.8953243905848978 0.8909188699544462 -0.23081050189179605
P 7.277087395949846 5.9525220164806525 0.9790398197402446 0.15929398190904825 -0.7651847262787145 -0.13939235788911478
P 5.801931486416759 0.20719357461763893 9.321417063738979 0.267822560339771 -0.3523303503758642 0.09890133975360386
P 5.243019389109713 7.034389186283495 12.511003728947536 -0.5367003014169337 0.8657796516846572 1.0056764600140164
P 5.586816876143254 3.7151034064425352 10.492228931305583 -0.6230461731030301 0.4145340775981184 3.6835765617515075
P 1.399963673225528 -0.1387412901345592 9.87682899429115 -0.1728005010359153 -0.42297860882104577 0.02168031318691105
P 3.0452387392177824 7.592111770136249 7.243956168061116 0.6143265338418453 -1.2705581925579084 1.6389381401974676
P 7.318991988032559 4.397022434420629 4.503747080139378 0.39491938869098436 -1.1186394200670091 1.438590068560587
P 8.124339427826923 5.386669529648955 10.223392334262114 0.1551961576905908 2.78347756795969 -1.473836807578023
