# total energy = -340892.5876071048 ev
CRYSTAL
PRIMVEC
9.03446926567084 0.00000000000000 0.00000000000000

0.00000000000000 9.03446926567084 0.00000000000000

0.00000000000000 0.00000000000000 13.22285898846060

PRIMCOORD
 96 1
Ni 6.20525305723538 2.079689692113031 11.361940295066445 1.7519224404066989 0.36152487239093867 0.2724271489913179
Ni 4.632514548656042 0.3338435215399949 6.081628991243513 -0.33174995512135125 0.45936743186272494 -0.5270468374875698
Ni 2.931116160820501 1.82304751880842 5.02692153951574 0.5088801938808719 -1.7981603883283162 -1.096241254877467
Ni 3.659131777014825 4.265968054647007 5.0876277534525505 -1.2043139767176936 1.221709803596638 -0.4866848887307553
Ni 4.982663480636428 4.580223039553107 2.901729742081884 0.03334283712650386 -0.3351273562340164 -0.585665932682359
Ni 7.216960048229509 6.085320475455583 2.6029860377526384 -0.2494620555547123 -1.0889593765040728 -0.35671613814838565
Ni 5.228843738332676 4.56397906350489 11.424655775006107 -0.7980459957831094 0.01583208193625015 0.020434099484635777
Ni 5.5373979730238565 7.6678523489049235 12.416436340209385 1.311878134352618 0.9430515860939437 -0.14689869356848895
Ni 1.639629720292906 6.619248584728973 0.19584742156731405 0.8263263307850413 0.39030168741331495 0.8141354451458043
Ni 2.990391314798449 1.7590292683759043 0.3106881763722646 -1.820993841283064 -0.8129308833147418 0.26525557094354313
Ni 0.7762958208671096 9.053351478396781 4.7771943491184174 -0.6366843327117551 0.06925137809765493 0.23748097193343615
Ni 8.700727101790584 2.652718985110938 1.5533424061444565 -1.5338437842592745 -1.2491321614736488 0.22998543488733939
Ni 6.728791526655906 0.6557615434227896 4.5901835421077 0.17508826862882748 -0.5148531236348552 0.9004772030668426
Ni 0.8956926586092767 7.453265630830818 2.408768434471808 -0.6880539454329827 0.12707420264339403 0.5036318009977391
Ni 7.708498426903215 3.7373883512804826 3.635995404232913 -1.0327455483166665 -0.06861374451365602 0.3883337650536667
Ni 7.512902163586257 3.8183010595606985 12.451160323491544 1.051021463807719 -1.1215905322755328 0.6177427586122457
Ni 8.081811738520768 8.757662328184278 6.532476119571741 0.26569625802538754 0.5469615741336258 0.7406602587747889
Ni 6.8829286097252185 0.5868881691146837 0.5866279763948901 -0.5518662105240947 0.40661405142009327 -1.6540078900463966
Ni 1.8311424034242165 6.576425199596299 9.116249454619075 0.30483616144964276 -0.5037454437574679 -0.3391398198275192
Ni 9.275960805331184 5.054523650540497 1.3495907272664724 -0.07742002995137635 -0.971180740229992 0.01248784805436559
Ni 6.696782401439648 1.65091377262006 6.942225446429815 -1.0660279645188804 0.3457632386813077 -0.19219793172592062
Ni 3.313183873322772 4.554827145964932 0.6837711090191667 -0.20389105179313274 -0.3925277485303562 -0.3778691180769169
Ni 6.072916148918206 5.563634072269697 4.909885408637532 0.03968369174286714 0.46885531674850217 -0.8540214827074647
Ni 5.247716744987139 3.0702198867461923 9.252497384755642 -0.3598904221113092 -1.2224394826738105 -0.557415165366782
P 0.11148173906817244 5.320814637204114 12.349767376443975 0.3201275403910745 1.1144305241919839 -0.45382207656446355
P 3.996921554805021 6.260796975335733 12.680352164857945 -1.1866471555655498 -1.6722120717592492 -0.8306612107149695
P 2.3364673824592006 8.620844323026216 1.3137067181085682 0.5211191591492251 0.438009020791607 0.17096987558507976
P 6.25388560621622 7.7890407219365025 5.731500838542834 0.16909914092492814 -0.023388297016953268 -0.5204149339933489
P 4.858918352754101 1.0107945095809643 12.503787011410603 -0.7909667203388249 -0.906466330770742 1.26233888997191
P 3.8557399009087576 5.9943614371611185 8.098247245321053 0.13787823523743353 1.1922765859371853 0.3839590330247387
P 4.5582783132899705 0.9684318823895919 3.805975332907427 1.1181046306094615 -0.37200546020728836 -0.018193383079575118
P 0.15482099240571418 5.5214340655281955 3.4754826960817167 -0.11540010873957546 0.947440973410891 1.4043432315625748
Ni 1.6460803314711188 1.1818983262534755 2.7929854472532054 -1.2417893479553324 0.06411097154729604 -1.158529057173095
Ni 1.7428846714914978 6.590085317385456 4.634255490916605 0.0032061656421235106 0.14764894147095217 1.4074766349852341
Ni 5.804511096406267 5.599347329955237 9.134139510998763 0.8529932985532666 0.7232528619316189 -0.0051784588771459205
Ni 8.762134390555728 2.3495402597349346 10.072036693584261 -0.6414406164498179 0.4908063670982967 1.027883592238675
Ni 2.2465653770888983 5.186526283488489 6.902385243105329 -0.5296392808050943 -0.24133994066821016 0.10081963982223928
Ni 0.42263157682868163 0.08398713822971988 9.508081621689149 0.046901292537228904 -0.6213551585538525 -0.6741273080495617
Ni 1.5826944938992125 1.2243061257920345 11.332625248636381 0.01931438405789577 -0.7346060821609091 0.9463425981403896
Ni 3.8383395127725697 6.9076649870444715 1.6212942645699606 0.1588684643358554 0.11993347783355474 -0.2599588413209781
Ni 5.567952548660713 7.892277604196219 7.8372947266479205 1.4953052618644442 -0.3231313602144048 1.428525228125417
Ni 5.378725586297033 2.8411509141641385 4.7803943581931 -0.6087600954976613 -0.9804536808914857 -0.4710440968697049
Ni 0.8119024718132893 7.260081570853613 6.859689243991721 0.02835361144202859 0.5497921016038855 -0.14232932903025167
Ni 5.194250754857358 4.670703250967395 6.980440348702536 -0.0195583817479018 -0.4880347178904305 0.05577185555398137
Ni 8.364807459173903 6.941652661067493 9.050267110530896 -0.4061682221319263 0.8969010556798102 0.5388397163574398
Ni 4.9879034729100455 0.13051917306639385 10.479869809474689 -1.4283874169959723 -0.16892327746869618 -0.6502849542143253
Ni 8.041075315828103 7.294412554715249 4.5432422458055175 0.5935435356582229 -0.47062783526789265 0.1944198790779039
Ni 7.200481175975923 6.271701579946521 6.9460072753362585 0.4660618131637651 -0.43072919930074205 0.44512557723173013
Ni 2.3062199787832114 5.266418096722294 2.7975731508334523 0.095194580325978 -0.9163277969458541 -1.0617740743385327
Ni 2.287437316823121 5.397716041054181 11.514056367322638 -0.3119259784168886 -1.3271826259201724 -0.0793838385459665
Ni 1.012104507649369 3.44981215462265 3.842814285484851 0.46710773792977617 -0.3515266235276462 0.5756111195495184
Ni 3.599170003359645 2.5276999970379554 2.6096372141523583 0.920518180878118 1.1283409636254889 0.343930299237627
Ni 0.8404233883798161 3.26174160434694 8.017455598931297 0.22931386274161153 0.6051240414069707 -0.03413345134859928
Ni 3.5689858409697157 2.984826081625089 7.4338117077915395 -0.24917177800780316 -0.42826505403096565 -0.6036343442353218
Ni 4.169705782792865 6.952475955453345 5.952389099049437 -0.8402601672573142 -0.7117302060039999 -0.05246104601319352
Ni 0.8834130077501354 7.345936133916016 11.231033543261193 -0.7383994877650703 0.05343035190499831 0.07642475591764257
P 0.11677413126452689 5.458951674900017 7.778915792038151 0.7112329546526074 -0.9311522635531964 1.0600884591059936
P 8.564866750392873 1.421384042096705 8.042394348365946 0.7030110809634473 0.10576489964265656 -1.0593706071033626
P 1.7088427906518537 3.2382971561572167 10.562380715398358 1.521571908870457 0.5643352895253829 -0.7745247727327178
P 3.888598266252119 6.2231503411906175 3.8598587155252098 0.25033674485018176 0.19812612428489748 0.3663032676161885
P 6.98880355706062 3.9006321795425665 10.199082113152022 0.27923954392746103 0.45395705948043114 1.1153095843628276
P 6.6404434500288145 7.754285118011313 10.071388922125607 -1.4169539783480498 -0.8096671249618055 -0.7005443645905097
P 2.439388058288613 8.534276036878268 6.12164175293425 0.40244655030596493 -0.9579027921741633 -1.71485818856455
P 6.672298989264639 3.8416732319949234 1.6705230885336606 0.6732505618715631 -0.1996045086026369 -0.20312049217569536
Ni 5.067650734632853 2.857683993234348 0.527872304409586 1.0771065909305448 0.26261556221753485 -0.19322123078411238
Ni 1.7387559189586639 1.157478155364527 7.144363569066303 -1.3297406164553358 0.5861487858560487 0.31445414415538103
Ni 6.890951218585517 0.9842331694353822 9.371503029971178 -0.11120766792478266 -0.9300142932940111 -0.8295702916436358
Ni 2.8952041448073422 1.578845809918934 9.284113510551379 0.3662724143782531 0.06066929285559874 0.5508447112381158
Ni 6.150133759198578 1.8665304202100146 2.657874053371846 1.1524095745389185 0.7166410130420561 -1.2373701358417142
Ni 4.09153955322158 6.837421987169676 10.392149628473486 -0.16691755989257703 0.39801962488286285 0.10729162069982812
Ni 8.121662783208578 6.936213910466255 0.3747506957050228 -0.4314359955597796 0.7530740590581095 -0.5034387111503266
Ni 7.339422281451743 3.76144714339194 8.082248103394589 1.1686594607388778 0.4248105198234619 -0.5769534925100257
Ni 3.1535267294272855 8.34748838126265 12.38907906330638 -0.013782655606389166 0.5267676156842541 -0.2844653111027746
Ni 0.139194974067007 4.791168866443992 10.043448921943897 -5.8878262393446985e-05 0.0448022439163551 0.2739117039566444
Ni 8.750172753020777 2.3844675185794313 5.662134182203452 -0.2378800071440677 -1.491254231723522 0.1860401396546409
Ni 3.8131965843286393 2.703022910937673 11.481382305155797 -1.216311515399202 0.15764821877550914 -0.6369951790839545
Ni 1.025349039844411 3.1154554752186177 12.846311754632872 0.27130306268920373 0.9458204070883325 -0.698389523031036
Ni 3.316508558075688 8.390438248967447 8.141049851174023 -0.37472131647655466 -0.34991531317646835 -0.1979309775549559
Ni 5.470904277965528 7.784424108054055 3.327704072602357 -0.24295073679875573 0.25107310879557404 1.3257551494450266
Ni 2.946023035392002 8.5727267388033 3.7684226572444586 1.1595032481609062 -1.3431941708570803 0.062453381339215026
Ni 3.4923012643861435 4.5587571401701465 9.671754587249504 -1.0185512590941554 -0.9974142200052241 -0.7996130831599132
Ni 7.151162007317851 5.922962025198351 11.246914333638031 1.150039274534529 1.0015920055319978 0.13120673675452887
Ni 0.5991931164882492 -0.06191954318223714 0.05817114181271262 0.17734364032190747 -0.6998324261251496 0.7419450390244835
Ni 4.48265076963056 0.40136082198556633 1.5349626815212685 0.14201693999615542 -1.1542846800744444 0.0025906435453116675
Ni 5.982616626892664 5.321555463697971 0.294947420271704 -0.4320492036637462 1.5218033081549727 1.0802783037903074
Ni 7.879331209492608 8.70216358243111 11.473197075845627 0.2134920652180065 0.5559545216608555 0.5517060307971466
Ni -0.2111283231735174 4.7916928656713536 5.776961385304246 0.22382995680890486 0.28659187052747415 -1.0486498782517488
Ni 7.743778030055766 8.65545537544041 2.4950214176363956 0.4142769672819898 -0.46214653726975896 0.35307879850611446
P 8.518113371054985 1.4031344138334139 3.4589152860276458 -0.07463372545549082 0.6055768126736732 0.606230129986956
P 1.7340670293207194 3.224700279654121 1.8259177697486417 0.9941219224071977 0.6370057206069158 -1.8018944014494516
P 4.8955802297305535 1.003097141620408 8.225742581466793 -0.2988385491053111 1.4435543545443978 0.43317097597301524
P 8.507443662649568 1.5297163651190442 12.502993784994011 -0.8560449408953967 1.3459151693326692 -0.3708512919981871
P 6.121666146001732 7.46422444225823 1.2885945068607245 0.6610259947809132 0.6878287167960542 -0.10965523583599826
P 1.8122965001780653 3.1937933597092103 5.929619525726678 -0.9021859582278333 1.859296079297372 1.6986072739233264
P 6.849681762196054 3.6700183126867385 5.889090895831072 1.3528602331919346 0.7276232230851727 0.4105668654202542
P 2.4667444317446754 8.482427216777758 10.117827901927077 -0.18926841678395145 0.6231271628526107 1.1935857916669121
