# total energy = -381172.3690551416 ev
CRYSTAL
PRIMVEC
9.25392203049260 0.00000000000000 0.00000000000000
0.00000000000000 9.25392203049260 0.00000000000000
0.00000000000000 0.00000000000000 13.54405029240028
PRIMCOORD
 96 1
Ni 8.355440089119035 7.875763048911744 0.41947102451155244 0.18317207407822647 0.13028653893310463 -0.8745016049386874
Ni 2.0153653747765987 8.646984897679483 1.6074895143699897 0.32904644014725914 -0.07499496544965148 -0.4018773080660562
Ni 5.427221591331957 4.076065712801495 0.5862581599696811 -0.2555404005383083 0.9718533408169844 1.5267184860684029
Ni 3.4161685441474594 9.002030118121908 8.732471702535872 0.2610389617590343 0.8290316455313465 -0.7803982007943592
Ni 2.090035270357435 4.99002005251468 10.250665497807177 -0.641084775772296 -0.6672604057263992 0.1959622838643593
Ni 0.34615035073957573 5.962986652002186 8.770476634269784 0.27350366988494834 -0.27888370324993905 0.02262262249552233
Ni 2.2707643645071096 4.295383661155172 7.921183148241259 -0.4358354101790558 -0.2833797913480797 -0.7254655533122216
Ni 4.3905139779938125 6.619284045048223 3.406680498052648 0.18317361674012325 0.8226797351713896 -0.9923224073046136
Ni 5.62217396339807 0.8374882578970979 9.494053740890104 -0.6418157404010495 -0.15304465856522675 0.035044136088326745
Ni 7.811078135030217 1.4877345114313851 8.93301899576547 1.5201475177191046 0.5228947629924091 0.5710132157661908
Ni 3.441450258700297 4.398898031209359 3.1709331368083764 0.18963042810906053 0.7274085359712053 0.35427101904200275
Ni 8.890844246836279 5.740281768243554 0.8058361435279455 0.23642039187940575 -1.1178511198377588 0.15542909963700327
Ni 3.413068480320519 8.733018609318476 5.99473223098224 -0.6122423976193069 0.8781530856483456 3.113253687184122
Ni 3.250421549507683 6.373083453657946 5.587950184140838 0.6286259811836529 -0.25126671286361885 -0.8046552735695109
Ni 0.3005858902288655 8.435745623119594 5.859169678702802 1.3732166853610996 0.482637201023943 1.750602693154011
Ni 1.7544695554544387 4.222481264651785 0.5853346185669092 -1.1900654372184796 0.27727753510508374 0.12776505806283156
Ni 2.423204219495722 7.475530927970963 9.970939798260964 1.1624602739067011 -0.13368707997422138 -0.6924582451482655
Ni 4.894741672926096 2.8563988101426547 10.985308444201396 -0.26288321405662474 -0.5319722998136451 0.8542911914290836
Ni 1.2137073769736189 0.7620132711134446 8.147857039090562 -0.15633721327356945 0.6961549772735623 -0.17245571610198687
Ni 3.5438634120517793 4.436931650101071 12.55361407719105 0.06105470121947549 -0.9425980434962928 -0.9390393796107569
Ni 2.2335173289744708 8.286239261364233 4.269491187758818 -0.788775369114461 0.09938496425824174 -2.658475674464292
Ni 8.796926193762799 3.0214702684858135 4.67513500221003 -0.8269899325109693 0.5350280559208334 0.160189240029808
Ni 7.766252137484849 2.2272246621018756 11.664921093402583 -0.4405261307865059 1.0774176944130605 -4.327218042507386
Ni 7.445039255404493 9.140774168740755 10.970097772821271 -0.5604855767619895 -0.249719422981157 -0.9189991731304301
P 7.813252806670011 4.138474161902643 1.739109895932184 -0.3641101166196116 -0.9027698557557614 0.09639271439913721
Ni 1.887429904903621 1.7579952996874662 0.6724704723007932 -0.5766840408987229 0.03510404279198471 -0.5785442340359134
P 6.6121122555978395 5.561338681015072 8.72526659896675 0.8804038293557352 0.3279403515672739 -0.35025778411755165
Ni 4.664263494795435 7.8515918049834825 11.03264503075049 -0.648291063712748 1.7154240883703487 -0.35691077065769505
P 7.67378695014519 6.131926249687617 12.390246265864427 0.8230129501410922 0.7251899310533316 0.8812857177400564
P 5.402698698372579 0.7763124311892294 11.814163718384606 -0.5344277033326732 0.8013452353596715 -1.1993774586480248
P 3.0381550896200618 6.3336987621729985 11.791165871749646 -0.04040488617960783 1.1388639746440001 -0.029440416748304138
Ni 7.3641969939353915 8.746473811719582 7.575526031537433 -1.2190579677960875 1.076127000626095 -0.33935399272085426
Ni 1.7725517187912776 2.9272560899124476 4.013210299273957 0.5175797785373989 2.120328356188187 1.2123414750078603
Ni 0.3255242842802715 2.670302441307531 2.2983308723700113 -0.5353309318732328 1.4009979692394259 -0.7018674542773075
Ni 9.047624191182607 0.5659069349899594 1.8541944445022611 -0.230038656722778 -0.966236251740523 -2.3161667128801726
Ni 9.2181647173518 4.974649288286181 3.269249578947362 0.42111250214658447 -0.34660938873168695 -1.7275234427370443
Ni 4.828955542341864 9.150185407284033 3.466220231373642 -0.37320385139076373 -1.2564693185650104 0.4309096907426643
Ni 8.204693701832902 6.788353197639855 6.986481515692254 0.13484870438249033 -0.815006277786532 0.04981486663959808
Ni 4.627071982794025 0.9293065960979423 1.4513943602421495 -0.9297898359880309 -0.7028863824601249 -0.9002753714686818
Ni 7.990160031086771 1.593312506062908 6.521717170580826 1.2952587806283822 -0.27591176510580867 -0.6709995610538574
Ni 7.727468950921548 8.389864678480878 4.590823445431317 -0.822364775034132 0.569268208050626 -0.40723060195816957
Ni 0.7646321310030688 7.037107871466654 11.164022034167466 -2.689823592647955 0.8882127838771928 1.3729341211236743
Ni 6.01898213324641 2.05743370360427 0.10860587786786564 1.1250885181264625 -1.3006812371955343 -1.831375184517388
Ni 0.5108766377969295 0.8406447706474541 3.9104788110100954 -0.3216894855615557 -0.6679260643348561 1.8798870160748464
Ni 5.489870642401762 7.456245754790834 8.953686704873197 0.014803640671735795 -0.6906235059323719 -0.6830809176984236
Ni 7.647866714983222 4.445149132722931 6.930354628757456 1.906357294451233 -1.2595356161951599 2.2039336890146686
Ni 4.420635493685426 5.3013219842707 10.122511635378032 0.8610138548648978 -0.24675288415366536 -1.007617385790471
Ni 3.7105913224099307 1.9346341603699544 12.80683376832083 -0.011296141739109578 0.4705725565499251 0.7905265474776128
Ni 0.20020119655160773 7.631524288958218 2.646940915543022 -0.8681460950343048 -0.03896172597517806 0.8740133524483594
Ni 1.3193779108238566 2.6030819528332225 6.296101003001431 0.2975157165288295 -0.4279272110755727 -0.12213151392613805
Ni 0.9599740931799712 9.114918711031887 12.786111461074064 0.36855066888946847 0.13961784363635954 0.4448283577062856
Ni 0.5418374842022837 4.996321973309147 12.078258618497731 -0.4968546301749056 -0.38479952664816314 1.8123410507040723
Ni 3.4517961433525923 6.4264878367781595 7.884601469691178 -0.2792858237843642 0.5371913821207394 0.6013113525291
Ni 0.4677811236415257 0.6498168715594513 10.635844264039648 0.08077146292211251 0.09223318370480889 -0.11982677705236136
Ni 5.138675053457865 1.1108777971379205 5.5263107359472095 0.5751591196137642 0.08980349121739373 0.18303683405194282
Ni 1.9275641640601566 6.1939737958357775 2.328723527972458 0.024994722272124695 -0.19990481345187508 0.583752260599414
P 3.534831584305231 3.4328811270473216 1.3607975397283383 0.19547248871213432 -2.159021916103643 -0.7373417359245172
Ni 4.915340903011973 2.30219993710447 3.3897236116153793 -0.5769684049083611 0.5115677680153642 0.2895296129995595
P 4.816194384081117 7.739202923854562 1.3232441993817536 -1.6430251657826478 1.7829628546522713 1.521427412872793
Ni 3.069812756342337 0.5057101732160917 11.159064708220923 -0.7214384344306994 -0.1695413706686693 -1.19251801252403
P 9.30916778503577 2.969703829536849 7.921535722664562 -0.8685718697178137 0.108519065349026 1.2921678004078845
P 4.236278862162137 3.43666598109275 8.498457600858124 1.3239998573168164 0.6992446719424796 0.4786494200207886
P 5.735108825917406 5.633223146112598 4.789162752902387 -0.4269645900519873 0.29183923496934255 1.6340841545392761
Ni 7.290545029760416 6.822379868361224 10.361116607696212 0.9484730142198311 -0.40937258800183685 0.4151951082208849
Ni 7.901118794839554 0.7015953406068489 13.02962008659193 0.9702705697108966 -1.9282954892852209 3.0037977118431236
Ni 6.525440023349715 3.659555943288811 9.741029810933211 0.6813857893841878 0.24622143713022757 -0.9802767889939892
Ni 0.9304540824100038 6.411912909830606 4.784489522357297 0.03703596970737492 -0.33066546380792083 0.5059946448029609
Ni 8.724393954134271 2.9025851342031266 13.529963910514763 0.6638719488701406 0.8611814907910136 1.7618967780105914
Ni 3.423247794379128 8.44958023631743 13.10346175616527 -0.1244431927784502 -0.16137091904273498 0.9321886752375107
Ni 5.395128990281722 4.857402098174742 7.066688958120974 -1.155997549000493 0.7144427198391566 -0.043170878960519195
Ni 9.064003632895098 8.340892923937096 9.06942087875865 -0.11933595345887191 -0.7553687686295572 0.316763509014848
Ni 6.317374843991738 6.382485438279353 0.9673985146974461 0.975635690677552 -1.3456644867744438 -1.4339744241654466
Ni 3.410745745930782 1.8134910691506305 7.368545411822791 0.31426285408018134 -0.2861293290687589 -0.5400841302875021
Ni 2.6003242841155263 1.3215063128542928 2.792525465209254 1.5163122031334144 -1.091258714061211 -0.03805155545608285
Ni 6.052777455920993 2.437112864068531 7.318771342252752 -1.8591132738626044 -0.07310186219199669 2.3944238940208638
Ni 3.8583116772440964 5.778370910666496 0.9771947163905769 -0.29120700070198235 1.178169457111842 0.27849726644479783
Ni 8.872428942312068 4.053680475794426 10.299274498613599 -0.07859682386829689 -1.064288356119954 -1.6952594404970158
Ni 6.8554718929735765 4.140713610995537 12.424864262193383 0.44917197938696196 0.6432653283633825 -1.0996158277766548
Ni 6.079863685238766 4.439124829584609 3.1448333755621016 0.3150910064084315 -0.4548119512815586 -1.734540754595142
Ni 5.884772504344579 8.49777466142401 13.141846098695913 1.2179619065184315 -0.273313151140697 0.3429440240649578
Ni 5.42515796675462 6.154616866116444 12.177455108606692 0.6646831319175261 -1.5141553046914118 1.172483205360342
Ni 2.8198365648285035 2.5176867618033607 9.782014505509734 -0.9220513296931927 -0.47373141389388085 0.1071484102537445
Ni 6.4465318315517495 3.290861188085977 5.288545094342771 -0.3770893024880989 0.024973125005569894 -1.6022099315384986
Ni 3.900120896259367 3.836185550049428 5.495931961227569 1.4573282684000384 -1.5144350407153595 0.03518169010745554
Ni 7.896778705481837 5.536010696852877 4.997375069618119 -0.7001425011664006 0.499140855105921 -0.2604159834630547
Ni 1.1074538460454793 2.581427775653999 11.732316481000263 0.8206195102082512 0.23967875091570334 0.5966062337439467
Ni 1.668176734003045 6.796950091058443 13.550551110502205 0.009793331941337972 -0.21116701662925566 -0.38517002261370437
Ni 7.271472696783331 6.713868380496448 2.9439344333013855 0.1981415509038652 -0.627932554661054 1.0714393653424386
P 5.181252347988466 8.884921736838542 7.433854965430642 0.013431700024873641 1.4768812508313016 -0.520457100085194
Ni 7.029547417297669 1.9404456233052332 2.247472243156637 0.2549927555649544 1.3400096024815114 -0.23250357332350277
P 7.426105731255479 1.3119007419517141 4.240696684463573 -0.20954953563049072 -0.2503298028716463 0.977681003242355
Ni 6.818391428034624 8.865692087189641 1.9926543997196537 -0.28084108408662606 -0.32604467720645786 -0.14963280467020035
P 2.0401196157827624 4.635946493868759 5.492085105905603 -2.530624484445558 0.22349648472888606 0.1593042663216934
P 2.8530488904251845 1.2779666104490588 5.0193438801409735 0.0988720291775652 0.14851977411167971 -0.23301265174943742
P 1.5739995711171644 7.670871964755679 7.8401900478456525 -0.3247483269925375 0.4071125883230666 -0.5929876631547529
Ni 5.311769662063583 7.685641224062534 5.5743654268335305 2.1093212064444056 -0.9879957549048017 -0.4708065269376021
