# total energy = -340886.72370871453 ev
CRYSTAL
PRIMVEC
9.10161119501130 0.00000000000000 0.00000000000000
0.00000000000000 9.10161119501130 0.00000000000000
0.00000000000000 0.00000000000000 13.32112798885611
PRIMCOORD
 96 1
Ni 6.374804689412665 2.0889835333673363 11.205705850256583 -0.2774012051671417 -0.985443420796593 0.72720567593178
Ni 4.455538894726828 0.3793005331588389 6.154987133464455 -0.2644682991555574 0.20976319430319357 -0.5734238820902123
Ni 2.810140572391847 2.1494728394904263 4.604008012572494 0.6536759821737451 -1.8870909900224533 0.4025949029583712
Ni 3.2069070968913733 4.326641880986956 4.632555215198896 1.487895085443302 2.2309156169201514 -0.7458160919441155
Ni 3.8319693279039084 2.9631386518274683 2.6349991837677114 0.42451432873928185 -0.442631864275599 -0.7677422025932454
Ni 5.490665103781749 4.6927086718793225 2.4951274475897964 0.18078531901360476 0.02232077498438737 -0.4989073989388763
Ni 5.444046652688992 4.990495177707679 11.577484812157506 -0.8911893500070135 -0.11973910243456153 -0.4512052077669068
Ni 5.607584397561046 8.04961031660526 12.250668170224419 0.4551096850276356 -0.013994514506879123 1.2007473424123578
Ni 1.8695618974938113 6.793924770312779 -0.02763977201844704 1.688273496097486 -0.5311546890083562 1.0283474192489708
Ni 2.769319847450219 1.8160080188858878 0.2788733583526137 0.6028118483340262 -0.7690483229991787 0.30621452985440806
Ni 8.103946933751642 8.795896903358608 7.049820201756222 0.07295582353243564 1.0585020884554803 0.7141609269326797
Ni 9.108437120475788 2.4421351383751615 1.0144145832629095 -0.6603569937383466 -1.06024941016389 0.4155121252406715
Ni 7.301457899614894 0.5275694155644335 4.821328996647463 1.344019494971853 -0.11083614351797685 -0.9406563463888897
Ni 0.7653735749975139 7.275008618303774 2.0242255717263817 0.5909832311302144 0.09528662581915204 1.2585773660469486
Ni 7.889549387101701 3.858409507604116 3.648124068764349 -1.0476630888584473 0.49112492677998 -0.406007785294662
Ni 7.722580334915713 3.721539482705075 12.541748609132597 1.9923858920072268 0.5525691501283903 -0.7106110047978922
Ni 8.315067900473156 7.260000061909405 8.975215931391485 -0.8218451550852361 0.23285555734628283 1.025895872384685
Ni 6.735911102357833 1.085194170683436 0.26590811360805433 0.5526467974438611 0.17573747217705218 -1.2754659142721712
Ni 1.7793831365748265 6.55554447890895 9.384321509804805 0.8559444107617904 -0.05452101386601577 -1.7845286564774945
Ni 0.2539777220242226 4.841756652179009 1.2933052346762566 -0.533111812734727 0.4101058666234356 -0.30676705992376846
Ni 6.371892173920731 1.7724295058378357 6.509768836986671 0.4606504123402067 1.2250200989167934 1.1623510020223466
Ni 3.9945332004083487 4.619204062151656 0.5163726138201323 -1.0205852588050488 0.6717418385365205 -1.3679189272972698
Ni 6.112041182374806 5.867508201994269 4.497039510003605 0.24240643425951153 0.8280893362227352 1.0873241548934949
Ni 5.156089886645911 3.285554116784484 9.392140703739553 0.8315171309573616 0.1640068140036853 -0.22668953774488698
P 0.27151288560784353 5.6341975078685875 12.384039535888773 0.37045817032482653 -1.631608439305274 -0.3491851198786632
P 3.976448299525625 6.529859732914463 12.478672625188233 -0.10219158046910143 -0.6098870100132529 0.1931546392122351
P 2.6644510865187954 8.522439003498809 1.6500082882620577 -0.7162059823871665 0.4095129702344431 -0.42023806996143115
P 6.431152762570661 8.011401753995461 6.0074154344547415 -1.3450965300861157 -1.2151856293248748 -0.8242830751027675
P 4.612377853967438 1.3749530556871505 12.511176298078208 0.7332662803035629 -0.6221812539995736 0.055651527926033194
P 4.013428144662266 6.150186033708221 8.217271091220583 -0.12441105398893412 0.6805334686862214 0.8919989903925025
P 5.3542501594283225 1.27661014977984 4.229950917460226 -1.8702754611270112 -0.019836832220269062 -0.13218684127961106
P 0.09604110850759187 5.835962018572267 3.542514436704665 -0.01985020195670775 -0.2763712212407305 -0.3586624632414791
Ni 1.029164653907369 8.856959610969172 3.972094088865185 -1.7535435209498897 0.23463656050610557 1.1469228403927343
Ni 1.926301339921037 6.666647843315294 4.530049232460303 0.7727365704840434 -0.719864147965044 -0.18174536893402893
Ni 6.170382508322596 5.853091250309199 9.101007475488085 0.003450677552761799 -0.19622890726218464 0.2280833327686201
Ni 8.619544090322046 2.2997859437069215 10.183708714942643 0.5381100372802669 -0.4639080000455559 0.24980478360611172
Ni 2.544910528796758 5.414184267285764 6.674430630806395 -1.3405045398400592 -0.4614255999433344 1.6976287120601405
Ni 0.3704473962244529 0.11626943876015988 9.338443019679218 -0.07911875781003792 0.8355090257255738 -0.7442626314140666
Ni 1.6547456767419055 1.15149940617948 11.522029607030003 -1.3877243920589712 1.225664931589644 -1.195710808429715
Ni 4.5223083123793995 6.928837948865676 1.266489158445372 -0.4449366011493756 0.6955991047700923 0.9334654850674053
Ni 5.622565649122679 8.265027243677377 8.178293442488695 -0.9109775883775343 -1.0930116921965758 -1.0790590866712255
Ni 5.556424242623056 3.4605234849623776 4.595456138959304 -0.8026125321078693 -0.8980421112627889 0.0853498263214143
Ni 0.8035521022913034 7.275845966507704 6.911333730759158 0.677731223350736 -0.47745951347774546 0.601101807621455
Ni 5.279935506329463 4.956500660950269 6.915970091357879 0.5415563439576544 -1.3024887227179183 -0.33160237379989344
Ni 0.9340073118193609 7.453582224402935 11.262933139028707 0.020641330399435418 0.8003543322013119 0.072158781552437
Ni 4.708627389364921 0.3397749674500302 10.392131054028665 -0.9671412800532956 0.8281777821714834 -0.7263965497669231
Ni 8.456725372712063 7.349477998788144 5.055927568717234 -0.4041334510900846 -0.08478804028067333 -1.4907492670626454
Ni 7.382143680352359 6.243104379511806 6.89256438873583 -0.2388164029154081 -0.9765363481149504 0.37895720893477314
Ni 2.517150615514269 5.319709546016177 2.111518211825079 0.14456361767740908 2.58813363440562 2.4212970642626233
Ni 2.57200602448265 5.193188052724411 11.425104732102827 -0.23719557948253342 1.5779042649135986 -0.4276425899556183
Ni 1.1109244247324843 3.664709024168727 3.5759637669684277 0.5336113780789649 0.32094283720351824 -0.5839443220055621
Ni 1.7778540659415616 1.3850649454107065 2.5938899377601636 -0.08842923657768642 0.7382601339737286 -1.5626157141856443
Ni 0.943937169324671 3.4795276485472426 8.083886073139858 0.11438837964560945 0.16066000901863944 -0.1783851942125444
Ni 3.8027713600972772 2.92910772862641 6.882173989718358 0.20069131390891243 -0.4469785712800689 0.1679693981958591
Ni 4.115038528887089 6.905792670035754 6.183427847243183 1.5889322405929862 1.6558739967208578 -1.7330531143060217
Ni 0.7761608042507618 -0.0001820322182458314 0.31930089370283044 1.2553773710524123 1.5305545719850413 -0.04780323552620799
P 0.09942963825023803 5.514929998473919 8.260324441318996 0.2643469430863447 -0.004003464732438267 -1.133541276879506
P 8.889707207031597 1.625502200880713 7.628290376347645 -0.8885385426477279 -0.1484480403334798 1.255971038772353
P 1.976123558054921 3.190487790805599 10.39772581425645 -1.0492993389102896 -0.4929336978539446 0.3899491891699026
P 4.115793962592809 6.157330798274369 3.5697828629978905 0.07002913680394392 0.43079784775514834 0.1853963354230549
P 6.965180681238457 3.9839480269173535 10.343349150022055 0.6965223879153101 0.8418768769251309 0.9666473711360126
P 6.442730011651096 7.959759213679118 10.198948452254184 -1.0360717844764222 -1.195834992712405 -1.0892049168559756
P 2.4018150020337097 8.400768668823293 5.817376529089367 -0.019249078037599107 0.1773161295180817 -0.8427474524555422
P 7.244709355576756 3.9026251334160285 1.4260403977378433 0.3032827009195938 0.355339312405517 -0.17583800231065846
Ni 5.6392944099794695 3.267769569061867 0.025566425052627018 -0.4817373149174929 -1.291723256671298 0.7538970691800371
Ni 1.6961307015600953 1.2588984149445206 6.479436808460368 -0.10553607146130213 -0.7184119888995498 1.3213004561077824
Ni 6.866610235058339 0.8498246921693937 9.080679937676573 1.3063926857580146 0.9321336536298591 0.20163130922467856
Ni 2.41666883104257 1.7082813521280047 8.86723532968915 0.9462487528750025 -0.46914842250888883 0.08095709657035735
Ni 6.6098810960553305 1.9250817240587899 2.523061201640711 -0.16079473482429082 0.4803594607333598 0.3582086635335121
Ni 4.3158109640013285 6.90073217436852 10.294647340191474 -0.5186403585914294 0.5910004575213951 -0.20841722179826042
Ni 8.566954982470826 7.3137541759574 13.351100257897212 -2.52166727525227 -0.48407059103635985 0.58455213079289
Ni 7.61656477100934 3.8552148421739014 8.359220725169774 0.021683398510704593 -0.30870155794231996 -1.8326075142625924
Ni 3.1021020472363356 8.652628445988226 12.306377310296371 1.1219679702196097 -0.2506442487882716 0.10489483833287741
Ni 0.25624220281920074 4.584390400412141 10.293994754689063 -0.05768449919566194 0.8615003075830131 0.6247595562497111
Ni 9.051552052273966 2.557716495350352 5.4486475170051545 -1.1241536650170187 -0.7008374703508962 0.6588138176209427
Ni 3.84273653361315 3.253543751205955 11.476618029544216 0.3766373025523449 -1.5898503815318814 0.5061923626360637
Ni 1.364176748366997 3.5297321343394428 12.539576964768923 -1.102666184567204 0.03573910527282232 0.13607486348010756
Ni 3.0690905044574537 8.42418711370062 7.891915805938897 0.06450280766907601 -0.42419551194728233 0.8958926690199539
Ni 6.020478976597154 8.168568371228911 3.3911328033670665 -0.9492883110322748 -0.08518784682225329 0.09251626216286647
Ni 3.2932631812271955 8.956449319851432 3.783479585607584 2.3884206252495765 -0.528934798538902 -0.03383854581599978
Ni 3.1774906904228466 4.259344569901471 9.006520922124311 -0.5744214701167913 0.9717132156946943 -0.7642215910344967
Ni 7.514644932013499 6.081414261654945 11.285032760484844 0.41398926083824183 0.32897727747222055 -0.23303836278105028
Ni 8.222650143269748 9.103613266692275 2.3189421041940217 0.31564610758095313 -1.5334959140015525 -1.0403210466710793
Ni 4.713533157646645 0.34731838257413755 1.4209380346604124 -1.416166192339432 0.7119474642211286 0.08625125508976113
Ni 6.376506690653263 5.796315401438324 0.26755914582754403 0.08157827509412402 -0.23603035552983864 -0.6793348203924301
Ni 8.00591348261535 8.571678718534304 11.361923169471883 0.2481165972704114 0.9478574921230194 0.07430668113337524
Ni 0.05022086869184242 5.022687575504453 5.620623365353995 0.12245341604193104 -0.32840263591567315 0.6119670324707331
Ni 7.46484091710144 6.339690674513044 2.1923377862429545 0.2430713215370201 0.3452567313585344 1.3849231751647504
P 8.708712572429768 1.6114675168539592 3.434199805881848 1.4245127645319144 1.9744151664614191 0.7025089445160482
P 2.1091891095926236 3.5004158455909518 1.3883415253391316 -1.1314753954894126 -1.6416794503880305 -0.2673067970456171
P 4.941956286712427 1.5444159492631073 8.267238024967973 -0.7952144398715852 -1.4172023469134303 -0.9205683173897631
P 8.512072268669709 1.301020670246606 12.274965830715871 0.9164365546095766 1.5975202393723131 0.4467571992978822
P 6.533800730439486 8.329994542369315 1.2198807191246182 -0.006133366591247502 -2.6188981692819864 -0.011032860775393902
P 1.8307162221201507 3.5176087886042704 6.076325550993883 0.022424904662419445 -0.5821664041695329 -1.0667265332478015
P 7.150635105187311 3.787089284495399 5.964215548420642 0.16874458579898682 1.6467401527403895 0.1915746963196249
P 2.3612855286412757 8.872550670461926 9.902686466253638 0.8394250729505286 -1.3595345598883164 1.6535906000033198
