# total energy = -381165.5191464065 ev
CRYSTAL
PRIMVEC
9.29352534601857 0.00000000000000 0.00000000000000
0.00000000000000 9.29352534601857 0.00000000000000
0.00000000000000 0.00000000000000 13.60201374784502
PRIMCOORD
 96 1
Ni 5.322708736604081 7.323576894829028 6.347216764155529 0.17070659462136406 0.8048650755874719 -0.18619363451336965
Ni 3.670747405990476 3.3789399990126494 0.7469977801931856 -0.6715166098995918 -0.5270712629676019 -0.25048072662721377
Ni 8.122216008133258 9.04037915281243 3.233008414947255 -0.5661432892683992 2.3325999187355313 -0.3546340588083763
Ni 4.856433975532343 0.4922817628134101 11.171048122903295 0.763488312412898 -1.3445062048002845 -2.5532936439082996
Ni 0.7273698543504145 7.244080077755608 12.085879538692962 0.1921465096626949 -0.6481967042267288 -0.4823677494126402
Ni 4.56466374265649 9.042749001813334 4.246508261551372 0.08700124588190823 1.4647140193411485 -0.5613751784557944
Ni 2.9816510776809153 7.329199477752739 1.3931319988503017 -0.011042630967406788 1.0699072449686284 -0.7554438448418667
Ni 7.5709705434722885 8.997805512525625 9.901151060157586 -1.2741271408560897 0.28292779141232566 -0.07629980030400409
Ni 1.5193798959199625 9.062776549252336 3.918849221276359 -0.3464813477942549 0.7175398707072417 1.0301944997600387
Ni 5.9571033738575085 2.065597563288821 8.269453332530523 0.5087878912773818 -1.3273325212344755 -0.15718259199300028
Ni 7.909654493040521 7.582717559696372 5.812208947237216 0.6710319569536894 3.3787332012130133 -1.271090925132927
Ni 5.061021645751454 4.884816402390213 6.1734919627485665 2.0406357281525502 0.9226162010577272 -1.2442311246276057
Ni 3.3607153955194327 5.697386510409554 10.505800839715763 0.13705111135044784 -1.2277529244669243 0.23316486105658552
Ni 0.8138693428833652 1.6194061108090465 0.4916460856696385 -0.3901255668467668 -2.148686595615906 -0.9722690881981642
Ni 5.398878471550744 8.757818803700872 8.493954239825062 0.37405591497841384 1.4615129959053474 -0.2672957413020235
Ni 2.6391846632367324 6.751625455368014 3.484101816089572 -0.6442585455145873 -0.5637012554858098 1.152062732722461
Ni 7.457561651872225 4.883190035428809 1.986900918760411 -1.386550169245212 -0.3334908490718579 -0.18495796233405565
Ni 3.030934643374199 1.6154563624742087 2.468710737047479 -1.8597411372545904 0.1203080875641541 0.7450856415359942
Ni 7.493741346619339 3.7886915380314834 8.956532036455393 0.33293291968585886 1.7552430201394997 -0.833427460606197
Ni 6.899754958212678 0.5629701764238673 0.5985021124440693 -0.9327543179329935 -0.2776130640676316 0.26498714777350496
Ni 5.655435536330828 3.15080253519241 1.5046273535512056 1.628051832302267 -1.5436733687551865 1.4519672611984413
Ni 8.641212939330963 1.1781030527389775 5.773660332841747 2.250975106674188 0.8342149895044987 -0.2275886525203887
Ni 7.804749177267226 1.9072637694520351 10.123856458326737 0.30529484625361614 0.28875468250674785 1.0449742291723743
Ni 5.332076610301766 2.169991735159961 6.006798642730166 -1.778279590243989 1.7017954418433208 -0.36273637620053656
P 0.3948995559272941 1.6601489265735865 3.406747156642458 1.0812694640589828 -0.4925981688913968 1.3688504379726039
Ni 2.581592685752048 0.8684706638641649 11.644208457013342 0.06305527658927206 2.236613438635877 -0.3101020378342724
P 9.32716805602364 5.211744042208869 9.015605401903779 -1.1364201410891979 -0.5281295290287872 0.33411948379479234
Ni 4.273534763039708 8.785346226213319 13.123509094889018 0.31347378251998276 -0.7607202627494576 0.8853557740443719
P 0.2605727971459282 5.954259555056425 5.212033070851724 3.0822068451806466 -1.196922569349629 2.342192704630289
P 3.796210000155916 3.5505821213564657 7.004628675999294 -1.369626654016996 -1.7415328696422587 1.2387441333711051
P 6.4392050088450805 1.188521094817456 2.659669452130026 -0.5423623847987175 -0.24035392260585703 1.3041383425061992
Ni 6.594109491774677 7.7038958386092 12.564343687802287 0.1515621604824293 1.0943034144248058 0.5497051983170339
Ni 2.411456114538218 4.632971155035452 5.744184987385813 1.106835228343229 1.177269571005392 0.9769549237096077
Ni 2.7514411576755733 1.7124621815778285 4.919276794920987 0.036971435018026653 0.3686493992508619 -0.29095220437869895
Ni 7.294822726951407 3.230243591112868 5.88481647386213 0.8623433723095987 0.5264092039035708 1.5758882629248345
Ni 4.819250580031904 4.343217617191741 12.310244760515294 -0.028782214339014945 -0.7130589521177526 -0.136929498170919
Ni 4.030239559139184 0.508976652010358 6.701481309214011 -0.9144089826565865 -1.1205160682644315 -0.2748774103040234
Ni 1.9142710876743123 3.121769561549978 12.798162283756845 0.3915545859838095 0.7315495547227723 -1.1314532840022258
Ni 6.3538625642361 7.638330016250889 3.9984752183541423 -0.15029254974138634 -1.199616057021392 -0.9728653270212665
Ni 5.099506134821016 1.721634891240146 13.093692677047464 0.5772733377432897 1.6441050291103878 -0.001455501499603945
Ni 0.3073210890845206 0.25474947407155296 11.404690141873473 -0.36310018729785853 0.09464667824230796 -0.8823316425060674
Ni 4.7453856394076865 3.975891022051814 8.991189451726635 -0.8987267960346393 0.19702749190408003 -0.4334309145026212
Ni 7.434299957561403 7.059891695995248 1.2869367417384756 1.3251815363297437 1.1383988620821233 0.09150144774510693
Ni 8.406235440747334 2.448444346003288 12.411212409536896 2.725322813995829 -2.285670344063528 -0.9458900839840032
Ni 2.94385430949789 8.249964809570159 8.293529139674597 -0.18475201697083665 0.0228427089261284 -0.5387831520878915
Ni 7.076880260597798 3.2595181964181377 3.725170291281796 0.18339910248736802 0.4091802694853728 -0.529388855357185
Ni -0.11859560817811848 7.137288176307084 3.5499083407581695 1.111859163920382 0.2278647889999108 -0.9630786799481479
Ni 0.2188169871025709 4.904574437589897 2.8053473229494412 0.8826116356403315 0.7676478431072263 1.3233061736839016
Ni 1.961017520907806 8.65583165493261 13.288827902486897 -0.48512962842849355 0.5373201943891198 1.1226328574971183
Ni 4.880708664121982 2.5500132861243325 3.5691412917674565 -0.47112508661928537 -0.8569206586321307 1.312867751959397
Ni 0.9826416245547155 6.319151246516995 7.438329630215486 1.1744344155494417 -0.17720968584720448 -2.2643101332201967
Ni 7.854079210587979 6.169702063052221 7.3473729668557395 -0.7786105127663171 -2.48264127169806 2.361335853217643
Ni 6.7103993762778 0.648601649675703 5.136650497514381 -1.8601558561945062 -1.4341016937719302 -0.969539347971827
Ni 1.3600516948553472 6.882701338931671 9.667917026956582 -1.0226449695475548 -0.7135019531924423 -0.1975576533759372
Ni 7.699286249964306 5.692646812407748 4.550921406508903 -3.2275335662763247 -2.63802743391227 -0.7802285079857143
Ni 0.6969001016666507 4.4292756632637404 11.141123900166013 -0.22234848716737188 0.6465272869441059 -0.5586215269700573
P 3.1223829342325646 1.3313904622326644 0.2640030374056662 -1.11862939276468 -0.6083782866782103 -0.37680082471340265
Ni 8.766796349327821 8.850438078771449 0.012381764015304893 0.5533214549133826 -0.8887899965369015 -1.1766856734774638
P 1.4902632805480867 5.455801315199878 13.080172456159177 0.698853607151648 0.9878543442309309 -1.2377655715079199
Ni 2.743550954531391 7.926838221678439 11.008096376248671 1.5691540295247943 1.2811508804720904 0.8165265710858002
P 2.9373209610757933 3.35451661401511 10.72601743175769 0.2665701759899086 -0.1434701275029142 -0.17784243433519692
P 1.3341320522533167 9.278098241416712 9.276138236890084 -0.3420631641219012 1.045754558981825 0.8662517062250694
P 6.2168295308309585 5.461219440562727 0.08048378948085523 -0.2857963712093723 1.450533356965392 -0.1179537283993646
Ni 0.41962219244573146 6.782377731226788 1.186521128131204 1.0269608233140894 -1.1511726168080239 -1.2093235141171432
Ni 5.3305152980188195 7.404319044318609 1.3934851528190637 -1.150906507630831 0.515028472870455 -0.4856127387124992
Ni 5.582853102224747 2.6445191468701372 10.642107119427292 -0.3387227868947586 -0.2511011338200321 0.40475205851069
Ni 3.23243686312939 1.256856387772899 8.975370941983746 1.9472859143447945 -0.1848458622362236 0.39449592800032063
Ni 9.009310897086872 1.863035881627344 8.012116540961513 -1.8102620566878567 -0.8404172616604687 -0.662149309752079
Ni -0.04505594094618303 4.076205336231204 6.93038920629768 0.21972390506033126 0.06898629736172636 1.141891962837046
Ni 5.751530589936062 6.048375087731493 8.727786776067862 1.090874848359231 0.2250455743835608 -1.417474112517578
Ni 0.8197809544499309 8.82081961302291 1.87805700688287 0.4152881821553234 1.2816944116803861 -0.481327481073584
Ni 9.4138766488802 4.3199559228809195 0.5271176137741312 -1.5748791049340298 -1.2503266960023822 -0.5242746740590712
Ni 1.3454701533556748 3.102002232824801 2.0185528078869783 -0.12002346644419976 -0.4671648164199567 1.5476626924202377
Ni 8.316989715430985 7.011649005157262 10.409729949276812 -0.16801516383212997 -2.062635629462409 -0.02449310004535782
Ni 9.090963812074838 8.194240830709715 8.183080235944287 -0.7854568462641892 0.8079074619582215 -0.1069630337158158
Ni 5.739950857170866 6.253734120566585 11.017781159165693 0.31387204639966587 -0.3722738833773266 0.5123115881599242
Ni 3.0788985284473727 4.045239309286075 3.323829392834793 0.16084101468119397 0.0950418567981976 1.3120658248833919
Ni 1.351315780891235 2.3480278030434674 9.421883950445602 -1.1641584875447306 -0.2964003719774637 2.445145588745447
Ni 4.624941549008865 0.2944783662047264 1.8372101036328004 1.3634598630846517 -0.7317660416089526 -0.4718519374829809
Ni 1.8779984576722597 2.1042121617152953 7.0937907595862 0.9406992838116832 1.8082380842792922 -0.20265126584876067
Ni 4.828479050847184 5.23383475230748 2.0015503029961876 -1.064737784952547 0.6078671513697467 -1.4662880486964878
Ni 3.8668779680102867 6.491713427884691 12.849645626934498 -0.41859179260725976 -0.308401767313714 0.4550379512494357
Ni 3.5538999099577295 6.10881088401726 7.681982634847519 -0.06410480089970895 -0.49298949079254445 -0.10656991204245517
Ni 2.235334512906421 4.376256100321974 8.717040672539456 -0.32130022054293694 0.1362494413847589 -0.49423699004640037
Ni 2.376345175222882 5.068484346722924 1.3984367432021263 -0.41949039316212916 1.7830767545223163 -0.33757093267850247
Ni 8.316859606074072 5.941852698522288 12.690311849754584 -1.4109753921671118 -0.6024871180047559 0.3397507139386407
Ni 8.248338442608754 2.1415256665726465 1.962076982814092 0.0315579773119392 0.8103703216764172 -1.3482512736650136
Ni 0.7477914472703507 3.686332648243472 4.793771450538276 -1.4875382163245157 -2.0182306209844727 -1.6089955870017645
P 5.567258566446258 5.151094494836745 3.874628768272063 0.7480997457719696 -0.420013869765767 2.0668789781197954
Ni 7.220836970495773 4.212336897663453 11.342474635455657 0.3260351641247611 1.005973679539461 -1.4942536806714781
P 6.92433633314361 0.6416807612405175 11.97355334281292 0.7502743848257852 0.06962547360762203 -0.42018973322199893
Ni 1.215769711565091 -0.003255521980455831 6.531415368793932 1.0697900026644735 -1.2576211727812665 -0.27150952227305497
P 7.114463277694467 9.036763971395368 7.292596927595659 1.0561847531762132 0.437369330325079 -0.5951206503373557
P 2.9644859360939844 8.16412980811001 5.144730288578636 -0.18270439041318856 -0.43897858379372784 2.2627931823550385
P 4.432565571288523 7.435489528824601 9.68395393454857 -0.6565998406887594 -0.8946544257374784 1.3275083846907074
Ni 6.948843359870593 3.4757599476063943 13.42890084808104 -0.6783655145006252 0.8318102367177481 1.1357177157055343
