# total energy = -381176.12832142826 ev
CRYSTAL
PRIMVEC
9.12182020865458 0.00000000000000 0.00000000000000
0.00000000000000 9.12182020865458 0.00000000000000
0.00000000000000 0.00000000000000 13.35070592308517
PRIMCOORD
 96 1
Ni 6.930676883888045 3.745428491784339 6.669772758453099 -0.8010978952355559 -1.1808912269183793 -1.1968433793722615
Ni 3.2496119553634886 0.44437129491397354 2.8694135776673297 0.9476188937496518 -1.7866444172689167 -0.13007185181913727
Ni 4.843412866219836 2.24569179072602 6.152018244475591 -0.7390692601385852 0.12196747754444802 -0.8585738779648374
Ni 0.5868668968281429 2.735123053013956 8.99133984951853 -1.8716895678657184 -2.2414885073399913 0.03580981060975768
Ni 7.725816828019571 4.278963754690338 8.902570856340725 0.9196751161515323 0.6935851596638571 -0.45382721877078613
Ni 1.6315378809818746 0.35619248350245514 9.155406731817724 0.7870385889290124 0.29439979660766713 -0.14616310095404506
Ni 3.218752837661129 5.283403863078629 9.455570259167887 0.3769982854361894 0.45620008987833693 -1.2758299824798092
Ni 0.9346125748347704 4.943333284579765 9.058320462990789 -0.1346892959864906 1.7317012282638176 1.60795120489765
Ni 5.753661059327441 8.198336235675473 10.104281272519371 2.3974179436521807 -0.044720482835826206 0.14488526268288598
Ni 1.7363749604241492 5.812022464902283 11.568639906153264 1.1794799483931493 -0.008274581303966395 -0.862504066257179
Ni 3.877649275436629 7.406407172250782 4.306697736795645 0.04397023493336298 0.4201583657634313 -0.06457505566790814
Ni 6.440616216007007 2.85207390966839 4.152416743196152 -2.992224148072911 -0.713223502720075 -0.07106709115015503
Ni 6.334967294567833 8.372225493955128 13.073852435871565 -0.545342293362648 -0.24530663862544205 -0.5147667345686361
Ni 0.20977814763471392 4.33218045367809 6.971457805410935 -0.031256129800804236 0.2854361596564762 0.8691046022928323
Ni 5.4103978437621185 4.988458929059095 3.102770718310861 0.8647977473873621 -0.15549543409856448 0.7208308827536876
Ni 8.271256066273361 4.785689988058284 1.1181618406955074 0.8208794487378571 -0.5768128531671034 1.008054987548522
Ni 6.180288589608062 4.430212655258715 0.21728540565098398 0.710052561191261 -0.8464439274705229 -0.6407785573857868
Ni 4.109042488193279 0.3132487784125447 9.284280719642346 -0.8354298357482064 1.3270293881717596 -1.605147416900268
Ni 2.4720497587378576 3.646365524522258 10.784739868859704 -0.3794310632473981 -1.4453561836398268 -0.6022176663934531
Ni 1.552697989080754 3.4231910717566882 12.782887352000875 -0.7563406456245233 0.13241361257843648 1.0293707183071625
Ni 8.376841134971206 1.8840572292982838 3.300747967165929 0.48495839295795196 -1.197450673938957 -0.3460663717440234
Ni -0.15393983752439108 7.508343512872676 1.5363325314780927 -0.559566664492146 -0.6869247169245459 -1.2541491550722659
Ni 1.3853308322368616 7.7987913895386 4.551215424441493 -0.19085941542015517 -1.015255104841387 -1.2040995467140425
Ni 6.587313328300635 6.2545219623132935 11.76362702235009 0.7834824961466378 -0.34700199618441524 -0.28367521110131144
P 8.806223454949171 5.069688737849964 10.987444044937167 -0.594699246529221 -0.8229880104404278 -1.6580522353190996
Ni 4.573169821274492 9.002734827299726 6.529096047484791 0.1381793114176201 0.3237759357769392 -0.9752320274812301
P 6.7240129256661545 6.499260398007737 0.5961264565028886 0.49654455513365453 -0.3286147519264792 0.5363197781490634
Ni 2.6307146991206056 3.318326626853844 8.427833022014646 0.21148711897283576 -0.3879172463415384 -0.6839144693433125
P 8.136271371103538 2.1363211666493758 7.3210196378173675 1.404281267976388 -0.9426967738576861 1.812440552396414
P 0.5719773497322042 6.450604609114923 6.633578288121679 1.2720093231821383 1.090573000848096 0.9989838784851892
P 7.856204125813695 9.115480524846625 10.644625062015093 -0.7380845276278127 -0.6585268825081433 0.50664487679245
Ni 1.2603436519951452 0.9885042885165732 6.857523534693294 -2.4107622261695707 0.2869482254256284 -0.10343753706106057
Ni 6.104449776549411 4.144617586933807 10.390867882698918 -0.48766087949077946 1.7736575180909453 1.2831725388878095
Ni 0.30454747413341954 1.4546201783991792 11.14787953061877 -0.14995856344073527 0.31880805024870257 -0.28697367934692514
Ni 7.3433297856377715 0.15079645828695895 1.7728540315454928 0.7572770413958635 1.0199381121393531 -0.7675177452872652
Ni 3.03011359613444 8.152435236480002 10.975628551245217 -0.2851697933689669 -1.8924193442139023 0.44347672877439753
Ni 3.115074229382969 4.913842439905888 3.2347160229934167 -1.7674475326254915 0.780631656961404 -1.9740284725459616
Ni 1.556802808166199 5.627287362416862 0.6256100037206143 1.2384687682225315 -1.2153288397709585 0.5292644139641789
Ni 4.5436789766006145 6.409811829225787 10.766623021780585 -0.3171586875707376 -0.42394997159537945 1.3261757819222129
Ni 3.9985772456938498 7.220011898490804 8.182607481122064 0.8078002469563959 0.39209580319926024 0.948667132508508
Ni 4.832931894821665 6.290325106558567 6.167278137471238 -0.0548107771922927 0.3633562691727226 0.49704206359536335
Ni 7.064877102521539 1.2434226755429203 5.65539898787803 -0.016907317278299916 -1.62176702773482 -0.11183501709613643
Ni 8.755816276579901 8.540805852884274 6.202831343843308 -0.5239692270035106 -1.3002716604619413 -0.4279876319998629
Ni 8.250102565253034 8.271976690068362 3.613942926839353 1.6887640625806595 1.919393815920217 1.7513989638030611
Ni 8.734334390032737 9.173905783162798 12.986966186380954 -0.7048548190404054 -0.8914444034406133 -0.5193078169720992
Ni 4.832758580238057 0.6793284028188092 11.585836361575224 0.5485363748199134 -0.16627452699193945 0.15705660793809725
Ni 2.506274828090282 7.239103868148218 2.3979732813398913 0.1610058223938324 1.151326882997701 -0.45674413530726493
Ni 6.8349889900962175 1.5360050581332763 13.197493235453257 0.171874132566904 0.46706788583077624 0.26496863583074365
Ni 1.5494871083739166 7.833226260755392 13.476202241716827 1.8954979831392262 0.7899066545054266 -1.8768119766939486
Ni 1.7120744314383127 7.193467401738256 8.59400978132376 -1.4422978564294773 -0.45369223585481866 0.3548068369408147
Ni 6.334164574391124 8.17230256085356 7.499745285161697 1.392914163790027 -1.0419392990007925 0.822468647601848
Ni 1.1284330102293108 0.19494971673404726 2.1564055903434505 -1.0731355220979388 0.3880769118478542 -0.07840501957246497
Ni 2.508236019431106 2.1299358925164613 1.381103780760872 -0.6599312190548376 0.7096614964004294 1.5886522474587221
Ni 3.982504598519284 4.283086817416163 5.08392242607425 1.5242314579804912 0.15964596593182828 1.4730526211138308
Ni 7.350116419859042 2.1212519196956965 9.945194904043849 -0.3862732829802122 -0.8565450204602667 0.3589000331735819
Ni 8.595609748585064 5.935604884834758 4.906971884938872 -1.2996885342649616 1.9842789466293762 0.40584889111929456
P 3.15483624359065 1.4387573330889805 7.469773720563812 2.014412789900279 -0.6805319260243248 0.8717556667624342
Ni 3.6374352625563664 2.365488655279696 12.866142204873897 1.4453369003661172 -1.388471554637641 -0.896610778132901
P 7.0529913708141265 2.678111676827215 1.7964038347297022 -1.3423670469700946 0.9357859056704659 0.0025523341082085075
Ni 8.044697418217346 4.164785931373627 3.705941956546393 1.2535040652890992 1.792749758835706 -2.231790049105305
P 5.693894893443356 6.072532527705025 8.8724387477075 1.263221292576863 -0.4117572861839296 -0.2922472690410386
P 5.4177773962957305 0.4928592423152921 4.246366018059788 -1.2336772603711592 0.26267983979656695 0.18201816297944134
P 0.664472606457573 0.6666746138514097 4.295001738948183 0.6204280187538928 0.19264144702124242 1.5064299110226957
Ni 2.5435100981053664 1.13600412098691 11.130830848683889 0.14823078211635118 1.6874813392134937 0.8261849201111707
Ni 4.395048038426733 6.474759188977723 1.4282982540592657 0.9439913242993936 -1.1877177629219093 -0.3128317780606096
Ni 2.8711293920450456 0.7186890569381353 5.125202311161527 -0.04256255595255895 1.004247955097606 -0.7889499470191123
Ni 0.7878443123436619 5.922943798411207 2.8854214599185477 -0.9402603965020517 -1.5078185638401065 1.058409528741674
Ni 4.303683887404909 3.9238969037993137 1.292204345554353 -1.4184272204594668 -0.6282493145705245 0.8384431686532334
Ni 5.390193012041538 8.360403614989044 2.3162408602565603 -0.14914326662829153 -0.2902099268960357 1.6793787647110177
Ni 3.9598916062685747 9.02722691450955 0.5505939788430907 -1.3464504730108489 -0.9173364407160267 -1.2555802310918376
Ni -0.09321405615633134 2.814145381318874 5.321350635068525 0.30919006754296424 -1.4852478776284421 0.6402859340200844
Ni 0.5843602206399643 7.881863806007824 10.800828023128593 -0.2620982562614841 0.3073123909042772 0.1724829697954965
Ni 6.076865392295218 1.3288485216211334 7.961413375519718 0.29514438808317556 0.8331901477844103 0.699141313595396
Ni 6.372996162939437 7.546299406682761 4.6775398635230445 -0.5050461648467625 0.3056252330098414 1.0267183682859802
Ni 8.522562212504518 0.041474179857320985 8.558442892221404 -0.2740621134915796 1.7045249249593417 -0.5368232001480432
Ni 4.237067234558226 4.419248227390481 12.21675070373625 -0.17859525334082146 1.501373322435395 -0.740728393008563
Ni 2.514575684463072 8.001669792381689 6.465292563984666 -0.5441505870473918 -1.2531968184613258 1.2632135792673793
Ni 4.727775551672744 4.061435708622303 7.679966911017165 0.580021332802072 1.3864000168205928 0.2711318272186621
Ni 1.4692606998039344 4.744094487992437 5.066592792077518 -0.006032836457641222 1.3832604427503465 -2.1908696567418593
Ni 4.004360479694233 2.442358234019803 3.5358273074613087 2.0599655388294136 1.0645495802011409 0.6143825838907612
Ni 4.566164263368665 2.7133310245803366 9.653361422891082 -0.5587755360494183 -1.454827613465372 0.4827282180758525
Ni 8.344549891499035 3.256106691338682 12.294477733574206 -0.9855940874418446 1.365563539691216 -1.121944830291158
Ni 5.111795059846443 1.507015913569842 1.662910557160924 0.7483869379950854 1.3301926163910898 -0.010202908674930814
Ni 2.32684862495537 3.0131652542216454 6.091873523053626 0.702050773932707 -0.8383560082560659 0.5098137614387349
Ni 7.918761568675883 7.057442819066788 9.24641878058022 -0.35894091371384634 -1.3980044338287407 0.40183154242978536
Ni 8.825543470111334 6.264264066276084 12.656669638215545 -0.9117730876956363 1.3829642516661667 0.7691755926056624
Ni 2.726886049382496 5.507508741503567 6.882915945555859 -0.7130594663383849 -0.3533744753696624 0.8757208220577692
Ni 8.948605946292986 2.11499435104544 0.9111713213108205 1.3070915115972521 0.3843547258012606 0.5568551790982539
P 5.7025423789833605 2.5991075921626763 11.868750526946325 -0.8074801446128158 1.5800231110288143 -1.2652645482591371
Ni 7.15786493753716 5.950126822577045 7.073911353237594 0.4590285604660675 1.1373071716798415 0.3924465016704596
P 1.5831192594139991 0.8881122720528264 13.273632156396154 0.765731857031436 0.38005121332990033 -1.5010347081490536
Ni 7.308639503455663 6.558406280118908 2.707483025656605 -1.5756244677404865 -2.125572635306262 -0.39205029467330543
P 1.105436901530627 3.909000971429242 1.938655884044802 0.4210587660905136 -0.2530839685780158 0.18460340720811433
P 3.4895158263572954 6.493075803918998 12.881949407080938 -0.7885725090750355 0.6414706983568049 -1.0278990188576425
P 6.379408802532922 5.270496487509951 5.097032306051143 0.16578550317066287 -0.43960901828887516 -1.0277547799702946
Ni 1.8196115696567914 2.628370391331807 3.700054733795845 -1.8353220849802778 0.16324808146078984 -0.27786528928775367
