# total energy = -340865.3545748146 ev
CRYSTAL
PRIMVEC
9.22305407898451 0.00000000000000 0.00000000000000

0.00000000000000 9.22305407898451 0.00000000000000

0.00000000000000 0.00000000000000 13.49887192518995

PRIMCOORD
 96 1
Ni 6.619265889026888 4.433116198504512 11.02720130575575 -0.05976580720472288 0.4629476930148156 0.1859033569664605
Ni 6.529092090982594 2.5429988692205265 1.0520968167544065 0.3785751430050061 -0.36181335016563493 -1.6907684946051975
Ni 1.331698307458285 8.261532090680278 9.267596645387117 0.30416381797296643 -1.2296953929052756 1.125795571495816
Ni 6.434260650715493 7.1516943449439445 5.023577954212334 -0.2369220141061726 -2.9391568359342863 1.1086254874744326
Ni 6.347914420042415 7.811410167825235 10.963918243681379 -0.26648378692368946 0.6697114383700531 -1.22825197559053
Ni 8.128720114426024 9.071980283556242 12.070299188813541 -0.10581529326461776 -1.2814000203684188 -1.193125821311358
Ni 6.3079048121958206 -0.07080077331359619 0.7911840001813608 0.6321522491693564 -0.25522929705579267 -0.507480485319868
Ni 0.9967815509499002 4.0570553985190285 6.061897373041143 1.6658115675495442 0.40356960816681464 -0.36254611456660146
Ni 3.9475777486483334 3.8927374701200144 3.9240137682225003 -0.5605807075789571 -0.07013583758513726 -0.918623020737934
Ni 8.714098122820557 5.001403888010217 8.191169412427243 2.1999767612494496 -2.162338896292018 -0.8107212772579327
Ni 1.7509229997264024 5.974583644013268 7.636109426834307 -0.24513231783110687 0.7060925481022484 -0.3571406272803139
Ni 4.031479870036178 9.053100692209544 1.3857131226619688 -0.9968876580777929 0.8114964648610604 0.8614761392132971
Ni 8.089337674245076 3.0294411783595465 3.4337079218020286 0.7571456580243219 -2.4708157398180415 -0.19568846137768234
Ni 2.587666119289926 7.463867050518789 13.313491226373834 -0.05325963065508892 2.4154873995593817 0.9742637500306899
Ni 2.6502814322614627 0.9212143033774013 3.3740024823380064 0.6824576822921279 0.8246204038375281 0.6415064366907469
Ni 6.447357387262787 8.395994993583805 3.157898950864521 -1.7457373946419092 0.34554932289828877 -1.391132903519888
Ni 0.6588101189876672 1.441987586072756 11.896650296777274 -1.253789714850318 1.2280352315940335 0.12238425336689246
Ni 8.951674768399263 3.7101394488782273 1.3865367413758232 -1.7547467972293715 0.5152850689659514 -1.5838820797635884
Ni 6.225957978236163 5.033500115604996 13.359860129888991 1.9201954858859056 -0.48450819279441076 1.9653121757188865
Ni 1.8905969280871269 4.2801610725183625 0.8486011999711689 1.6446143646466387 0.13045751729333016 -0.5584479775066704
Ni 5.5041248872942905 6.098873518457874 2.9427131132547375 0.05138581067114377 0.7743627932335567 0.49574339938859785
Ni 6.618048445911225 3.7985793127880916 7.801092337419982 -0.38167717896909753 -0.627762604742093 0.9426507511110992
Ni 2.44428452325877 0.3417805532256363 7.69671872558117 0.7100268501596481 -0.24839890439752058 0.8225938603258026
Ni 4.430164821254418 4.7598797753595115 9.384212938981477 0.1553923328617969 -0.7616288906066561 -0.05205584015497486
P 8.003074451057156 5.458147963570162 3.5938994558832533 -0.6503980827534218 -0.38571921024895506 0.6332292842836191
P 8.294679746420403 0.6063982705529413 4.0498374365317655 -1.269711271176581 -0.6578601954584218 0.7081124067457547
P 2.506318783834195 0.5338820092127277 11.368128726495032 -0.10908265116197986 -1.117686055014804 1.7652299561488825
P 0.9570947499900351 5.904525326539148 10.127461038788958 -2.011953529726509 1.7695753776017717 -0.37914541368617927
P 2.698093743712995 5.6034940700834115 12.730772224420559 0.4210849913427586 -2.966027177962569 -1.4622583587118043
P 5.970857530235023 2.764075471360421 9.920456049994282 -0.42013651138656033 -0.5986132368716465 -1.081255580101912
P 8.846697968834961 2.595542607326115 7.568898266101138 -0.5757227054267181 1.698158873531998 0.0002655949565608329
P 6.871710097502945 5.85745085940014 7.139782770823641 -0.15068695696632758 0.7693170032795331 -2.6026994480349366
Ni 8.099151003601639 3.817154543355874 5.527639063229029 -1.7362618510513064 1.478787723825395 1.3539922899138488
Ni 3.56107645164064 8.79312124869184 9.840245917085227 -1.3605360045696373 0.5686997371416658 -0.20371595966784914
Ni 3.222147666682907 6.692865859201121 2.7120445350520352 -2.110608814907578 0.42521058347535806 -0.4314107987487989
Ni 1.3508638134760869 0.36258960744958413 0.20090762785706096 1.0408823184911882 -2.4042095126527174 0.399413419906596
Ni 9.015452186163024 0.4548653394791808 8.186930496851796 -0.37040623404096856 0.8000103185983318 1.8537178138786463
Ni 3.96155067531675 7.1192845335163435 7.415173015113791 0.11838438817887997 -0.0028858061882272882 0.4690018696286955
Ni 0.9884992485418223 4.179805022961242 11.684083806476949 1.7244481462458299 0.9529158804825332 1.399106665753984
Ni 7.498444279614428 6.558984008693707 1.5881019729764208 -0.7179728444796022 -1.3266408944840895 0.3734825589734471
Ni 5.554787122402945 0.003357191621982546 5.428274491966861 0.7721269619245025 0.28587941784148185 -2.1415571836599763
Ni 1.5762014665208053 7.597416871085566 4.48158519139419 -0.2286428048165159 -0.4150310718391949 0.3344365008145789
Ni 8.491250694330606 1.4763895771441704 0.5498452709141765 0.4054082040374502 -0.11893588980697582 0.03665750332203364
Ni 6.453592171703613 4.15559450645656 2.526853913357118 -1.156643667224924 0.865769110161696 0.11006404123864272
Ni 9.160770623514555 5.864884640848816 13.303799641328835 0.8197615330833301 -0.34698734089639593 1.1617285379469993
Ni 2.988905856440279 6.587575475803998 10.534951239571777 -2.8222922268340427 -0.8744648381634812 1.5089843020134335
Ni 0.9538297889071179 7.592049053711958 11.626402827345414 0.3176849923878529 0.9903871379551137 -0.0006461182244311453
Ni 0.6861002131917445 5.73114113615 2.5672425887192714 -0.11157096480147237 -0.4307163437849356 0.9700124309535036
Ni 1.2036638731276212 3.4210981625009995 3.1406878099695166 1.7867945696935355 -0.6004652024787207 1.6574315710159648
Ni 6.233557774655157 8.238105533757654 7.337284324873014 0.5068549359207271 -1.9747962039499214 1.6905738620958883
Ni 8.687415827868922 7.369118617736847 8.176846932015769 -0.4975868803552398 -0.4789250422796784 -0.08405167633528104
Ni 4.867983190198131 6.132058066413625 11.89130461473304 -1.31372161531926 -0.25971304385875915 -0.4888443582759194
Ni 1.4520222687230773 1.6509450953794496 9.814503451326669 -0.2768702723643361 -0.22271126982342937 -2.086242470248072
Ni 3.8009957529116067 1.9865720270386389 8.884214585210616 2.053505899246999 0.406665473483319 1.3828902038951216
Ni 5.826581297974933 1.3269207655346946 2.985950789968622 0.3918777736511832 0.9127092263566604 1.3357978783930091
Ni 8.456664242181061 8.254743923005062 0.5069903509374131 1.7707717119027182 -0.6350015456926935 1.5920185928277937
P 6.453721294458304 7.208222442337162 13.044823666076166 0.8501645708552197 0.4240656712376374 0.7434884722522035
P 2.1453376769859123 2.123045555693792 5.284915953570471 1.6310373972931522 0.7442317781761312 -1.308468851560753
P 2.1421926156037805 5.398068990422924 4.323958588604375 -0.23693666939419195 -0.5161386752154982 0.633940965638663
P 2.8296606076898656 3.0953214524140007 10.616228479817819 1.3192805974642763 0.4534338399871094 0.9849821648894583
P 6.067229220504517 3.133523341694912 4.5600134302885 -0.8782392176042487 0.3001544397032572 -1.3232244126033728
P 4.799714145181881 0.6465093319925074 7.305265570931052 -0.918068948006677 -1.096171577981796 1.5869558335929057
P 4.220321898772696 8.542429420458028 3.678159431762672 0.04834188163849739 -0.06518363578618451 -0.41616518544363806
P 8.17735327767524 3.8309706781078794 12.55079170587745 0.11623597437730948 1.2403914391665414 1.3149542021747807
Ni 4.434453541320962 2.1751927024813997 5.973749879940116 -1.0777791915175374 0.0038689960371030142 -0.9270495542387324
Ni 8.188208812123243 6.420555192610367 11.260691216148464 0.2291683383026827 -0.8216574645544624 -0.5401790039941535
Ni 3.3104307386763607 8.904683308745414 5.703489498232786 -0.9619623069555173 -0.16582561237997892 -0.9308306185477195
Ni 5.408066780857619 1.261796781900577 11.56577969401769 0.1690286926983089 0.5401756615600439 -2.194331647148531
Ni 4.14769034925865 6.4878097016968965 4.838548735960782 -1.1555879722669002 0.23880046207580807 1.2568935505866226
Ni 7.252400870549514 1.6818331029124705 5.452504376884747 0.223700373209576 -1.01493345983591 0.78426668261083
Ni 7.036341609734781 5.928625166396952 9.177788080277521 -2.904818724774049 1.3599497930488642 2.299611636734969
Ni 4.1893416607006095 2.4011851923534833 1.809510605056951 -1.8080642777055895 1.1659844850098757 -0.35769984221789364
Ni 8.14651138541175 8.277792334717518 5.9248169674389395 0.8278435387605163 4.0574170182850064 0.6059190265044403
Ni 4.413083725419496 8.704229455140554 12.365182357535174 -1.102142193742934 -1.0505411817371908 0.6133711119071114
Ni 5.010248796706595 4.3594977822224665 5.9209967785108475 0.7198284096311023 2.7811229516845843 1.9382418018646554
Ni 5.535391040037479 0.3264177123335035 9.416948324211978 2.516426081457989 0.32417419965662236 -0.42961976828664716
Ni 4.910104877389323 3.4059908002020776 12.393044281081458 -0.6938618103640115 0.2894277973143725 -0.02502300440689884
Ni 1.575721867717665 4.13321937767928 9.256297482046207 0.7192085166589162 -0.29900515659016247 -0.7698031988873324
Ni 2.2167794525460134 2.609008266029672 7.514403852094313 -1.7777198610857772 -0.4629037271507576 -1.472521174090393
Ni 7.538702909916498 1.955665573397805 11.84860740897808 -0.5385327266399822 1.3487564954362063 -0.7565831006526323
Ni 0.5084807964487108 1.1179448101201879 6.156767550134651 -0.46763584251910423 0.5675196007906355 -1.6909723830858878
Ni 4.616101588010375 6.8601720570658555 0.889732331172799 1.2103061897453864 -0.9897677592035601 -1.4329853207792997
Ni 0.4779423426587482 0.5454449518953637 2.649423688248154 0.40843824911302556 -1.0147357420028071 -1.5949061987882338
Ni 6.870059170853672 1.3853580350865669 7.711405516621953 0.04187195764343757 0.4777428490461192 0.4346012806616386
Ni 8.682499940136733 3.4553802538716285 10.268997101733415 -1.0336094389788586 -0.6326734117801491 -1.6470489422300603
Ni 2.7164015057174873 2.543773605748676 12.73073164298337 -0.10669666742830657 -1.1164334135546257 0.6375135134812698
Ni 8.417733731641533 7.676855034382642 3.6842872287781807 2.3088310984507077 -1.01860011005422 -0.6319270205324279
Ni 8.690431766496362 6.200843602448641 5.885197494772592 0.5458158905649567 -2.1719941599935946 -0.6307862220597652
P 1.004962399765006 8.2903080188687 6.787002803509059 0.34541793952674704 -1.8880217293668389 -0.48798818092321117
P 1.442494854037616 2.0339324088487496 1.396457980463094 0.502931689606921 1.8660287700355154 0.22743001545533734
P 4.693934939927712 6.999892100696113 9.588275773579968 3.583671206213422 -0.24846498174876566 -1.1506450264393282
P 7.835362438820533 0.24312892403044475 10.016931960772917 -0.6015288678565447 -0.33025434441243123 -0.609903207963169
P 3.2909700949335496 4.37879241099496 7.443236923540628 0.689353895191329 1.559685685023043 -0.2395347691386714
P 1.185060973398119 7.371350596782231 1.4806367934681346 -0.27679005394570394 2.2067783575523157 -1.0252590101316341
P 3.957547869921309 4.632896769174194 1.805514255799245 0.6204853543543895 0.730851243104167 0.11658281619376697
P 4.93753423970739 1.480069575652882 0.06257104231278568 -0.7672930308709689 -0.2786829000930426 0.2439933191306572
