# total energy = -340863.16206341085 ev
CRYSTAL
PRIMVEC
9.36300399203733 0.00000000000000 0.00000000000000
0.00000000000000 9.36300399203733 0.00000000000000
0.00000000000000 0.00000000000000 13.70370276929565
PRIMCOORD
 96 1
Ni 1.306710175468073 3.0132955178802816 11.405796835019729 0.5765619134985619 -0.3165627058579516 0.7850331284632093
Ni 0.2546671496736822 3.5614900282626967 6.948996719629356 -1.5823191061518427 0.377977104409691 -0.49395751113276865
Ni 6.255141958892209 0.8396311123391896 12.426133920994346 0.04367970027613768 -0.6453602632191983 0.1822778443987312
Ni 5.129896160368602 2.555762973441485 2.0524584485511785 -0.923365677629242 0.12433674910757296 1.148947841242563
Ni 4.091567126262492 2.9724353692302814 9.48030352710526 -1.4838155160572897 3.2382013304028168 0.6105182158393485
Ni 7.1930995920982275 6.938060731173078 5.112098026416086 0.9877903237622148 -1.465428786019986 -0.6341245424043789
Ni 4.166986121994791 7.772641439254291 6.758542922721813 0.6732760157928599 -0.26152155782240766 0.7500298729151469
Ni 4.983861389861258 6.502746594788005 4.836585085048004 -1.0963261012817893 0.11026253040269396 -0.8795648783942077
Ni 3.259963853394547 0.6783271552098421 12.657343000909156 0.9274948693062671 -0.27664530083772354 0.36237333643416303
Ni 5.529387444156311 8.08556238976567 2.2929584371519196 -0.25243090837504917 1.0092328099067072 2.1630143250924876
Ni 2.7677320168162223 7.0803503001543 4.944035853132849 -0.756586443086742 0.8649399293921813 1.614227781934981
Ni 2.221531826246468 2.871343017036411 0.2200802135799378 -0.23235213534730306 0.8471190991606766 -0.7469028972503912
Ni 6.474957199464174 6.137767343063519 8.756131360014148 0.8818734719227262 1.891319169171188 0.2553506531250054
Ni 5.847804477907275 4.4048251449112215 3.982391692874867 -0.7694617563875136 0.41418954977450606 -0.8962803913766756
Ni 8.138940874516734 8.458462742717904 7.847685914833977 0.39978134476897603 -0.13620804662386218 0.295729056942052
Ni 5.848759504296435 8.652567174813036 8.893867700239985 -0.3029080911889945 1.3913876998431713 -3.4662003309877463
Ni 7.748953039601563 9.286461259116956 5.020201080269228 -0.7210432558748098 0.4102439348631967 1.252369951684656
Ni 1.4140476512067535 0.09835460987827488 10.873956683401511 0.3278403356542999 1.7393906264882752 -0.853484379257072
Ni 9.554851763482734 2.2261665131350448 1.9280559620587192 -0.49713925129486003 0.18521481553986813 -0.5937847051347516
Ni 9.119865332231198 1.9612028681656695 4.443645095029867 -0.44852611827284694 0.8800814130193101 1.2256312501382312
Ni 7.133466620798537 0.6628295112947459 2.695887815940608 -1.3075160007291806 -0.11313728084732773 0.0019409257764547215
Ni 8.719653097149711 3.265946812832528 9.90143177640976 -1.4227908967448013 0.29305819497810814 0.5098821527828251
Ni 9.180340973874266 -0.09792672060391534 3.2828723148294583 2.0994111464195457 0.2466724086247171 -1.4345058711888843
Ni 4.545082942064521 0.9285862026872778 10.330920251820949 -0.20376095397317165 -2.0173582456818484 1.2940048536166229
P 2.5175525548712168 1.601289001505265 9.38126729054923 -0.8882014710232833 -1.709755834340978 0.6922857241261432
P 7.733887966462734 4.686763915797748 7.70020643283793 2.1904757637375503 -0.1995579716354176 -0.3377689076219215
P 0.7380228586350955 5.239031332839822 10.941474240214072 -0.9678192799569267 -2.2180565015692966 1.2312082300053764
P 2.893795500185517 2.533273038277118 2.2218632765815296 2.0024417335813323 2.1958110599075344 -1.2675592578305845
P 4.05567873263842 6.470865566796884 2.0423726208413298 0.2845303600127551 0.24200148551160902 1.419523538847439
P 5.459661154743719 1.7210043682877814 8.577900964587487 1.74423047107908 -1.0239863140667977 -0.6930264589469096
P 8.07490729142385 5.370338098345689 3.3684660868078518 0.08041742201680344 0.7123765813387473 -1.8241591263849228
P 6.2357137259754465 7.152145813410074 12.711897478939425 1.4627206430602033 -0.8530701745377889 -0.7392651781994752
Ni 8.774529662511226 6.242202287619454 6.613557744942165 -0.3474547674511177 0.437517168756853 1.3686748316266881
Ni 5.999354057661834 0.8219696782423758 6.579380908415531 -0.2648071705522149 -0.3115007179540119 0.6941153211357142
Ni 0.5586782657544143 1.5775256978220153 8.320929579674859 1.0653887882729844 -0.6604883771098883 0.4947740934967931
Ni 7.7260698582769525 1.4197778095417215 8.7013577876946 -2.2977856392698235 0.6233966144639135 -0.6763384567682674
Ni 4.510926704146281 2.835098829267357 6.970264782795827 -0.1731807671934695 0.5854756710484239 -1.0598236354803812
Ni -0.13130302030434055 5.748509822445942 9.185742490775317 -0.29974023498397406 0.9326337331947294 -2.2884805598188134
Ni 2.1660279396293274 0.7670912402800979 1.2676664495582426 0.6655097415838797 -2.164927225844484 -0.024938929333524793
Ni 8.571043500593158 5.758584414551213 12.968430675273499 0.49664097150220265 0.11409835920901641 2.018283842819911
Ni 1.0373927337245799 5.601707285625742 5.238446145101365 0.4995249779182171 -1.1783882579908673 0.06078807782165015
Ni 6.093358615967518 5.196045782323747 6.385418793978392 0.07998290558254612 -0.966754329027522 0.01918634312046373
Ni 2.568665192698978 -0.10296776185807668 7.584862652536781 0.8500475856613812 1.2552806975735478 0.581176786562754
Ni 1.5383415268549552 3.5610312410757463 9.115387943806718 0.8933531904275517 1.3154020883454765 0.015188020594348036
Ni 7.030417400807266 2.1505977093417012 0.8132873648044416 0.6990212430777639 -0.6393685644121375 -1.8750173466873707
Ni 2.6446459686601953 5.542224122387096 3.2965348099967544 0.814734512182384 -0.4090362877083407 -0.41115821914734996
Ni 0.6933884831471451 9.507943114368045 6.488675872654361 -1.4605490893301813 -1.0263147050896584 -2.475427013337808
Ni 6.156362268640719 2.751777458314939 10.914163294385203 0.5281914926149742 -0.21613567348844068 -0.014358839824833337
Ni 4.13632228449966 5.231578381802837 7.713854883499503 -1.0584501521716223 -0.2931882927980693 -0.5212762535523797
Ni 5.763790244672523 5.212084607859369 11.111907126063343 -1.412311851590348 0.7413626841584522 -1.1423809866583228
Ni 4.654611360695984 7.508099129456604 0.38085890619524654 -0.7483316592771178 0.8292239640478106 -2.7208668351070044
Ni 1.563705904190622 7.7085329521308825 2.9988905365104315 -0.10322773504309965 -0.15248544362764707 -0.7818788991049438
Ni 7.494691307993084 3.09238481110818 2.974347294609367 0.37274182415268065 0.7822110856333819 -0.21543196255319672
Ni 8.356125111016597 8.332970402581344 12.252233914832265 0.3452063377365732 0.38505020920638844 1.2773425624695935
Ni 4.096108183112916 2.2501451659060465 4.157059465349802 -1.5049975494515435 1.1953539393109285 0.9827882425619333
Ni 6.572622692261642 2.681339580612384 5.3192563584305175 -0.7129602217563592 -1.7027590913081707 0.22288584772808068
P 4.95496716008722 0.8942867108106631 0.7210805032312972 -0.005901453086099514 -1.70208571939023 -1.3171661222244349
P 8.603729746912395 0.5712331175703595 0.9275375462599633 0.104086226388653 -0.5651405590354975 -0.2957838214393873
P 8.406273359451383 1.6594613442097679 6.589795377559297 -0.4935247944707242 -0.16137503280779303 -0.6646689908501392
P 2.605705235792333 0.710738129216909 5.408879030950637 -0.19956799893774663 0.14033723830088737 0.9333135328705732
P 4.472800552610352 6.38598057420731 9.41155192638984 1.6748942465771024 0.9818081380368511 0.5259770014621588
P 3.8109204499024774 4.381848333548458 4.868775092165029 0.5483245159194234 0.977141071578485 0.3027422550350915
P 6.303370791544856 4.161209148640746 1.2522071939587889 -0.14544036385540757 0.7005050267121419 0.020795853699428702
P 0.5321538122460308 8.261118711302677 9.247998039443674 0.20997222499020612 -0.7362274198144159 -0.7427832186550627
Ni 3.399313439177762 7.5844169735551725 11.901706459496705 -0.6041627059349659 0.19586252506170138 1.0185096072229427
Ni 7.633975352749593 7.518351618634365 3.021159504784758 -0.012840346297777888 0.082659938194077 -0.4704211185737253
Ni 3.4463999853649416 8.92326097811738 3.7896495778348624 1.6526323498551085 0.9670723744885732 -0.19020532677592406
Ni 2.237299124671445 2.9854593075373734 5.54550491892398 -0.25942173787058553 0.22476043904297419 0.1798592076549096
Ni 1.0113261311027648 7.3369434197127905 11.47986568560186 -0.4410699191051178 -1.410143897404752 0.2594603044180048
Ni 3.338978242591923 8.219106913183394 9.56611639337293 -0.29469598769184735 0.4861881515999949 -0.3166159276933902
Ni 7.414235016208151 8.138135656188618 0.6534112657569284 -0.81331886278178 0.1359959306130561 0.5519749681878171
Ni 1.5973752659104665 6.901039414087354 7.50965619699109 0.5358909181417609 -0.0699723154240795 0.42315395805664546
Ni 6.705109196248237 4.16664905385744 12.839177216504329 0.6486402195220508 -0.33703254367652924 0.9329913736444642
Ni 0.9617490259007139 4.051830538070329 3.442205359655684 -1.383736868166133 -1.2994877311080653 0.37872529542962513
Ni 4.617028263381341 2.7697825146517743 13.218988402572641 1.3712952999686705 -0.35496521689555 -0.0945335497032114
Ni 5.479885242984781 7.820692374834446 10.821197093202636 0.5319933828595677 -0.44000599661697765 1.8625284701917406
Ni 8.045413829405632 4.289238862811255 5.050595263254478 2.0326478248510673 0.60558632575537 1.7640248800971878
Ni 9.049380639509566 3.4080397587336284 13.348954385932156 -0.23046083186186114 -0.9304971464677008 0.133086470275745
Ni 1.8235198970615785 1.421107356083495 3.4161415659350136 -1.3930452900512524 -1.6117340689788502 3.2168089807699696
Ni 2.2079554707142726 6.537473975938979 0.8104410116445883 -1.243566494460413 2.408481143444878 1.0728766120095976
Ni 7.850719528070136 6.277435270976455 11.069562941308616 -0.9672173847068698 0.6759239949386681 -2.1037136304496413
Ni 6.172447909195417 3.85582541620069 8.670359690963263 -0.7196651445803607 -1.5392127618806717 0.8669561884912618
Ni 7.683861437077549 9.199085707512511 10.321779151196065 0.27858391262133314 -0.14691926239377923 0.05098266169545413
Ni 1.5278455995779958 5.0388784002800024 12.980106341031187 -0.022677901213489976 -0.3445131683242906 -1.261225088082441
Ni 2.6476327668772783 5.923803979876121 10.175135785440725 -0.962158996347356 -1.1087417013373229 0.12673661679831721
Ni 3.615608190315171 4.884725905464786 0.5540585596719417 1.9106116988522128 -1.4552158500427261 0.1922699226144366
Ni 9.050139042818605 6.516959634579641 1.5486689200632389 1.0209387854897256 -1.0614308320665011 0.093163151718246
Ni 0.913470569327846 0.9894822432016535 13.102918053175424 -2.4995886981856756 0.10223708899505618 -0.8675220882970607
P 5.53700892926197 0.868591819440316 4.213861064295744 2.253018105246146 -1.9533791717267264 0.10289940516940344
P 6.353481587964379 8.110215178811373 6.511177043423308 -1.1526571717733503 -0.44648311970088916 1.720246963680289
P 0.3739527545810761 7.709590971562013 4.861114282443345 -0.04326600977748678 0.6135284634205821 0.6506590497242923
P 0.7545832034832292 4.46986993241616 1.3751939942743736 -0.05634649711052877 0.570543989439256 -1.1922853276879337
P 3.395895942785175 4.092250625541009 12.137109228820394 -0.4041784453954072 0.19711593785282827 -0.8375350550166674
P 2.107640247837072 4.507939905929198 7.277954623075593 0.8485054379852419 1.4351741009005026 -0.5779225412915143
P 8.47758199650876 1.5788177923485278 11.497461578671967 -0.02763498810844918 0.5170686432289353 -0.13769440136140157
P 1.7172404407540276 8.321023209713012 13.392751708879018 1.0013991727949012 0.2437459790065415 -0.772258088185728
