# total energy = -340877.459907369 ev
CRYSTAL
PRIMVEC
9.20038550620157 0.00000000000000 0.00000000000000

0.00000000000000 9.20038550620157 0.00000000000000

0.00000000000000 0.00000000000000 13.46569417754323

PRIMCOORD
 96 1
Ni 9.272424561268766 0.4700780586371446 11.253428575309812 -0.23843716519911842 -0.4862568000544013 0.1408198343642607
Ni 2.136817143395567 7.341972065590827 7.106169864291507 -0.33329235990780665 0.06650338303887256 1.0894651124958978
Ni 7.012561461628187 6.529679226431585 3.5018479850597313 0.92232978016556 0.19659786056582915 0.8031756037001909
Ni 3.421080560498039 9.08636516444337 5.050698849708253 -0.10854374793937435 -1.2177199657109543 -0.6656701784211438
Ni 1.954566706184755 1.769749361407593 11.924895713163217 -1.1479569380842036 -0.3022200639830343 -0.46158526544965023
Ni 8.415675459168304 0.6968970034927958 0.614160696425015 -0.4431617686371401 0.03865525047835278 -0.6199513362277904
Ni 2.5502824696742237 4.200675229439337 9.611462448663048 0.4761986444874509 -1.3227546720558057 -0.07403311575701443
Ni 7.0472101135811345 8.036619574818488 5.647741308792947 -0.008641991945714148 2.184954576809005 -0.30692723965071655
Ni 5.954986343906664 0.6058361875861871 1.4154599948995574 -0.3373922410087931 0.654335470134615 -0.20403169113605504
Ni 6.612169883205383 2.5500064581079496 2.674960574314468 -0.47507738639881403 0.8708421538092291 1.294762557718254
Ni 8.375782587456147 3.3906272843524596 4.974860071681663 0.6802976985263316 -0.31638195730571317 0.10045557161460118
Ni 2.357718400270301 6.097849930610157 0.5339931370006921 0.17931747621882665 2.6617941973145642 0.2972845743546299
Ni 3.178098378321374 2.0571878065254787 6.49438286733645 0.6046285898277909 0.26562478135750384 -0.071950779306689
Ni 6.88717860745539 1.1252439533863994 4.667640797647464 0.6656537233609117 0.8206205386495157 -0.6142722835651421
Ni 4.430316852579419 3.418982872594356 8.065856559995353 -0.8401205563556564 0.6310842129161583 -0.6405934379581742
Ni 7.996763504648503 5.9922019034259595 5.821529231381794 0.7626187653237512 -1.303822096817361 -0.2078639203979517
Ni 4.047056392036696 4.468912469930086 0.2560384492999857 1.107050429677829 -0.716632528401624 0.006619562199046664
Ni 6.7870048096689635 2.504096534251018 7.943561355210609 0.30166239170735143 0.3876642497904678 -1.2796709534924542
Ni 8.409529601625932 1.305019486886287 6.568242642432854 -1.1094585248986895 0.5525776347688226 0.6077848760685856
Ni 7.6023521768283056 7.798007575774498 12.380830939144474 1.8562963732390998 1.1284078123076824 1.7132383935729396
Ni 6.4058604378010084 5.142813109759475 1.605608963098581 -1.8817114708780946 -1.8382580276801501 -0.09529073958421008
Ni 4.497663674750308 8.31927381945429 8.971370465586576 -0.875900027948111 -0.01837181763896836 1.9862489258715534
Ni 0.45934304878618915 5.514895101868095 8.529413385359994 -0.5269375656032151 -0.03814925737621172 -1.5982851425627957
Ni 0.3594425024503739 4.653260595044582 10.72024139208264 0.6412174446954183 0.8283970972711411 -0.8425903580523877
P 1.4273938149866967 2.447642968562415 5.063801118759287 -0.47141433572493 0.0038029186858579665 0.6043637662021786
P 8.124648863688853 4.290811406598928 2.9196724289731177 -1.1305073751491885 -0.8281500142573416 0.3314753613037259
P 7.292823606022946 1.0417596549740158 12.212589928999183 -0.11510417476571146 0.2298681925831848 0.17937404048837494
P 6.729088382679108 9.185260108639392 8.115787052334344 1.0098059088013578 -0.17861839326927303 -0.4200233828474637
P 5.9428418349906025 7.088703852377679 10.523183854379774 -0.23359912038052671 -0.3466083602904224 -0.6913585843261836
P 3.6006628859015346 0.18469405961089266 11.840802349227921 -0.12860040947993337 0.48213455035591163 0.8273519438360784
P 7.729639510808394 0.01571333846798659 2.8491661944069433 -1.3224499963311935 0.6279767776354281 -0.32644602640993453
P 3.415827140353288 -0.038194480541015007 7.198410169624661 -0.9864165833431398 0.5882933430028772 1.6233238306989786
Ni 6.785440744126743 7.484982858463 1.4238755875552558 0.10870855565201279 1.4540007466887024 -1.077896690932008
Ni 4.092653502785183 3.23705444887753 2.484420589729889 0.22239939500996536 1.1329892610307777 0.14599700768982599
Ni 4.567006980583914 4.822639692881477 11.212830034026549 0.38534228652551056 -0.5039393049358288 -0.4476673698169774
Ni 2.3384343921732813 8.762585196432722 10.129164462983685 -0.5516978032670304 0.3400916422178272 0.7811078252668741
Ni 1.62372084207749 4.258067234453273 1.6676720038524293 -0.25084890859990994 -0.8708624655242033 0.6890528190111423
Ni 1.1116457835546272 0.15411381814482683 1.9180402555425897 1.449971056704019 0.39627050340224007 0.29989887204902543
Ni 8.860762510556432 2.013421572499943 2.7875199311181693 -0.036278008495427845 -0.16168613629030865 0.5616613422376456
Ni 3.4911966987172125 8.429052819747056 0.8194792603064653 0.22514301919337354 -0.7376664662537877 1.435379017822457
Ni 3.0073024211109387 1.5122121693027388 9.031817918639165 -0.3791017049324374 0.4897941237836984 -0.39053462935972744
Ni 8.091472273422703 3.423417458425827 0.8287780899742411 -0.07835693994334893 -0.11223816607182606 -0.3834977771176041
Ni 1.4847674192295472 8.888106056388658 13.093300515206458 0.07742260105453763 -0.2250715425254898 -0.30518120349388733
Ni 4.828058719965992 5.833320445493024 8.868775126325371 -0.06394205006959955 -0.2662935252897543 0.44402488796838374
Ni -0.19935763408848328 0.0549290618042159 4.674252194698284 1.0261396129643745 -0.6794055257293654 -0.6535523121116873
Ni 7.107132224619249 6.827477305670294 8.185768864924597 0.02306742334242479 1.2112377004207204 0.2697619434543289
Ni 4.579114687957806 5.975668810606139 3.195853282341236 -0.9058364104962271 0.6420152580063653 -0.595564936963626
Ni 6.485765786237371 3.1239909109461013 12.152182957642978 -1.1787227585121507 -0.39131547338980993 0.34007930092265304
Ni 7.0681041891480865 8.996762609645241 10.510876498639611 -0.7259180674686079 -0.23701457381997892 -2.2942765976753003
Ni 6.010133454848237 6.175160770323543 12.631373078121387 0.20827555401407355 -1.1913818420370579 -0.5046548429456148
Ni 4.639920036007998 1.809734236975173 4.317061026590152 -0.1641320267276399 -0.10980333137808831 -1.0218921505419303
Ni 6.065133359621129 4.512549898558027 4.300202240122129 0.47143901831527846 -1.1860928257239767 0.9818870709039025
Ni 1.080189665384918 3.0248751574970587 7.704141562315989 -0.18462449025403688 -0.2750375900309715 0.019216682137766904
Ni 3.259696597697552 1.5454623626532298 0.6639623833664118 -0.10714532492995095 0.9658989230057624 0.22099814378706453
Ni 1.972728267245593 2.214772010096926 2.884243584326169 0.5946583659889565 0.5134318178072963 0.771198279462646
Ni 5.40969789357548 8.576222186884426 12.928090112058856 -0.05855044674038304 0.3794665444710239 -0.858271259122754
P 3.118599485018213 0.4349473064817725 2.9275764801926547 1.0217695089211372 -1.0073931855948068 -0.8295121847121908
P 0.9414110498622822 2.2241564033502463 0.6832638721959621 0.3432926656536281 0.017772750602388747 -0.33608894881633733
P 0.5264939027450237 7.6114329573587245 9.277028434194218 0.2755027025928481 0.755650561536034 -0.07837596610674244
P 5.616678967124455 6.575690354529485 5.227274489116469 -0.4386875349158703 -1.456675465307388 -1.053642960590966
P 1.0991424596024086 2.4815923912141336 9.847286730887667 -0.9247404464895816 -0.49000495424292384 1.0948634006933338
P 5.412872026587633 2.9193927372526263 6.0070191243421105 0.7108218352571177 -0.20669278290798598 0.5182567499997656
P 4.817055058857196 6.630432648507188 0.8473122666495494 -1.3606645597277016 0.05101891425002826 1.1570668708052718
P 5.453574532227526 3.356622659387486 9.909215446012597 1.1438817395735654 -0.5345513733947309 0.7108174643817435
Ni 7.731727998326535 2.260231115062276 10.092133831213792 0.1657533643811468 0.05737108172030119 0.47078672944326017
Ni 4.0114785011439595 2.458159009237459 11.80941339387267 1.9911453347319061 0.28992144912133944 -0.3595145268291292
Ni 1.3680421278522148 0.631301934729193 6.497345391481126 0.20550519035778803 -0.7163993293448953 0.014873831788038902
Ni 3.7087674160255717 3.9505351473106303 5.154438716930942 -1.2682822520395383 1.0584563228192094 -0.3242510756411448
Ni 0.5097841625227876 4.898349665510472 13.178161191295994 0.1504290753192506 0.3828580866510761 -1.6648543458425973
Ni 9.24344334680998 0.6130216886948571 8.825847047422755 0.2930530527717856 0.009958396764292528 -0.2910879586256148
Ni 0.4025122672903444 5.459067162396381 3.9436707396573927 0.7160347469166248 1.0224356817502263 -1.0214923440003505
Ni 2.418946966055447 6.477283030767212 9.509082398423534 0.8050779629292264 0.5342628956200347 -0.012498132467010734
Ni 8.5672702117516 5.8687327294459966 1.486989312338054 0.5250606602954764 -1.9381438428342104 0.6165546518414157
Ni 3.359520780833364 6.563665450625475 5.374535860109264 0.6045249743703911 -1.1718643408294203 -0.980416399895647
Ni 8.194396986486327 6.631003072410822 10.470681854281663 -0.5777610760129857 0.13206188566597257 -0.2698550173887675
Ni 2.401043015789798 7.4808978872821426 3.1568841293375445 -0.3081374579087338 -0.14646057758980582 0.23857446210793107
Ni 1.2093446776301289 7.025957222978025 11.607253322347951 -0.34297873395763506 -0.6979753183117527 0.20389645110977142
Ni 5.389420243839874 0.6722096089666828 6.430960009599424 0.5829847863057702 2.054873726128803 0.31990976795331355
Ni 1.1642811892431049 4.868227603244422 5.999451807233427 1.3184352187448456 -0.33558398415546076 1.2651794447444984
Ni 9.055663477888142 2.9316844523373677 12.012072126293795 -0.6630615371537032 -2.220799354421756 1.615608721442908
Ni 3.90511284388745 7.098833476859941 11.349398716941883 -0.5785172374527199 0.798459172061128 0.4614952768390052
Ni 9.01045278333244 7.958342694623144 7.018373345175367 -0.512715251356246 0.24385602222184455 0.8931744987578424
Ni -0.09989962629726096 7.614625491141961 2.7056889419877677 0.3072658539370579 0.2865821003354613 0.9846214391159299
Ni 5.571808686833823 8.65062570476639 3.468910604817684 -0.6839900597762542 -0.4244405380785529 0.5643160062516732
Ni 6.246537361362034 4.754391232927425 7.102614835317896 -0.4776106943436291 0.6393896474580602 -1.3773813582617505
Ni 5.074389842480116 7.731801601410875 6.944244918821123 -0.14409567690205505 -2.6099599862520924 -0.565239289396891
Ni 5.407379396418777 1.2062901496300285 9.346820718842295 -0.2659471976939291 0.8655377108771803 0.8858429980934357
Ni 7.413229051617267 4.721601058854057 9.25168597221748 -0.7757439898517995 -1.5286858942074188 0.273661021398419
P 0.9110764586902004 7.388526016435732 5.216071179641402 0.30016395278495406 -0.5068384808604948 -0.9657387432788143
P 3.0061983748458423 5.28106730330619 7.6081981018019915 -0.4390734575003793 -0.2391118226686398 -0.2702401686423281
P 7.684815232445474 4.859459635822446 12.006511413271925 1.7856866813413375 0.18458669503756597 -0.131692932362328
P 8.332770785045096 4.182863283029113 7.0903341606958055 0.6891690328740324 -0.3594535916842067 0.9416410788996621
P 2.6591506317982856 5.1666881102421875 12.086780176937214 -1.2754083215613583 0.1951467299415994 -0.8824707391870932
P 5.570060613580753 2.8103773689598848 0.8816324648386297 -0.7494017524128448 0.03394061861150283 -1.7111100343760273
P 0.10425416877451257 7.256647690069949 0.21327229718291676 1.1406544908855194 1.4624766453701974 -1.0174919645917058
P 2.645230448472527 4.896564790715233 3.471024853415344 0.11083897173145427 0.63083970100552 -0.0006597450711859607
