# total energy = -340865.87024346425 ev
CRYSTAL
PRIMVEC
9.30640290282880 0.00000000000000 0.00000000000000

0.00000000000000 9.30640290282880 0.00000000000000

0.00000000000000 0.00000000000000 13.62086135390749

PRIMCOORD
 96 1
Ni 8.471013753912413 0.4327002778258166 8.50255036183002 -1.028281599008042 2.0338094492593357 -0.9242807332443438
Ni 5.197989037003064 6.0432244785885745 5.85746122916497 1.3347709797903917 0.39706137473465164 -0.040457593794414194
Ni 0.6144133806546379 2.7811068660199587 -0.07790762225084989 -1.1077479699654857 -0.2935654736318299 0.14925202429201392
Ni 8.803270954571781 5.78356652789682 8.339385850862554 0.14255481477749643 -3.8424956768196408 1.0062215338842089
Ni 6.405699569857461 5.854741898202205 0.7317996951613029 -1.5476266969759798 -0.4341595651385297 0.01161804385490257
Ni 0.7376078212867724 5.7901275420266956 12.73152786642662 0.6479038555766584 0.3683596359245849 -1.5918692117341229
Ni 2.0988451541399797 4.6447233773985745 1.0594036943101215 -0.5654838013075294 -0.34935892645236605 -0.16205071871857898
Ni 7.550256851810662 4.049588210602149 2.6263469676208517 -0.07064491601107188 0.18952372732786715 0.2718008282612287
Ni 7.55480768288798 1.2666107575749483 2.8215478403481558 -1.3944452557225726 0.5509447271510899 0.10127652485399977
Ni 9.156672302895092 0.8450390764817651 4.500700276164913 0.1941108324779173 0.3887615966197047 0.5414121050703062
Ni 1.4068303318938862 5.030157364920519 10.11678598337308 -0.7736176875374161 0.5989747339761232 -1.0445386842968525
Ni 9.106008244848216 3.369922985165057 8.539898818434303 -0.26246952355797376 -0.8888974686490433 0.4790929353161104
Ni 2.6963720665128292 6.4982889735144 2.8594407215291753 0.42857744306506196 0.49770103733560095 -0.6102179109901104
Ni 5.45400818411357 2.6746602282645986 3.0020241222154724 0.058536048562679834 -0.37688284290424773 1.6884313618315892
Ni 2.091641998201647 0.9194865780893694 1.0309996216494173 0.018151988318678418 0.2020452568336456 0.5766156495546327
Ni 5.943711111083936 -0.1382075299857756 4.244533157246372 1.2874431412387053 1.0557736337807238 0.20460453292038958
Ni 8.911188004004474 8.781028651351349 6.305518933256209 -0.0201852166986233 0.21712760508806475 -0.3787042123837026
Ni 0.42382941446610256 6.712336242999737 2.708426650346062 -0.5631291850324237 -1.8888210853396825 -0.9019090504173629
Ni 3.210662510264945 5.892525894467877 12.100473706529948 -1.5903715441426738 -0.043304576324906065 0.8685528435544202
Ni 5.462104754741928 7.660984434955729 10.643504197719578 1.5426109889289434 0.8827376196952346 1.4438770279911393
Ni 1.233861525343692 0.33358615501078254 9.147770728405408 1.3010651028975142 -1.4176425197746425 1.1272400172518262
Ni 3.9634853698509165 6.100626372422729 9.869049534951357 -1.098514881402992 -1.4108769189160346 -0.2808068884145809
Ni 4.563590155860611 5.1255479958868095 3.1102008202924556 0.706649449046983 -1.9908031209011392 -0.169062888370354
Ni 6.131328195989344 1.1717598979838808 0.8620502505640366 -0.6729278884248218 0.3040123799967667 -0.2996960120096
P 1.5313593107192467 3.9190752146342196 11.91657825219268 -0.3756921650302562 0.48849983045230705 0.04498556357175478
P 7.222308515750063 4.713925790263486 7.565680353537534 -0.15441145700576633 -1.7994243426424041 -1.5725219175557628
P 7.505083571546235 1.8366837810355479 9.94502700921563 0.5749827419369001 0.8204385045456967 0.4243644334249788
P 5.835291515888102 7.80182753827708 8.577655826131215 -2.7207830171439467 -0.3097983905509245 -1.0791146224995092
P 2.0152922678165295 0.9888518530071502 4.0260951268156795 -0.4617089355117081 0.750285954790011 -0.7287784197355384
P 2.843115429349559 8.439586030910153 6.426199714432343 -1.199615799911076 1.0370984259687235 -0.15840000933986914
P 7.122543875363854 6.267639081039419 2.640022726860361 0.3506599046519767 0.43945346654761736 1.2368165773310895
P 0.8947408524562603 1.6175459090976685 7.357022422041717 -0.8603086012677571 0.10056330083705907 -0.5238424716176591
Ni 7.765290600016235 7.6416457294778795 7.959650173910432 -1.2528867434200746 0.7533584230677478 -1.0871986850592243
Ni 4.71750875542661 3.6911334854383786 1.0878003218484087 -0.3410254668860062 0.17750870514486203 -1.0329417234878726
Ni 4.836863374172237 7.33878745596217 13.35594935289015 -1.444946606906234 0.5413488559325386 0.11808922553596438
Ni 0.39742621845493525 2.0268042883536324 2.526465066556577 1.9276609410250156 0.43941567133114645 -2.3938117143581614
Ni 0.5060179821066593 4.747484679557578 6.605109728671209 -0.383847704257855 -1.115434025755834 -1.726347420151072
Ni 8.232862900602422 2.914709587790893 6.4340729313881955 -0.3710922043643996 -1.176344488087961 -0.6797677941647906
Ni 6.057612177659198 2.7716236413414563 7.915559228317359 0.832274063728044 -1.7717788130109937 2.561841790588627
Ni 0.7731471131437552 8.14481502161978 11.739071643529398 0.008251698485830948 -0.023523537043236904 0.006235439386750552
Ni 7.771460745219225 8.919070527363347 10.582619847874927 -0.2426427186400337 0.6210008605382272 0.5747695974848295
Ni 8.46728188630095 6.595959673220862 10.673920314713444 0.3061075719628986 0.4195150757524775 0.2942532437274739
Ni 5.274087494506612 2.3291786289122447 12.535333069856662 -0.4259253501541955 -1.262699358635122 -0.7500203598334503
Ni 5.096251439176381 4.643178514497071 12.59950164932746 -0.11093230277620895 0.5844937667511289 0.004233835575689483
Ni 1.3880872362093877 8.218196009441165 4.269799110808361 -1.160482838465356 -0.32012059841253904 0.765815674994494
Ni 9.337207215101442 3.186745054500714 4.3020262538301335 -0.7118785586564063 2.087978221992256 2.1806924590985415
Ni 8.262466568612545 0.9079829333149857 12.85598239402781 0.18048552838499884 -0.8762306718146522 0.7125848406948114
Ni 3.588213974428016 8.697010444876843 4.26851948039296 -0.10371264509931816 1.5500895566941755 0.3618076937386801
Ni 1.256978630448108 7.033872467378798 6.729168734144004 -0.1380597551206203 0.32485039978804053 1.3681950637767921
Ni 7.011118311992203 7.594611168609232 12.680408725272011 1.6870175122031978 0.5325813941525538 -0.7590850411388799
Ni 9.188295460360797 9.090661986266419 2.104709118683576 1.9668679502417803 -0.2998093976590127 -2.381695904931233
Ni 7.682724192413022 5.6118168601423895 4.8360462719869854 0.3521382889697161 -0.15395740018748325 -0.3481227400524198
Ni 3.046776753063346 6.459741852200998 5.192081332365269 -0.28752003876869836 -0.2130547205702718 -0.5773173036073477
Ni 3.729047771346347 6.877720331087734 7.588522919752828 0.3344100184520176 -2.43890192182858 -0.3944779302781916
Ni 6.159815095636936 5.6862494715051595 9.067039543477957 1.0772857968208867 2.0565269454615094 -0.20285412588818616
Ni 2.943726952410688 2.61815174912047 12.800409208387302 0.5255180595478691 -0.5241736297048327 1.0488293412524066
P 7.750726079288211 2.675860754254321 0.9488184991312774 0.9864806038118559 0.0619864690051255 -0.8913287037983553
P 1.1296856499254806 4.434082251418961 3.0322215387383435 0.3661996521587887 0.41686272573129496 -0.9185284041415986
P 6.948690960526655 7.5628018830831065 5.541442771137121 -0.4062132164372488 0.8565745881466217 0.7013961710678437
P 6.745941664308936 2.1349074658467484 4.723033966900238 0.7390155240825143 -0.650434335307996 1.0746956674962072
P 3.858369547727574 4.328985042101661 5.068050246101538 1.3531538531729532 1.1218913513454034 2.232701762286297
P 1.350377691167884 0.8333316214812192 12.314158026297463 0.030360357459412228 1.020056125774456 1.1758482651778328
P 3.3605793565318707 7.826508119089041 11.108085420374781 -1.2387068523752665 -0.02415731397249388 1.3353649046206486
P 8.905622774997855 7.88817234550686 0.09931327983968569 1.0937835373655937 0.06713895974034244 0.6445961313596641
Ni 1.9466668519389265 2.561056966586012 9.097046178738895 0.8381246089715501 0.8081907975265953 0.14254710146801258
Ni 0.2264480515109546 2.0706188337769786 10.960271821190625 -0.1570964600370972 0.5476382884856763 -0.48104748793931995
Ni 2.5536490697812146 3.1781924701243214 6.659933748868518 0.1471295786323724 0.6704341754686906 -0.9496657489763516
Ni 3.204939072406968 9.148733941118094 12.84471792381107 0.4166745209798889 -0.7191054154221487 -0.11358285302517859
Ni 2.8263266782994916 3.141450790997013 3.839081096826039 -1.0451675761301034 -2.1155533033970473 -1.6527241382379667
Ni 8.488519097995104 5.1057905022730115 0.46614097580154096 0.01686412274519031 -1.2487292696082752 0.831546184423084
Ni 6.994441237778391 8.394059107330923 1.4013274557875088 -0.2050223371840985 -1.3010954419148173 0.6999064738961946
Ni 5.052167008065424 7.204942767712687 3.570449912341337 2.0363090757527385 -1.0420945936317345 0.11006378412832658
Ni 4.583617535162022 1.4662517151836199 5.526922921143599 -0.09782996106629603 1.8850081393514955 -0.5606670966451763
Ni 4.4210998192045246 8.698201664463545 2.0036425125147144 -0.4496736016137288 1.2978987893543905 -1.3685467906892559
Ni 3.131129990046611 1.132189072338157 7.546747407231405 0.6914683704311704 -1.6101947495161881 0.3963067559568142
Ni 8.088157640027314 4.322424027971784 10.419482325476224 0.5459940680140339 -0.27733872736032233 -0.5820198512893396
Ni 1.8264002056972306 7.256193129149894 0.6158084104675011 0.04293459457999703 0.7241329505437272 0.12377419173588361
Ni 4.87286984746088 8.698322647702819 6.475561806696568 2.0649221115037406 -0.9686901125976543 1.04040666440635
Ni 7.508322199797578 3.2091083409604213 12.299882934703396 -0.14698405419344365 -0.1637129369123503 1.2843231075524848
Ni 5.968475449523086 3.8185567556033013 6.033605380425964 -0.6285287934841562 0.448134282151067 -3.0250306530799707
Ni 6.7949771018271194 0.836168213122051 6.729454440716752 0.24651197178745288 -0.11252690095683844 -1.343427627024125
Ni 3.3794341290526226 3.723696589609213 10.5970298823128 0.7809805556603905 0.44906039350976207 0.8449411176727513
Ni 5.770463112443108 3.972577725602533 10.383346493185588 -0.6301766135002244 -1.7158591190252384 0.6597365865455282
Ni 3.375786019068351 1.0856756700386911 10.77508184619312 -0.4307078591445034 -0.44071279287601517 -0.17320365001160493
Ni 8.255961392900796 8.037344679532097 3.7803204681508036 -2.2660821375189553 -0.8151793130292864 1.6409878236376447
Ni 5.905629309921587 0.5709031546100817 9.034649538403315 -0.41333722907653975 0.348279063124626 0.05970255806695524
Ni 4.473411110586136 4.4170887595024295 7.94974816109598 -1.5554554489917791 0.3888135329035626 0.1351166133318963
Ni 3.364339143352396 8.395771485486806 9.139176265215422 0.39062487508068855 1.616390851024571 0.1866636321712527
P 4.053115337347146 1.7491663670251085 1.7086416350697213 -0.8285210244435149 -1.3943071874828117 -0.7400516786565126
P 0.38582206452792367 7.408687849053665 8.922780990247862 2.410380674460436 4.514225945391935 1.9889138742982262
P 6.836520884913318 5.584549099290562 11.859643539790184 0.6421019041829006 -0.6978925287899593 -0.3638861735342636
P 3.922583728573175 5.817572124535924 1.0177072862143777 0.2176315413076768 0.42373477026077994 -0.43734516195536294
P 5.5931854412941435 0.04708109288375298 12.459860002636134 0.1461067937948129 0.4053904634256373 0.40427023377826504
P 2.1810579184283916 4.998720335515237 7.9077679077080925 1.1214619771174685 0.43136169067841834 1.1386048074453423
P 4.504131546958793 2.263782534882963 9.421222629655041 -0.5495560743336794 0.6102433649114071 -0.9879692725422403
P 0.8144507910320083 6.007199392493891 4.896100490682154 -0.6192702510003657 -0.005643571439022538 -1.6370069846130257
