# total energy = -340865.4220669379 ev
CRYSTAL
PRIMVEC
9.30531824890341 0.00000000000000 0.00000000000000
0.00000000000000 9.30531824890341 0.00000000000000
0.00000000000000 0.00000000000000 13.61927385324980
PRIMCOORD
 96 1
Ni 6.057715626702693 8.937637169478705 3.350382612322664 0.862042039019096 0.3210235698427826 0.9920840660415624
Ni 3.9650891415360863 5.355461872194596 5.875681269793948 0.5325986205437344 0.07311806014191279 1.8906465685841953
Ni 4.1784042561322545 3.409980383848317 11.541735122597489 -0.43882097516994106 -0.2910632760352665 1.5233631964429248
Ni 8.82687596685097 5.93608581240822 9.298572782655622 -0.08681329824081824 -1.2710158489206174 -0.5728145306409878
Ni 4.505300084773128 5.582064981191538 10.263362132420175 -0.450987692439462 -0.4496016107252128 0.684805356588698
Ni 1.7537733226286785 2.2083288117626965 11.550192726316581 0.5320545751148062 -0.5504634166392971 -0.6024549792152399
Ni 8.392485102273309 4.085174273008061 7.642836570537299 1.145514647191298 1.6925816365545365 -0.7956929221699006
Ni 7.853390797221206 7.891700792282819 7.92200449155842 -0.39838523575239776 -0.1839125517886768 -0.6274574147968484
Ni 4.64982098185885 0.38702865596347713 9.628622183637129 -0.24325464119241974 0.10088186051874239 0.26480177123557624
Ni 6.2701560413873265 6.21183961217889 6.839136236927499 0.8887043788016308 -1.0190827061175933 -0.8859705248102354
Ni 4.038098668194677 2.8100665189898737 1.837049406865962 -1.4942390253834588 0.7613044173877017 -0.8795129421103498
Ni 5.355638673240545 7.118577734303931 1.9394116292793147 -0.162330711852843 -1.35513848770315 0.6906494740743009
Ni 1.8559271059141755 0.09792823828732397 10.140543098458743 -0.42316064292486477 0.016090220693643256 -1.1527597587894858
Ni 7.710730963777048 3.548964616600384 0.814769009618007 0.7609637462188314 -1.358525401897512 0.14642046838048978
Ni 3.3356588073224236 3.874278541145928 3.959381259347407 1.2100382807959806 1.2785936612678752 0.8290524714669528
Ni 3.3858796096900523 7.923506369917163 6.72077072826033 -1.8551198364324955 0.0022276037789380992 -0.834483412674537
Ni 8.692981743158585 1.8352041622653505 6.842446138614022 -0.13313429279454492 -0.030909030874030637 -0.47805009587389286
Ni 2.162434982361706 8.660906311296214 12.312382035401276 -0.6067698045405099 -0.21151103023223572 1.9408581564415799
Ni 2.207221478895965 4.622928612238238 10.918367203196222 -1.1917777919238959 -0.8499092603113041 -0.8973921363836159
Ni 8.898740939369999 0.8050356467726225 9.083320300808586 0.828602785524044 -1.009666812120332 0.8728962081247805
Ni 5.100626427755115 1.0840695712115513 11.875938417626966 -1.0548994587058864 0.10975987973466259 0.703520159389382
Ni 8.585207547675562 7.967036648493366 10.153454227472098 0.4324520955291198 0.8179198518889012 1.1970174430562803
Ni 2.284139239201842 4.062515823172009 13.302571181745906 -0.35335133544121083 -0.6221108057729544 -0.49225981171537164
Ni 4.367814008252522 8.072102996377913 11.493550323853732 0.61084885970589 -0.7806738230532491 0.2088252558699565
P 3.084619932711735 1.8912407885128697 9.770425927806166 1.5391641680309236 0.3792112339271082 0.8773784122658503
P 3.1603373069688026 6.175474428622712 11.929748281227354 -0.480901706390075 0.46402884189413635 0.772076054081909
P 4.6026523238633885 6.037699887237663 8.203760221573138 -0.1647676034291098 0.3959239186960988 -0.4719108157453744
P 5.442764367620406 4.858734680942717 2.4808322638833737 -1.0572713013721728 -0.022807227702502656 0.19915482265972798
P 0.49531185235246816 3.8694863022688977 9.407336133464137 -0.3289384538144851 -0.09645544931627259 0.18095295493972063
P 1.6756830922286154 6.27291972089505 2.513790770443667 0.8276933863358972 0.3683066711994625 -0.41458524255102797
P -0.050664666046141914 0.4728832438761488 11.476961733084643 0.7938563831817941 0.3328300755594074 0.29829424656606696
P 7.060531159323521 0.6742949954208679 8.094383650294727 -1.853575374763511 0.05055945811510647 -0.4705342471128219
Ni 0.2241316164809434 8.863464478044136 5.850527133614556 1.6468496817350606 1.5664505145507022 -0.07107377601837436
Ni 2.4486293491615556 0.9969066555588594 5.6236430040077385 0.12142008968141024 -0.4403386973660481 0.9589209490260323
Ni 6.263130526140418 2.4663373697110456 2.411918938299867 0.7473762373423838 -0.4223756851297242 1.25924405309667
Ni 5.734551230663157 4.249645772331359 4.56819007788071 1.0794372959462506 -0.26276597175247 -0.32595777391960634
Ni 0.8831621679136962 7.621688373846376 8.025538253534137 0.5553834796487338 -0.731106810758399 0.3726397513571776
Ni 1.350304030455617 6.5521816256300704 0.21173879369176277 0.26702474702882395 0.01700656186032555 -0.20305955703077289
Ni 7.391130504611109 5.708375370544547 0.15651824385107 0.03994877247879571 2.3593000537345366 0.7743483950558535
Ni 5.5372784846572785 4.146840616771314 0.43838098502517725 -0.31523678795767646 -2.295587088956608 0.046924175355364355
Ni 5.381674953586037 3.0108194540054787 9.684992870808307 0.3048693286804233 -0.6403877497052713 0.35009143374301643
Ni 7.6482085307386765 2.784858411964877 9.129475609651214 -1.1000706559258862 -1.332222502336925 0.9587039479192198
Ni 2.014489728175505 1.3216343450573098 0.29190317952034983 -1.0950762880350884 -0.7507101868116232 1.0477427930564471
Ni 8.804412928697282 6.191088752575442 11.773590153190927 -0.537516369560326 -0.14505315571931793 0.3918492344060929
Ni 7.333791133814494 0.9860752651649516 13.258975765942248 1.5519376656465078 2.63291762348953 -2.0440933476838477
Ni 5.941464286332343 3.3403859089719985 7.398902306378284 1.1078662407109048 1.2778097319139994 -0.23328621712579825
Ni 8.6448360267513 3.8034650695843832 3.7282213360240934 -0.19092317877855505 -4.296495930833181 -1.3057753638889897
Ni 6.067849118231014 7.893143116605032 9.690766820756263 0.42240628125734353 -2.137630337801744 0.2191027265365646
Ni 9.02021256325494 5.2033664460877045 2.0628569111561346 -0.19578050687085635 2.2263678496484687 -1.1442074983441004
Ni 6.174944025484866 8.376656756001799 0.19303510409403557 -0.3677135177001538 -0.45036085748874055 -1.0426990599849526
Ni 4.942463934176722 6.061930935850838 13.342979526063385 -0.6507310406128083 2.6501974936159005 -2.1701303673119785
Ni 1.96746064995316 2.1654312948246255 3.709848915754565 -1.5264824587981969 -0.5129651625835231 -0.01882561734693532
Ni 4.557763468828843 1.4068989757956056 7.5919141471768 -0.4056195487173079 0.7627781737197509 0.2613858035754918
Ni 8.886690552290867 0.7449251522137181 3.5965780688061804 0.1259575725404476 0.32235874371443834 -0.6067849740491614
Ni 1.7946608908338595 5.391268736658304 8.636934881061038 0.6181345947340258 0.5429144006474457 -0.9487357809629146
Ni 1.4821790000969057 2.08354449459577 8.338836220677917 -0.4306572084122261 0.9490908503094879 -0.5074519460747776
P 7.738814414128263 7.319926209684836 2.265538838636222 0.39233568712420813 0.25423813678711693 -2.4694114032713474
P 1.7703088730839827 0.14384440045201305 7.508060202678811 0.05065253204954502 -0.42365249495961876 -0.25648785205324215
P 3.7853196990791256 2.0506129734582794 13.338880533392837 1.3271265758712563 1.4895799293448928 -0.08442731450714491
P 3.989422548649548 8.02030959523316 0.15818389581027056 -0.7709424546980981 0.5361313162873411 0.27539137382596446
P 0.06766455188001644 4.786916235014728 13.346439243373053 -0.03463893023010809 -0.6561157019634895 0.17573284419136187
P 0.7359920467342066 2.8123556272689987 5.397318124025211 -1.7683885563825223 -0.33466172945150746 -0.6277358652692157
P 6.383867029886941 2.726020884936803 12.243849297332469 1.0345190952773213 1.2918919210386783 -0.2674412657409523
P 4.516708404895922 2.9984340754708647 5.901081066374026 -1.8527569926272738 -0.3692710919952608 -0.7456566835481159
Ni 2.2876380388479842 7.9355660623145035 4.218842377467998 1.0346203967418761 0.9211732979636136 0.9099026101458005
Ni 7.2337589630803825 9.288187117003869 5.877220369425522 0.5525722354521838 0.11723047708009489 -0.38757786072424866
Ni 8.684262659997852 3.289290406692834 11.185945350389499 -0.5276474471860462 0.5306240133158668 0.2538768967929563
Ni 0.8072140217650743 5.39527002348767 4.418187417838759 1.4300123541939052 0.36160226259609335 0.9485432053361341
Ni 6.569424380269169 5.1795169155210505 9.210333241686286 0.1512204608722944 -0.06857954884161092 -0.8002131786377573
Ni 8.83003977504163 8.403539820304204 13.518123294839235 -0.38732692105570715 -0.31854914016036107 -1.0494710886014635
Ni 3.376174162799291 5.306236738875205 1.3072743779989953 0.8652201796367615 1.149611185858175 1.5417512120318093
Ni 7.044470180096816 0.21320903396859905 11.053471118255628 0.723017091771729 0.2756343430747059 -0.6489004151619728
Ni 1.4734971382090054 6.976187755087801 10.615665201895693 -0.0905380553905731 -0.23316203284310813 0.4640018453109429
Ni 3.211795716658072 7.5125835178596345 9.255440771698714 1.3870577050092499 0.23026902756602924 -1.010622491165382
Ni 6.4709089764029315 4.875279536716229 11.72880923984759 0.04978221362944975 -0.31383322274193054 -1.0195832999030956
Ni 1.091755764051214 8.78274084259126 1.5356278173508286 0.16068880537404584 -0.24625074770626623 0.9780257881762835
Ni 7.270487054046664 6.734277397638987 4.150990788692003 -1.0674063329236454 -0.7732045112593974 1.9848291627058914
Ni 8.018020486954036 4.6892755310600265 5.512359773028545 -1.0142562312632273 1.9288968703146456 1.628843474965627
Ni 0.18738398434642378 2.540063405871639 13.196763200000195 -0.6364287650575233 -0.17785940361606142 1.5751971503950808
Ni 2.1486351954595024 3.7837750162566266 6.501487182565663 0.7121089294996574 1.0430587573172165 -0.038094492878876327
Ni 1.7077119974999473 3.9240712988759965 2.1869144829710296 -0.15859695584202363 0.5471310098319544 -0.25128471058574786
Ni 5.068281141664716 0.5092298167959112 5.638488708676502 -0.6525904624190503 -1.0173703514121768 -0.9464048188368926
Ni 4.4052120821297684 0.45711352110934866 1.7342786809832864 1.0106379177843496 -0.8180394081859008 -1.620527498900764
Ni 3.8175067947599906 6.319241594933601 3.76917497198855 0.860916410055085 -0.5040642605494674 -0.8101949724408177
Ni 5.443378518622122 8.314134322963426 7.384969453425708 1.2911581281964473 0.7292705288806085 1.496574615495171
Ni 4.17474726607658 1.56676434260603 3.942044520994409 1.04809657685144 0.301665477031145 -0.8857692074327068
Ni 0.22475135067358454 7.6435372609983485 3.6790017858956268 -2.5123974199145698 -0.40932193726955957 -0.9678979557136621
Ni 3.3953803395802407 3.593118351496511 8.458699885576547 1.14798573443961 0.6345503170878878 0.27205870990830566
P 8.651824320725376 7.033527125884414 6.014298873008626 -0.9983750412565967 -2.0232972368741025 -0.1598745370028666
P 6.750673368321174 7.398137409221601 11.964341732196761 0.6447097741193929 -1.0507062465601453 -1.1791230792743628
P 7.030447065557625 0.536835904323064 1.5253994115767882 -0.20113997141055678 0.2469878829826069 3.2370793009832313
P 0.6566241961442093 2.0866059442861444 2.0544132654143548 -1.7631321930795896 -0.8445924760840808 -1.7925723527175774
P 1.9662137373133113 6.235661226790921 6.17989538530325 -0.1039594710028016 -0.36326088124543887 0.5499579377577882
P 2.647037343988789 0.2916165757195488 2.8183994314449805 -0.12722538350927767 -0.4211898923517391 0.9376149884594046
P 7.192908616148032 1.7779206233779832 4.515988173266636 -0.654017424673564 0.35215165870615484 0.06909891168019068
P 5.308805006700564 7.48436979305351 5.12949524696307 -0.511513517738661 0.47457756394426004 0.0050010527590171935
