# total energy = -340867.68606632063 ev
CRYSTAL
PRIMVEC
9.31238542353153 0.00000000000000 0.00000000000000

0.00000000000000 9.31238542353153 0.00000000000000

0.00000000000000 0.00000000000000 13.62961737768526

PRIMCOORD
 96 1
Ni 3.6413475519299627 1.4930919958241191 7.485140774360374 -0.2114629506031197 -0.312466681411707 -0.43318048905471207
Ni 0.8218021777981314 3.8556348516661934 1.6372439963889338 -0.7093331665267333 0.20150146851503362 0.8209902632841086
Ni 0.610998641428609 2.981984105846619 7.033727549769355 0.21351391959487745 1.1859742978682413 0.6917043977013765
Ni 0.3220288047450641 1.3601297575192255 1.5144276019440475 1.089119299120705 -0.1504126202590184 -1.5800375092065173
Ni 3.930264308016902 3.179648797698396 9.1213082590006 0.05757625575257182 0.9969745613646442 -0.01082897229470393
Ni 1.8483781224390714 6.906875167505353 9.00080878603563 0.24718714347760656 0.922883852896817 0.03202180432223517
Ni 4.894291753846911 5.7151226498510095 1.8325703482744435 -0.41413144284306097 -0.23908508319576244 -0.7031740889038729
Ni 7.409101422864732 8.113499564594697 11.961597902781401 -0.9106716271013412 -0.29153944434073664 0.8556320217276943
Ni 5.544007568687512 2.573347323450134 4.668566051161394 1.0015112728927333 0.10117573761007738 -0.9114565848964818
Ni 6.504850178721171 6.498014887860001 10.291451386405155 0.3727415670423645 0.5788280838249193 -0.18459543678831433
Ni 7.323539226090298 7.163608319755501 2.3868183820231357 0.29935919749547146 -1.4928169482249518 -1.3616873445652613
Ni 5.921019490369373 2.110382084808323 9.461966490677232 0.44809340161080247 -0.046105278998494786 0.3312557890937521
Ni 1.4474985570553307 3.641459300554396 4.724502756360022 -0.061473533924448966 0.8045277468527111 0.44624632109973467
Ni 1.1735095547156071 0.6494783490136804 7.820415516054932 0.4273245444945673 0.7104559672772668 0.46260779317689366
Ni 8.924003025224083 0.6379812780365673 12.687538385586494 0.8855529776568426 0.26427958018351905 -0.9874846195963382
Ni 2.2308284771766864 1.976311672644466 10.409837879129796 -0.9040762332720108 -0.6098903524473626 -0.9895327603746183
Ni 8.435186604796701 2.0025632870009233 5.325214005671008 1.2380226818240485 0.08623325736763214 -1.0904827551271348
Ni 9.1386907575312 6.921262802901142 10.91448814840084 -0.24205573578831216 -0.03387634103247069 -0.48667126188400056
Ni 6.616794363247234 1.7148105790851644 11.79094099097808 0.04605462826621746 0.28033766208764627 1.1269728796333687
Ni 3.409767152562678 5.880585113095256 12.456079978467551 0.08584887744501989 -0.16323008373866082 0.5301203342065708
Ni 3.927908274518433 4.759029356355765 4.930118362840227 -1.008382803201586 -3.32623230310082 2.6003682287985987
Ni 5.445361470469012 0.412406435994036 3.2688726244000943 -0.5649096739716142 0.34588819429494627 0.20413170704902908
Ni 0.2092306744806236 8.254358705692876 1.1268843036478848 0.8255110339725976 -0.7243455807751653 -1.1191837226062533
Ni 3.8604586672875643 5.658736156439038 10.020181600593308 -0.9243707218549887 0.5149801361310228 0.2585431919203741
P 6.259310513685093 7.39795449757751 8.19858310476114 1.113011018136638 -1.7094352177767658 -0.18053669333790842
P 1.5722938333912233 5.654443146783724 10.807237406100976 0.7536764685287987 -0.12777225715168317 1.4244891103828303
P 5.664956829865825 4.669611832038383 9.704750620882493 1.0762840950292496 -2.6901123275329666 -0.6023981578353754
P 7.18014711617163 0.2111015327013445 10.43408546815475 1.501975474795768 0.5721067059406857 -1.8217816272916818
P 8.797764329155928 5.014030404927196 5.865887375266665 -0.7563493873752715 -1.6243160194089186 -1.2648248896185572
P 2.9964089907838853 6.502708330086199 6.182789711865851 -0.11834093653545427 1.0897165663850716 -1.0902618973655804
P 6.7180106798276995 1.5286932450914958 6.349711425897489 -1.5247629050039289 0.12298100641062691 1.4904368780285493
P 8.43173170982464 5.987016365482607 0.7471755151630338 -1.2304677522949259 -0.011050858497522903 0.3526183139299282
Ni 2.5270368310078988 1.6815467385455174 2.970861392761358 -0.24967802822026033 0.3383569189149076 0.08106611134439587
Ni 1.8709885941160769 4.398891476963334 9.158026063273773 0.07599049659370138 -1.8314176077195492 -0.846381963884336
Ni 1.1689278611138418 6.234185697958339 4.684485573950456 1.8935917672554488 -0.23623295845894798 1.3630263750916591
Ni 0.7315744759536075 9.323373984177975 10.069370551353238 -0.8026991782844047 -0.7581003086281073 0.6681919164017331
Ni 6.679578465408012 5.0950015957144945 7.782770198198963 -0.35790347358826746 -0.958164273365666 2.642910215925868
Ni 5.407692871649619 3.250618486598914 6.873974509995114 -0.5833408840936083 -1.1003812451877695 1.5059079770809547
Ni 5.727517434777736 0.07591456553169146 8.186084021118276 1.7308964729743352 2.2621411505933366 -0.5179392187593467
Ni 0.24973116969086395 6.285552815656181 2.578328518384248 0.43489284376012843 -1.1697704344148694 -1.0935770777817424
Ni 9.091421089395913 5.367919673736733 9.085203209684735 -0.8958042230712057 0.5515283675687017 0.13832406452560048
Ni 8.442031208043241 4.3524226739698175 3.707882682917552 -0.5434142231019996 -0.28473630537597416 0.2971475345561334
Ni 5.174492117228051 8.733695117814166 10.788482261966921 1.7018782313651142 -0.6581422454752149 0.43957482261683
Ni 8.567487663740366 3.9996322666338755 13.435504522267395 1.0119908322678184 -1.0281250188255198 0.04027427413901451
Ni 6.872298280628615 3.9649156939765953 1.459595345650236 -0.5956176445784322 -0.06760612918474809 2.101133271316975
Ni 6.4898106763495225 5.294128332069274 13.426467783504888 -1.9218425345710257 4.181166784540857 0.9273177202984546
Ni 3.036983053838544 7.974316652863016 11.007278618699035 -1.5868352488546413 -0.14753658426280397 0.3972318388742449
Ni 8.26016963416341 6.810203294985175 4.716269676454899 -1.2538267387358408 0.6979802034077592 -0.3877316126932935
Ni 7.173339762466568 8.787958387361906 6.028639003129866 1.1038782025974343 -0.22463702609123248 -0.033901794953767425
Ni 2.766877316197878 7.938734028366378 0.25289458700086337 0.1618900247709986 -0.7338748604218394 -0.3217630191119685
Ni 8.411076839075216 9.102437641287962 3.002536540356978 -0.6556413334302322 0.5337625589448485 1.2869919126338996
Ni 7.679356158671309 1.9920496039188231 2.5467623256974505 -1.4700531721658747 0.2591661702163537 0.6145749024072255
Ni 8.264509205745568 1.1992303631060062 8.029521404571605 -1.8788097238502677 -0.11643883441673496 -0.05780122727918433
Ni 8.089827480985575 6.651529560675253 7.1737169140740304 0.8755146195842342 1.473056734878889 -0.13653251984281647
Ni 2.4957751533226817 5.109649977900627 3.0593039103305597 0.5113366258411646 -0.21753126828438665 0.42083842254959136
Ni 4.211069976447057 3.3863185662024233 2.5185895662392777 1.3811531665993568 -0.6309271185130038 1.2642757019833066
P 4.977982161162086 4.106324265811573 12.192114827739493 -1.2702278058016834 0.10063143507083315 -0.12222870162563466
P 0.14910525834282112 7.936797052209534 8.101471687651525 1.3137617245285762 1.155477671941281 0.5389363898363041
P 6.391499824004322 7.931982548973533 4.105486151128323 -1.1661922301453078 0.045209506657102785 0.9727396000766796
P 0.41319519503482777 2.4549403434776784 9.170211319529688 1.2286579527796968 -0.25928829761651473 -0.4644412468412066
P 0.8999172599926221 8.09827381451566 3.5063552136145315 0.6252766050954457 0.5206918418038194 0.2750980109552617
P 3.8331640657697297 0.9195170374796867 1.3680592536613054 0.44395881061713866 -0.8530871438186534 -0.4988510917796441
P 2.348313530997567 5.802966381040956 1.1646246078346227 0.693623211990644 0.5062052181518701 -1.7137667552725842
P 5.094424227821589 7.257188480333024 12.559447456068357 0.713623566371971 0.37567211042559817 0.3422331140408622
Ni 4.271153486850697 5.338483223583926 7.436468660988448 -0.42995709702140783 0.21288811308542047 1.1553910257647457
Ni 4.574830373748202 6.467712385867837 3.999951681452047 1.0608795875487214 3.6287135911650408 -1.0723873310780048
Ni 8.90104799528841 2.496687767088887 11.106175220083973 0.9301911851915077 -0.3954719187603447 2.021664843477002
Ni 2.036292746809042 0.6807549265154885 12.79037319474417 0.9599686735642564 0.548663644426397 0.03059869872246343
Ni 6.497735516298918 4.804287549251253 5.572428037596512 2.2641646087812686 -3.295567012806479 -3.2152910014635467
Ni 4.124287857189227 1.798351988234429 11.753773398491562 0.19031382732933033 0.8297307284809 -1.4572894447423033
Ni 4.964088082190878 2.6671975432033705 0.11407392706005408 1.233003374232586 -0.8283184215144058 1.1599169386595571
Ni 4.934539883413639 0.0850565342488727 13.114622072161309 -0.3516508078103363 -0.2957444835610197 1.151246407468753
Ni 5.522933640596464 8.14329919777691 1.484715505184306 -1.5621732273315871 -0.04570058736090839 -0.6189172385363212
Ni 7.81686284103649 3.4422580651166617 9.363492671588068 -1.0877841252490494 0.8806897360272703 -0.9015406113343506
Ni 3.230531671357028 8.183845323675461 2.661946289093542 0.39758125179386367 -0.6335894958365154 -2.2335180875400047
Ni 4.234965557305045 7.7480629379270525 8.577295468011462 -1.7118528260793229 -1.0056414930110227 0.8322329260774636
Ni 7.143316632035487 4.215875167297689 11.757780517916034 -0.3563438424106315 -1.199521954645689 -4.7649624967836965
Ni 1.7735624183809742 1.4713848255279496 5.62251656478313 -0.9275761161661639 -0.008423448177004848 0.33145684936096464
Ni 4.840708288431141 9.11767270375237 5.9185656768245245 -0.44181528191157454 0.36285104740152996 -0.7786657914842848
Ni 2.4201027098105956 3.721638938585292 12.079193773988177 -0.3062371555622274 0.02607818514429057 -1.3040686656105283
Ni 5.853309136348159 6.64939702442565 6.128107384976488 -1.621765485072923 4.276367535514422 0.3304392067297277
Ni 0.3603455455861703 8.502161280373729 5.940523350287132 0.36796137204490176 0.24446048857506286 -0.24797210127274713
Ni 7.43016603857041 9.291041382175273 0.5631972360887261 -1.560387596186074 0.3304852294763147 1.6455654157059985
Ni 2.7178662319985043 8.603331035027347 6.913024135564797 -0.051787159874620486 -1.4742222159418998 -0.25998480946290714
Ni 0.8153459010214972 5.982537108119907 13.12586677749491 1.4476881742071133 0.5468373898509356 -0.579577303286118
Ni 1.0864853134381713 5.53885781957821 7.054022031204981 1.4737406483197908 0.20549362039356223 0.4918777457856045
Ni 2.630758179252744 8.951074129493051 4.562527781436631 -0.18171965790241607 -0.7746579558764723 1.3703738165956658
Ni 2.88217395945694 3.4542896670139807 0.7319870146254738 -0.8470825894957863 0.10807349317117518 -0.6534936909596101
P 5.923161339004344 4.412245437583113 3.4361491403143076 0.12728580443356788 0.5105940912481852 -0.07716471940746066
P 2.9538700144162737 3.669722390150653 6.999667500280621 -0.6722925688336681 -0.9778854059436772 0.06256008212040838
P 0.9431211406756114 8.199220071920411 12.190070759150903 0.34799906999036195 0.42120043387470035 0.8520553601200292
P 7.1932496423864345 2.1702141608069883 0.26620571064794385 0.24654231080475605 -0.47713992535479766 0.35789473183751913
P 0.877819900749473 2.5148189814031903 13.16588302866594 0.37455342344012266 0.42842240554443634 0.14592758790447125
P 0.34277121191695936 2.3839799669625297 3.3894400777782603 -0.1824565360684406 0.01106782777838739 0.28249944562565543
P 3.7392393469335374 1.5477370731720048 4.9084205049294285 0.4031356059531896 -0.7079979926550775 -0.3942830406585661
P 4.114817161268504 0.7387375627797823 9.605282239035873 -2.303731572440613 1.5960577958941737 -0.5954813761108841
