# total energy = -381167.5060329473 ev
CRYSTAL
PRIMVEC
9.27505577635680 0.00000000000000 0.00000000000000

0.00000000000000 9.27505577635680 0.00000000000000

0.00000000000000 0.00000000000000 13.57498166570364

PRIMCOORD
 96 1
Ni 2.0639688524264033 0.8252573489904311 4.716301785716668 0.6696700436091564 0.8634126941143775 0.12125039687276538
Ni 1.263846904170598 9.119605689414579 7.164332141323657 -0.4204337309120049 0.23518394836914333 0.6130391824889893
Ni 2.856874807408578 2.377020529767765 2.896316981439573 0.5859978621004811 -0.7597571275052399 -0.2216856567723924
Ni 7.772978913820905 2.182290736991577 12.043791430480473 -0.7092676033961204 -0.2490151978252808 0.29307182182486297
Ni 6.916195650772543 5.535278994545691 8.344622851915648 0.5296953308540104 -0.34920157493889536 -0.21462386482960458
Ni 8.933102870974778 3.6967496440587033 13.430665454933099 0.813471072088928 0.7046712422746896 0.12992761293178912
Ni 5.989450643170201 7.314726240722877 1.7016100518948774 0.2565498156394291 0.886633355205215 -0.24579206290229286
Ni 5.370470531204891 2.872187924239894 5.052648692757323 -0.4722563720102512 1.2210816830943358 -0.6931827820191159
Ni 0.1226607555849741 6.921120705307629 1.5193116161683642 0.9428728944242342 0.755302434167996 0.11899451095905313
Ni 6.707145172116553 3.8280287813272986 0.3556891080340097 -0.20590885355410987 1.352359382296116 -1.115122665163002
Ni 3.8751553389408167 3.2458428150130074 7.122846672539215 -2.0047642110669215 0.08952401230376195 -1.3896979708455743
Ni 6.700986535183788 6.68219527249436 5.955181167659391 -1.6314670286314032 -0.6885766507056721 1.6688639812226227
Ni 5.172911846464105 6.623725321855584 10.165081611535008 2.684936439758982 -0.07054104344335593 -0.08066424792028688
Ni 9.266837922352384 4.233265236492072 9.442756974822336 -0.5413288013278806 2.4386029025309224 -0.11769250431817795
Ni 7.881487789538391 7.146847733971316 10.510416047473027 -2.634307561858521 -0.8693629981605414 -0.18134993326782314
Ni 4.3903754036669165 3.8810820994830406 0.4861650254857719 -2.0696321153849 -0.763324276031208 -0.7135592887929388
Ni 8.005838460257626 -0.08379641751920686 11.353489850807053 -1.5251570551185538 2.665740326446506 0.20700928570714028
Ni 4.574995385815524 5.946989438534365 4.941293302469558 -0.275176686711997 1.1746244200730611 0.2835700529820149
Ni 7.026179260333868 1.4157908653641922 3.9642339006365437 -1.0337691044851745 -0.08790344598120345 -0.01944113944374716
Ni 6.652144092280268 8.304059323659997 13.204506208677445 1.3147824524836067 -0.9415418343176365 -0.47671775021571455
Ni 3.519215804405023 9.103049715129963 2.224233466018165 0.09527094208986818 0.5649086455303497 0.32112204309385983
Ni 3.431557253724968 0.7133807005767299 6.816677086469105 -1.075304761835116 1.750561041282798 -0.5338918854338611
Ni 4.491547710387691 0.7893146534454785 4.559103505513418 -0.04447905624898146 0.3596317691332839 -2.1834224564351947
Ni 3.423942433059607 7.678670148260139 7.51478362544813 -0.5927768326955275 -0.008679015831236666 1.0785669775261553
P 0.7950605504030801 2.4412131897250884 8.178641094038712 0.04534397535243804 -0.5710705513666875 -0.9671831890348246
Ni 8.01074496468147 3.5496936371777097 4.984651404984007 0.2099884229401222 -0.9345777442949775 0.3934546312199998
P 3.0836128171350223 3.9417038630260346 9.671808183420817 0.4597983487525565 -1.2344020543523258 1.1660860435847467
Ni 3.6184125242783893 7.407513897161694 11.975834952951892 -0.5667107317360949 1.7766605665833273 -0.8100749019231854
P 7.683585927739604 5.944921101130741 1.4315630974487794 -2.3564502429905674 -2.243389581017446 -0.23942446881305218
P 4.329679439678949 8.305107404945241 5.624454016819882 0.6411336267323604 -1.586168818915236 0.31811925171179406
P 8.21968414267 0.3870248834516973 13.861549293902813 -0.3720386274380689 0.32370754443284894 -1.4936127046533696
Ni 1.5876112707549463 8.096734005349632 9.654974884973115 0.011503886874541479 -1.0366801074843823 0.015545918154399036
Ni 3.360992630555583 2.5683371020751924 11.82148782484673 -1.3479517401467236 -0.9149044342357662 0.16135677797534792
Ni 8.155825384715056 8.938705004570247 2.4393155133449023 -0.4270170405564775 -0.2563652104324488 -0.18500501352190718
Ni 5.89465957471711 7.539395913045696 3.9898367641745 -0.29870562307187265 1.887292564510298 -0.6471839466914983
Ni -0.11446531643769904 1.722071752101762 3.3478619343120366 1.2956899546285296 0.7447925357756076 0.8927235272633529
Ni 1.117755503074254 4.0148469516582335 3.6283071536155473 -0.03424683699801198 -1.424333815751889 0.2715126075968486
Ni 5.147368343282128 0.10759528273875536 7.916453821726386 2.391110256266598 -0.8755737549569437 1.5132662172182392
Ni -0.14153271125831107 0.37494226849339574 5.1923486530248 2.497908482269776 1.532935413512392 0.4904955207260972
Ni 4.059153892362775 8.68838980345361 9.809051181454123 -0.20652463276123786 0.015827453950559837 0.5275682572086786
Ni 3.4335235655167544 4.732467280159613 3.6268546799052004 -0.06493012501448173 -1.9258388002146123 -0.8521949710216872
Ni 0.9551730530826468 2.43662203719238 1.5697836863446053 0.02217370788356181 0.7591863426034344 -1.1623808268190174
Ni 3.0788268884342593 6.077888298522474 9.793955100924354 -1.3880781758539642 0.8978510782979053 -0.3792775683886694
Ni 4.985388771905926 4.370443309136027 8.83877926532502 1.029970813785007 -0.6596617674435349 2.117092879970025
Ni 1.524587267805949 3.9759659184923475 11.222627163535869 -0.0006690010425665898 1.0605348026147927 0.7752919899160454
Ni 1.007122639619414 0.13077179172609227 0.758604944282251 -0.07579869229786945 -0.44339419636292027 -0.560324625704093
Ni 3.642907946175123 6.773248493531933 2.5590880166092997 1.303935996687406 -0.16841856991813575 -0.03144510588315875
Ni 0.33698317585629994 7.91033321252167 11.871240150706733 3.112330404038904 0.7094429526317201 0.8017987779573222
Ni 8.520372170867725 6.068622517956462 12.654462020114362 -2.2123897902018217 -0.848451701929171 1.6670320702202062
Ni 4.326507370656351 2.162423567850039 9.301862387390795 0.2980368791396222 -1.111933468801743 0.490033236377698
Ni 1.6859546855111225 6.054756309802121 13.012733303633434 0.32025918087293226 -0.09554116503211933 -0.08948416020476202
Ni 1.9202054902910894 4.789045119451575 8.11270750614121 -0.4347691736980706 -0.3967158184697749 -0.4973038018971823
Ni 5.862809033712423 0.36498456877801044 2.09238020280659 -0.6346601031928747 0.13623838564116536 0.011913977828766579
Ni 4.614757549265466 9.04731590589957 -0.06476122086692915 -2.698250126148753 -2.007614278921207 1.449857156833974
Ni 5.934134211442782 2.3703517647758114 7.253166769056534 1.2504220839296658 -0.44338082662648154 1.0983066220469277
Ni 5.589296918486083 1.6912785674379403 0.10308667820107949 0.5791245320194155 1.6647005938735524 0.605782500926576
P 2.740148232410325 0.16626650208452018 11.634750347499706 0.4329588599622092 -0.29692899078742413 1.4550548989848295
Ni 9.163671478672958 6.711819800149856 8.740373707696177 0.7012614452621923 -0.9503517192997826 -0.6646088270361651
P 6.074280301885658 5.742493012188597 12.056280292875002 1.2607949425235576 -0.40816879750172286 -0.8864577488592992
Ni 3.0269978776205733 1.4673137993423644 0.5536002448884179 0.2821921987978817 1.2165567986407886 -0.6650489998973772
P 0.46868154563899334 5.971568335931694 10.89240179320549 0.8083746314026271 -0.22398370877794974 -0.9011004384731384
P 6.253622777385557 4.5038371590863555 6.2593696018487215 0.523444207737976 0.02974920623797457 0.3180228353432459
P 3.0417081158364834 3.0087074679347126 4.938469975538333 -0.3054575970837255 -0.6052361415048028 1.14929339750744
Ni 0.7640948497046958 2.667830623728451 5.814924704054617 0.506282865467341 -0.5540159098772459 0.9313348118776477
Ni 2.189256303763424 5.000683338626 1.5556791092607876 -0.0795761570624307 -0.23173327081638156 0.21695894072068445
Ni 8.71979514178846 9.345175042132697 8.924925981938747 0.14736894833668815 -0.7109115667574466 0.36009739591579276
Ni 8.190950020354181 1.3170207980494208 6.948965349789335 0.16779610584278845 -0.625720891721716 0.970361072542174
Ni 0.8508370248893332 1.8104259319534395 12.491426019902857 0.8602828902361441 -0.8507176151452124 0.11495942165773103
Ni 9.488567402043145 2.1900354084356413 10.217820505305177 -1.3922934994868925 -1.8774706933238696 0.4950569148445345
Ni 8.407142291838829 4.030605271159389 2.5799114439854285 -0.9801199517011507 0.8782610719811198 -0.9001283043678563
Ni 5.703398652743413 5.060748598831696 2.057696132309493 -1.004993575014379 0.26144365339662073 -0.18333559623928425
Ni 5.428124276948963 0.6023276771022298 11.615433189156528 0.21562170996649965 0.12299283348516883 -1.8281669619927352
Ni 6.71780221102581 5.1123550083104625 3.9744420268537133 -1.2150827851984236 -0.26610866297245783 0.8200368982319037
Ni 8.193176033703374 3.414370575658082 7.563979447970834 -1.2722057554636605 -0.8645617201171562 1.1095981358003473
Ni 6.761654674004891 1.2227584077667633 9.601583954792744 -0.25368714937965336 0.7838748464890499 0.13476925729480663
Ni 4.50415251097749 5.636469851377709 7.158549144143568 -0.24954973017251214 0.12391560240975431 -0.11771872957042306
Ni 5.505867793169492 3.010265677279147 11.684488760776276 0.772069883434322 0.7045069487826834 0.48839055856795244
Ni 8.4906919928785 6.333545931677169 4.581448042011495 2.136479254916437 0.2329982535717342 -1.1727464863240578
Ni 2.202510358246738 7.677853943365435 5.3450670813628 0.17494634373432452 -0.0715867110990509 -0.5558758459041201
Ni 1.2086881483887455 8.805246229230567 2.9747672568984704 0.16237827726132678 -0.6753053875180628 1.094635600953244
Ni 8.737603248581996 5.234424015346777 6.669035823578387 1.3125432787404427 2.327003655594676 -0.770874320464324
Ni 7.620357873566932 2.0892526540509753 1.4982841375685596 0.17908427716209802 -1.121974912198145 0.17383974093370705
Ni 1.8146089820387963 4.788136164000654 5.7742545126593186 0.6942474758382043 1.1915476781909609 -0.497165476547105
Ni 6.411215247452725 0.17232682342769529 5.966693366696963 -0.12438560006763741 -0.528924771236573 -0.6158905358948554
Ni 2.229037017324609 0.949097891650477 9.81066596863785 -0.44162604871890393 1.9590407408878774 -1.3877922691824294
Ni 4.730612269035286 6.198853573939814 0.03622094721360178 0.23711330418137228 1.3598464347017807 2.1547783103359404
Ni 5.211765054463126 2.766313164318952 2.4415415266940945 0.4854672142735703 -0.5884175272855673 0.23819239617816398
Ni 1.468361880627609 6.208443981452582 3.63387311449409 -0.03231439586198951 1.14295897064898 -0.6428675787043315
P 6.781466192812699 7.636923122907168 8.423180718019756 0.15525914971804228 1.4163094027855159 0.5063450861638441
Ni 7.0595972857386124 3.7576311091591035 10.254378137037843 0.36281350929537515 0.34867192768767047 -0.9345057534064616
P 1.8544917212118186 3.63352158988603 13.479644241154256 1.3529975301007473 -0.33036130230394073 -0.539415900575884
Ni 3.9543179386714558 5.161716854328795 11.865361620453744 -0.8320660614822959 -2.773412213303888 -1.3543612432174932
P 1.382827317684908 6.77732024294983 7.1830519860847994 -0.11711811987194669 0.10341414002229288 -0.32692656559077893
P 7.857066568086632 8.38921360932221 4.581407231766759 -2.945168332235689 -2.5541575345704914 -1.382565216455535
P 2.1022933822549916 7.557037068838042 1.304004184990021 1.433639666533847 -0.3416224770400568 -0.44878065748581425
Ni 8.403302418811473 7.904610503203123 6.789961216256553 0.8734695641297473 0.6434926138828401 0.5436921593537346
