# total energy = -381171.0944958265 ev
CRYSTAL
PRIMVEC
9.19889623581077 0.00000000000000 0.00000000000000

0.00000000000000 9.19889623581077 0.00000000000000

0.00000000000000 0.00000000000000 13.46351447978978

PRIMCOORD
 96 1
Ni 3.528466701131785 6.902042384043777 2.741212265529257 -0.8232199239455756 -0.028222485180803007 -0.029975720426483856
Ni 6.380354569262872 0.7040826134600969 11.314213030038852 -0.07761286268847278 1.738274253495645 0.6055647284888152
Ni 8.901026972254282 6.739893436534555 6.687018179810041 -0.5234917731464598 -1.2279881804061819 -2.467727844921337
Ni 7.991338904623119 1.5715670641242456 3.950423760292563 -0.5890356204855405 -2.028621477300493 -2.322443804138136
Ni 2.874094004131953 8.976973061244816 3.6708545793133105 0.3489670903305861 -0.8120690495350789 0.1385858028274194
Ni 6.201712000440661 6.638411211032669 8.13174718029123 -0.3001549539238895 0.27808460438741145 -0.8617936704537157
Ni 8.09317988708608 3.4177671813992165 11.985947724175402 -1.4010031114457484 0.26403609671414524 -0.8023240543331731
Ni 2.901322737587861 0.16662329073657167 5.987588368168186 -0.6306489251509526 -2.481715417449681 -0.012637743368668557
Ni 0.543135961715296 1.8739347900349588 11.870619319755328 -0.9811316807951166 -2.1493275716340148 -0.3328293042284591
Ni 4.77181714035508 8.47571599545228 1.2153554376941174 0.030011458760425734 -0.03371127620951613 0.3173345510269696
Ni 2.301195932881776 5.948346795854146 0.7374838064257739 -0.6334660828847735 -0.2943586589570866 -0.013591108420873367
Ni 6.326265058208567 4.156079808394037 0.3257743178967128 -0.005353036781797232 -1.1252366136685525 -0.9404694271890641
Ni 4.398645508562567 8.634424555693764 10.78684673648689 0.2592723567769148 0.45907715431581586 -0.7164229834939791
Ni 3.4576535963535475 3.7719614898405336 0.6799115931801155 0.5564389174964417 -1.5085171325690279 -1.2855500379810505
Ni 1.2663384814213747 7.314944049551178 2.7274930313819117 -1.3408950904102586 -1.171719330611124 0.533143694413927
Ni 9.211222959033568 7.62574716349536 11.050098914964758 -0.9016030891411698 1.2588475889891997 0.269358023147691
Ni 2.229996474453151 0.07024645275766868 11.77579617538477 -2.588397172479652 0.4087238986742445 -0.9083753748679969
Ni 1.0615066544407281 1.4222505771457639 5.959395590365595 -0.660002181502089 2.650330676759655 -0.6166868065439057
Ni 4.88045610728558 8.59274435593406 6.847839726563287 1.353656503840985 -0.5401381234538891 -0.7698949872701902
Ni 3.4225322097540003 7.914270550267173 12.779918274067171 2.614385111902981 -3.0600580769977492 1.1853371785048747
Ni 0.4445477090327442 3.16407081654094 7.662423163592897 1.1613436438037548 0.6268550053261591 -1.9019213701670663
Ni 1.6490493688198933 3.805969809971106 12.259230379329056 1.0715144415547482 1.6436077777589952 -0.1427831287382186
Ni 3.044834720914087 2.0540031878050287 10.973895256873966 -0.6635479898718185 -1.4042100484188205 -0.527851335666736
Ni 0.3442696190745674 6.117164943280779 8.736514828250188 1.53898573347153 -1.976638913585615 1.6075686247472507
P 3.350339270510092 4.000278099426901 10.590777778252898 0.7686156063371343 2.2762115126434734 0.09683648680477516
Ni 6.326623815169642 0.3307978352413991 8.699705444154302 -0.02796948862973248 -0.7712712987924265 -0.43992140732297136
P 5.87337578988602 6.439181511982647 0.701939270590088 -0.17157408482798192 0.42918345208017694 -0.5702308290742114
Ni 7.101364072058177 8.724362166166202 3.9968459911659555 -1.2083503515705964 -1.3426647807161716 0.41178788231154884
P 1.1332856433449354 5.001752755714502 2.744537666591524 0.5941446595773315 1.6657768576568668 -0.12668545184540764
P 0.8904844514275972 7.387698121477793 13.034728625284068 0.5876081440103945 -0.33961290280919576 0.09394579552054141
P 5.004181264374083 3.062413812006736 4.019317055384231 -0.06977279781876371 0.08838064272793811 -0.4877290137245536
Ni 8.889758324117969 4.978047199594273 13.398796109272082 0.7556960700619888 1.515741675341925 0.7484414453821046
Ni 3.9081327538093893 7.500007448086977 8.588564377392721 -0.03665750332203364 1.996957827648625 1.583919360759427
Ni 3.488966639827842 2.0621166144631746 5.067101716008683 -0.5317416718600777 -0.118762340343589 -1.8865135202524284
Ni 4.967928413512686 0.7944074974725669 3.2375718388583046 -0.30074965008509497 -1.2266013273609842 0.2391730149238784
Ni 4.040771641546128 6.111397235214273 6.879250278339822 0.32634318228348314 -0.44640907192984414 -0.5507845474241417
Ni 2.999171398996813 1.4202544166187598 1.818045974837419 0.3860904775454448 0.529476787085301 0.02065212903271282
Ni 8.851803677415578 3.5232417279551105 3.128570435408155 -0.24445740325126933 0.3394897469677702 -0.6628990434339099
Ni 2.6762809351333527 2.8353942468180993 8.553168863679327 -0.941066694453431 -0.47641564559426336 1.3853335232292916
Ni 4.793186176780106 5.017068918283449 1.886790247806794 -0.28707652347337653 -0.33549373843449964 1.163407468311319
Ni 4.56096003620767 4.090059328659897 8.234083983272187 0.31246385319822956 0.8364248526716239 -0.8864034985825959
Ni 0.265859145728345 5.344181675611864 11.007783071461203 -1.8316574916444968 -1.4167086951064634 -0.056705166001528154
Ni 0.578189276481203 0.9880350685919644 1.1552608870452123 -0.4642491854350585 0.013319857037357705 -0.06901920748219081
Ni 8.232212007847094 1.4205487813047697 7.594526108985443 -1.135163642974277 -0.23147153251456262 0.0027932464744209956
Ni 5.8832738024530995 1.2790513562984238 5.318142359465364 0.5120339090185053 0.6095100862898083 1.210589268203444
Ni 8.245136457342213 9.027456604895502 12.919198765032007 2.0132881893775325 2.1631495651187715 -1.2746642443064822
Ni 4.319516601404552 1.0456293591890735 12.937118215292855 0.3002068902077475 -0.4848228958213521 0.5108555724396879
Ni 2.156911242254775 6.470632538903509 11.275208789252906 1.30456000342465 0.5020338603829999 1.1754150342951564
Ni 1.1499540436902418 1.358980567446528 3.615465264192344 -0.12141057659971348 0.355577139447936 -0.521528992993134
Ni 0.6129721436918384 3.179791730553152 9.823478508692903 0.06978282512109273 -0.1701620349718037 1.6055053144603189
Ni 4.870475304650559 6.231488828209843 10.372008703279329 -0.23420538650595793 0.32762436298875186 -0.13230279803218506
Ni 6.686861798570598 4.366495365512432 3.6209312484556886 -1.2248097826782003 -0.679828729309713 2.593608798587578
Ni 6.0564062323090635 4.2278128028160555 9.94427289737632 1.350123808097378 0.9497554804766805 1.2684321473538411
Ni 6.7532410352658125 7.824958464752506 10.449464331175307 -0.23573544999723917 -0.5299604115899389 -0.46580778817143004
Ni 0.6852515525622624 8.917198632191948 7.217938007055929 -0.6595090439157545 0.5875117276418463 0.8820498495995907
Ni 1.0045102921120765 4.234877555280291 4.880914212328182 -1.4041465421707366 1.0588432738449831 2.138689375193878
P 3.203690463498574 0.5308618741983302 9.218226078891673 0.6546545440369306 0.4088216005943733 -0.18285685683065284
Ni 4.088707090883539 1.711095925292901 7.1578912906685 1.5634983739009138 -0.23829086942924124 1.7857211341236987
P 1.2132976445609802 5.10116522951788 7.085026831984632 1.0552648124651052 0.1665198102335261 -0.8620937181926379
Ni 8.438074111228774 7.9970330215181225 8.686740519514858 -1.8625061015942375 2.3095484362327063 0.68870829118753
P 7.761237709127817 5.165336731068022 5.446260909492563 1.263689490462533 -1.7102330310877127 0.6136909571403752
P 2.2401520561204893 1.8598880751744276 13.209309881328986 0.742615839839263 -0.21508409229547476 0.7470116549141136
P 7.55171444496389 6.001424428300291 9.612142142041083 0.37592022188066226 -1.289525991909663 1.280724591567949
Ni 7.406988207307874 5.4395834305683595 1.928998464222027 1.1284533208336371 0.49904135341357925 -2.1954796447100446
Ni 8.450621405969944 7.468905979230752 1.052006954089405 -0.07444860602787824 -1.1545564456785924 0.4126054931168378
Ni 6.401852390238027 7.99050180504728 12.748238194625008 -2.6675254433713866 -0.2536958911304018 0.7894338286340662
Ni 2.0831820873057523 6.419311895676984 4.7792921636004415 0.3633403283331227 -0.253458321198299 -0.28253672662149404
Ni 8.505189259639014 6.371928380125841 3.7812689332563068 0.059712071148652 0.1124227712788064 0.47031698889569323
Ni 1.2640663540012365 3.377807175273383 1.2335646531927562 0.6268136105652624 0.3720977628107785 0.5707033978352558
Ni 6.809924635115578 5.821797577559236 12.077244011651704 1.2718856531200806 -0.6763991348028737 -0.9910697658444352
Ni 7.472042802916044 2.322031433313409 9.905403880368011 0.9047665744708159 -0.5880236342812583 -0.578189678909972
Ni 4.978047199594273 3.042856958179958 11.886466258648737 1.500263634310984 0.14550566987570424 -0.02219042005411017
Ni 4.580811254720458 5.26038892795988 12.455690290661655 -1.6237876577092745 0.7810270926276098 0.8638289557161897
Ni 6.4112168668117135 6.753020261751305 5.297933303881146 1.2479859636843476 0.6376428399702825 0.8205351780245611
Ni 5.817142935961706 4.594177251244591 6.310497229824522 0.522090779033875 -1.0527687855161287 -0.2988336640093047
Ni 1.6723409746004203 8.145512408920764 9.429657194176801 0.36340871967721283 0.8089091637498586 -0.359973982964051
Ni 7.537446956588851 4.253459326084661 7.939070775063501 0.27288969045003325 0.24574398327317676 0.2929242405034052
Ni 4.468731900522218 5.493498162590345 4.684319997107592 -1.4066014314691324 -1.5474996844798121 -2.1087460506672264
Ni 2.8766880929274143 3.90800396925926 6.360756320402124 0.2373195066549074 0.563849608138216 0.28683381133495117
Ni 2.1803592292747447 8.485853179326744 1.1310263943798102 0.5825788091166031 0.0888257006851567 -0.6909212396784489
Ni 8.310476218739955 2.8415759052243055 0.954602599378399 -1.6421630748926688 -0.24772938913432177 0.01984505975038518
Ni 2.0494037395861255 7.313582612878383 6.9072673572204515 0.8698504793199213 -1.5368393765524888 0.8566782036040214
Ni 8.321652877911891 2.932663377751469 5.449061053568231 -0.6753151577100757 2.011493045150323 2.9442741025561934
Ni 7.038682791730961 0.3976848510199807 1.5386239762011715 0.04751758596498914 -0.18475818761842372 -0.3785160076322965
Ni 7.4829802907805965 8.491381716085865 6.4353179754787675 -0.3778554912301621 1.8284464409063672 0.301353602217681
Ni 0.5443538956036617 8.418636843055689 4.851456586265393 -0.37454416746874203 0.45588898639582126 -0.23710996174726262
Ni 2.529724117086213 3.460670834385148 3.5630113169246815 1.901190405538313 0.18163738260125492 -2.2738532968239418
Ni 5.707878444073436 6.897442935824874 2.927479799608765 2.104252276561931 0.7755820103526384 0.593963653914777
P 6.827733698619173 1.961857842187517 13.128636479459063 -0.8749299507253577 -0.7432254483988039 -0.14651097121176704
Ni 5.092748239277287 2.1408683668672395 9.457715668091401 -0.6823530383934636 -0.9041322833209268 0.427803798123831
P 4.598197168987912 7.616419482507424 4.895535858216077 -2.527381294917912 1.6114677026913409 -0.9183407136108249
Ni 6.060922890460026 2.3786046464059214 2.183863088927905 0.27224562910813116 2.1704057324605524 -0.8816474719548494
P 0.07924665303241896 0.7008013671007314 9.922866145475899 -0.44201942750258066 -0.0407247314128718 -0.17840756281004758
P 6.198878740337817 2.5661333491870533 7.255003120472785 0.115019328361389 -0.7616229770693851 0.6660869542435883
P 8.765702006757705 8.80176168079391 2.7348576678700196 1.327467761260759 0.71757252371739 0.49685283040269274
Ni 2.8387058495357094 5.553870519911673 9.267476050530048 -1.1089304203093613 -0.653969602154764 -1.3464730987186684
