# total energy = -340886.0328018821 ev
CRYSTAL
PRIMVEC
9.13662697740499 0.00000000000000 0.00000000000000
0.00000000000000 9.13662697740499 0.00000000000000
0.00000000000000 0.00000000000000 13.37237712584277
PRIMCOORD
 96 1
Ni 6.775539922849499 2.234133740978416 11.507304989305647 -0.6922525568953627 0.5186107909050746 1.3716966491721474
Ni 4.648542271214557 0.43409211734740305 5.923695632055586 -0.6371679572163931 0.05170437035282708 -0.08786513654410029
Ni 2.905209864651348 2.2103236907627335 4.676427257115655 -0.2396514972221937 -0.33630697836441437 0.7532915743855543
Ni 3.3009263208644803 4.800831571673113 5.352333915534954 0.676355426049132 0.9485018105752376 -0.8551494256643208
Ni 3.8285573991090875 3.243877221268655 2.6812154010701152 0.21467888643725608 -0.7710419563904398 -0.1176415964755845
Ni 5.432967390657158 4.889529947534142 2.592355306909462 -0.17524176348755627 0.7889813144776799 0.5289137154929794
Ni 5.48310920016739 3.4311963500184333 0.5508737439175444 0.6155655484552689 0.7978025123137357 0.27376643662803174
Ni 6.219841126161847 8.0273857479652 12.852740026767588 -2.1705602557605457 1.4455071073953942 -1.153896186386774
Ni 2.524258197827526 6.112778129835152 11.621130917009797 1.3013774919316103 -1.7470391441724689 0.9013318377576542
Ni 0.9213922962589075 7.617699388920226 11.354779963867982 -1.2277570382319822 0.9034198306349344 0.4022647733124621
Ni 0.6190750105483899 -0.03143273820299783 4.802060448017705 0.793332392357524 1.550490134566704 -0.2865507328768936
Ni 8.756598229858541 2.52668854063542 1.5332767812816865 1.0353852999323587 1.1910406566475553 0.2374418911653846
Ni 1.65483503649832 1.359658024864378 2.6554729542233444 -0.17635787936987046 0.5174471096142765 0.6041642485968627
Ni 1.870176200555657 6.801825999008563 0.4491812569986691 -0.15208846529954453 1.1030899023681842 1.2396345063958585
Ni 7.583007615831605 4.1737939906093855 4.108168339157282 0.7728309299700625 -0.27984683849415676 0.5355638738196454
Ni 7.931716125628895 4.069124790582195 12.878468768673713 -0.2972802034792558 0.7166510403443851 0.3375161681811671
Ni 8.131698619535594 0.04997095458351192 6.763667789599208 -0.6814163855118072 1.2037177378945914 1.4941279537268912
Ni 7.150625875076826 1.031168870833514 0.21841929372643254 -0.6985098506589842 -0.42560293381777026 1.188904584141159
Ni 1.892314248012525 6.701999211342965 9.294617653112832 0.4467867669842369 1.76779231755942 1.240891261621095
Ni 0.21028038630811713 5.113386448046206 2.0201786032517464 -0.5340114417308609 -1.2864026157893327 -2.3692569078369328
Ni 6.242563917752945 1.9506516120290762 6.456451444439094 0.8713874847897379 1.5606159101467962 0.9465881384922923
Ni 3.23749071892761 4.969000330026854 0.7525501684880913 1.8628074348847403 -1.0748296219709104 -0.5479313942460627
Ni 5.570254349421872 5.983074571561235 5.600231622928262 0.24160425007319036 1.07671706880161 -2.184642959105857
Ni 5.508481613616718 3.131441888208721 9.725395915812026 -0.06968923696602192 0.27595881629366026 -0.4401546063797
P 0.2252854689900877 5.939337537646241 12.943551704476233 -1.3381604650879149 -0.4184421544032729 -1.5126851479037884
P 4.514745504001029 6.306072612706593 12.943097614109496 0.034322941651586045 0.4446859185911503 -0.6507333546056535
P 2.4231248724870085 8.332695279050098 1.9631048347627582 -0.26733662184228796 1.2111276572054175 -0.5032263380292044
P 6.2395396941837244 8.072639461978351 6.185473703335182 0.34484972572810285 -0.19074885798421987 -0.36341231922163864
P 4.971129164140535 1.5730713606041749 13.086020958130563 0.6806100875604278 -0.846910068473664 -1.3734401142258152
P 3.9811847547702444 6.523369014962762 8.707303385680232 0.6510614273690336 0.7163579345839985 -1.173348638684431
P 4.84131596634145 1.4617689693043114 3.907462224384473 0.6873330081065582 -0.3575903132232229 -0.41905973338261376
P 9.15718450831456 5.8896982426263635 3.938285549560078 0.6024927744317108 -0.20903994298392384 2.1061667199758243
Ni 0.41464754755883226 7.488416115492787 2.5699166644210907 1.1170407081213214 0.29594091584254195 -0.26114771942275666
Ni 1.7564434664478996 7.03306489421528 4.881131559906263 1.5965573612384116 -0.9170145386002336 -0.6719511263338492
Ni 6.027149660678829 5.997620081900209 9.322498984363088 0.5969913849975073 0.8424497187094654 -0.23779824606353883
Ni 8.847489396222935 2.6645785167885587 10.510127112262387 0.9686150363853446 0.538504187394892 -0.5608288190340212
Ni 2.4376429729446905 5.331285867690799 7.547076002445875 0.731644942650056 0.29383749634629397 -0.8974924094069059
Ni 0.891785969812669 0.6056003129052246 9.52723069703499 0.546476149856775 0.10523088151605749 -0.7795643920391542
Ni 1.8516471208022403 1.2120284042254688 11.649052449419285 0.20368973441560403 1.3782370213938264 0.8202338447340585
Ni 4.329262837297817 7.06800335623553 1.6594051773724123 -0.17111668557558918 0.44359114286507473 0.18120312327731372
Ni 5.615946621535696 8.549370390663647 8.433704346262092 -0.15529000295597772 -0.9417763189259457 -0.3569323679242498
Ni 7.088387171289708 0.6056432550525821 4.60685092810666 -0.5890937274169855 -1.0502017961199008 0.6941842267004368
Ni 0.751250026452139 7.609604337311978 6.9005079672988625 0.6529352473529787 0.15801048721093433 2.4973387258092345
Ni 4.835523344761733 4.695212162427798 7.527096939972108 0.64394024294322 0.057795313741913365 0.40693981019062825
Ni 8.359675738868559 8.092831407863486 9.184696719830086 0.13966129527978527 -1.1530520932189237 -0.2541545759343752
Ni 4.870361303883911 0.7639709523597732 11.025779158719667 -0.4629474359044995 -0.3857256380068583 -0.5261091561646488
Ni 8.315088998633513 7.409210695185898 5.275055409882896 -1.4456958263674329 -0.5125136768684012 -1.8524098937005
Ni 7.504779814624133 6.5080468913205145 7.226659972118226 -0.8042788640666987 -0.7113715371130007 1.2402903948123025
Ni 2.316820216209393 5.684252045715452 2.8358930158519167 0.8035630689465966 0.6490688224190371 -0.1582442004882952
Ni 3.8369082762760613 4.848241529681238 10.02331848388872 -0.9212887404955552 -0.635440690112641 -0.3341657636516955
Ni 1.3709326227025023 4.010970159107591 4.1260870922205966 -1.8277478721774456 -1.0376476136039743 -0.04479941570287768
Ni 0.8865479414977608 0.4693713755583833 0.5499363259773568 0.6731315197951956 -0.5140486254556889 -1.092058584254687
Ni 1.041191750759302 3.7719925407494213 8.533796096113512 0.5052845061098137 -0.9171667479073817 0.6324178441259173
Ni 5.22434164751637 3.5134168572674453 4.638756943593299 -0.08628519365149011 -0.37491054966922527 0.11504143984857607
Ni 3.9751454442588994 7.3863143076799505 6.589707323328459 -0.0660665526117701 -1.279202241386152 0.2780159559330051
Ni 8.36776165384971 7.72927587903301 0.2732299196834084 1.151328682769914 0.4193731508579745 0.2816676937529794
P 0.19050507061862246 5.898825733096611 8.350287854526037 -0.698937425114706 0.20886819329274994 -0.05495964406533115
P 8.627095677380765 1.8194679201653892 8.116244014800435 1.5794888357918992 0.1783898221982347 -0.24362385160638045
P 1.9214600884530573 3.665532561811151 10.824043346072987 0.7283184493799845 -0.3074034079561867 -0.49186489026979807
P 3.95734729467327 6.54729784133071 3.8625840257450212 0.5515137122806824 -0.3592468749900394 1.4040429267133367
P 7.258081746368706 4.561351438824588 10.31747127962505 0.5750544757150999 -1.2643050125593451 0.8164376109164196
P 6.653675590625104 8.384079669845569 10.470973010499424 -0.1083095204413812 -0.5987531048836204 1.1020789446051666
P 2.4120786903263176 8.813720422471146 6.215039828622192 -0.6462305816392935 1.0647907496776694 -1.7783780634950666
P 7.380357226812481 4.183780324026785 1.9334720120979374 -1.9609145608718228 -0.1689487313899929 -1.4137820083779715
Ni 3.045776872544009 1.9742880663299092 0.550513760809909 -1.0038008402578584 0.21738985761051594 -0.1767047211863279
Ni 1.6818703160793653 1.569160884206511 7.401490245288642 -1.94458522758418 0.17702173820611447 -1.153164707537388
Ni 7.095641653205001 1.1446640526367402 9.356304504623267 -0.7779901055734988 0.09568334703693844 0.3515847304590913
Ni 3.0193172004700966 2.2380259441218855 9.420010550722221 0.31958015252803673 -0.0006420044593730879 0.2796367793658797
Ni 6.671236187906203 1.96241045110336 2.7368044676557846 -0.6755357583613141 1.4474655166733457 -0.5554804102379143
Ni 4.618099029726202 7.3123715845811335 10.86002886555859 -0.2714881821168163 0.36924615229459634 -0.09074785740853403
Ni 7.52716455101263 6.445771641025007 11.579583018947329 0.38564387692632934 0.45154639315640943 -0.26614131598260615
Ni 7.881610862627053 4.018964707817768 8.278197125739851 -1.725377600038635 0.037720140258593104 -0.8471903187182442
Ni 3.3154992410847464 8.520233686850213 12.897324026014505 0.4428365240872373 0.3429483949403319 -0.12300466055971075
Ni 0.2375011394192387 5.169521884932297 10.573926351957732 0.6492246312706109 -0.11311928312519873 0.38087319501056344
Ni 8.612394844381138 2.5910926250446087 6.02604778345089 0.4500973194147087 0.9170785590689496 0.2666354820102053
Ni 3.891828541758205 3.2299895480806895 11.885382273244643 -0.6588395286525557 -0.39357547306858026 0.016081221832578756
Ni 1.312540438923367 3.996954573140263 13.08306617292728 -0.3196997088250365 -0.7750443926816136 -0.8127028264643359
Ni 3.1489568023543324 9.113675890077 8.14062144955886 1.0428371282247135 -0.34887298795488303 2.4360492828711333
Ni 5.511186055237532 8.120442294951664 3.7028246189716767 -0.807150786297855 0.6125455306820224 0.7863968415799554
Ni 3.2412093261562296 9.01206746012742 3.9578086943416864 -0.7393839631655266 -0.7831953039235222 -0.24142658684474552
Ni 3.6560487428841064 2.74866289596543 6.893888480966836 1.6701803860412012 -0.30106640999456535 0.5233647606502922
Ni 5.671890189252743 4.85247178802731 11.702207518546222 -0.5144589735202301 -0.23610646018341272 0.8186711282326288
Ni 8.436871101214033 0.3125914228814827 2.2827186692312607 -1.2497859930075639 -0.41404968176253204 0.8105186743288235
Ni 4.716875105275604 0.5081527029357762 1.5703714872969092 0.38550632290720055 -0.6638277258957664 1.0842437161959586
Ni 6.517247474807541 6.11970369317494 0.761496753741812 0.4224762152633304 -2.2914363000130282 -0.2646876142552151
Ni 8.606456036767861 0.28073657250658746 11.456530011537568 -1.6610159459331137 0.19371668236329218 0.515042356827526
Ni 0.3405394515095529 5.2973889811596475 6.199848358747436 -0.25294178657319666 -1.1228837971656598 -0.6060804917829692
Ni 7.196683612274544 6.655831834620078 3.3047289850623955 0.43818565557878725 -1.4169789180487145 -0.7255560561434988
P 8.763916668163516 1.7796870457835465 4.0244439430880465 0.6278345956306091 0.45323200838894845 -1.5560941110170428
P 1.9563711405920146 3.5022153524460995 1.799494339667882 -1.46261394227901 -0.30585920339751843 0.5973004315974939
P 5.097845045353621 1.5691791574607057 8.300154267980192 -1.2470832493644202 0.031723042134893756 -0.01639438219762338
P 8.844218483722084 2.0691993486171345 12.756713162311776 0.7201330853557146 -0.3698056243424922 -0.8964043185490498
P 6.63369378716321 8.016732440769696 1.7378202794353803 0.11333782689390802 1.7968023316385247 -0.16040624113662053
P 1.7624188205695637 3.537939564396721 6.301732714835354 -0.7269408523061675 -0.30873292540088765 -0.2264188005820036
P 6.555109657498941 4.2486869229263275 6.156442070733366 1.6472651720059244 -1.33531168278521 1.506895537805205
P 2.692326453283197 8.693144354667476 10.590053412447258 0.42722144325779965 -0.3153900257060891 -0.23758484450115208
