# total energy = -381173.63853477157 ev
CRYSTAL
PRIMVEC
9.21064043496200 0.00000000000000 0.00000000000000

0.00000000000000 9.21064043496200 0.00000000000000

0.00000000000000 0.00000000000000 13.48070330236473

PRIMCOORD
 96 1
Ni 7.996106994254296 1.8438044300834815 8.410314101402138 0.45855676303597154 -0.5119261797960474 -1.6027647756007042
Ni 4.588280548930904 6.264681588515903 12.777684807230225 0.12185460611566755 0.1484516398779056 -0.7235194853294443
Ni 1.9267738794155493 3.204593663405976 12.336043807449661 1.2383271004383447 0.13251157160888144 -1.5378135675403
Ni 2.9416943525395007 7.375457196986083 2.8260271295474815 -0.6505127539544152 2.279605625926687 0.1272168988688454
Ni 1.7682403356873577 8.297000197049588 13.427953261050071 -0.19025006397093044 1.1445543401605578 -0.9720297184938486
Ni 3.675717923323302 2.3107470592285204 9.059113458067404 0.4624684393855519 -0.8632789967499906 0.2281239561985684
Ni 3.9118050597886174 8.635924134335568 0.5331588445306038 1.4030504808930804 -0.29669450617911486 0.7954134432562688
Ni 1.6716575597441887 5.554504365902697 7.196255897112662 -0.5867241987435443 -0.8030010257955397 -0.2939537102091841
Ni 3.04309429344722 1.7097251367967463 5.396190956481681 -0.43358440936135006 0.12073720468177272 -0.6100644161313815
Ni 6.779381388485406 7.604525825415094 12.97744149343517 -0.25766695996300787 0.8269199985049823 1.4376171631243564
Ni 8.011562448958916 9.02566317508125 2.942446861865703 0.8784659889030741 -1.0763476012773332 -0.12416062854102487
Ni 0.3819892078562518 4.507051910647212 5.088924911546862 1.552234113841004 2.0496369032098958 -1.0654751773392037
Ni 6.209519062755495 7.3208380990132635 2.377686309890791 -1.6951331993317968 0.6812140396930139 -0.9380834434553909
Ni 0.6495454185431419 0.6886961669146879 6.6769516979734105 -0.7418442517805611 -1.456115736149176 0.2276909824262079
Ni 1.7677061185402374 3.2815301432317714 1.1425053438169877 1.1180133564472359 0.35433015441471233 0.30300887843291685
Ni 5.599783874441379 0.42649502259565586 12.103797508059332 -1.3770720545514477 -0.47630637370990875 -0.5264966214110546
Ni 5.8328959740356625 8.184611962064032 4.702554202020177 0.4884085562900814 0.1137250350299977 0.5511352458953411
Ni 4.695004240028892 6.277401483001648 4.031512069689723 -0.1608117041051553 -1.036969356590027 -0.06570634105887393
Ni 4.073728119208883 6.14773408649889 6.581778150021783 0.8272503852612076 1.501865174470149 -0.3277835142744355
Ni 8.324411063081142 6.853029669664271 1.6449697289893412 1.0874208283723596 -0.09301737016900109 -0.22117606412582555
Ni 0.3726671186390021 4.558336756770763 2.5348575998938263 -0.28231561174962344 0.9646401108979968 0.1173333212065463
Ni 6.5737169974845475 5.528327725693802 0.6378313259964585 -0.49901589949228253 -0.22684843192025447 0.7870894967716058
Ni 5.692995555973409 4.023474864817702 4.615792732007602 -1.784549482413101 -1.0127225682275205 -2.0524232077057816
Ni 6.723260956116368 1.5254294316807 2.9982301847936266 -1.5466419644652074 1.0644343947795152 -0.37361188546245977
P 1.4631286595579083 6.283554190833999 4.26456614224906 0.3032078818176004 0.8952264961908647 0.712703882771179
Ni 8.283746085416723 3.0661116839757323 3.916791700537772 -0.011314396571554707 -1.0496731773099406 1.246217301819699
P 2.0923443524609815 4.737603452191505 10.028996662496972 -0.3210420817855439 0.3171185783614216 0.03861925503409478
Ni 8.827551509263817 4.780386877163469 0.20872416576419353 0.3874400495948037 -0.2922763225067611 0.48911226722532536
P 4.203616571082864 2.537310393450346 3.5675868463618663 0.11021830742831987 0.03279827747694351 -0.4857857739552537
P 7.805630949384496 8.833013419061098 7.5931543686938054 2.9089479164510736 1.7948781180326185 -0.607535993282573
P 7.272767766412901 3.284376231136257 11.6072095115053 0.33003811463656707 -0.35887920723797545 -0.36697535398254866
Ni 7.096245841851503 3.1323269782972503 6.057176911549619 -0.036586283764466015 -1.2995543226799424 1.1911293597066195
Ni 4.683785679939366 0.32956500550685897 2.6816088923358747 1.449979027123819 -0.8682895625907044 0.49813221133574853
Ni 7.036395100093091 9.079849372952093 9.600862145898084 0.307995790124547 -0.4906145628024648 -0.6533661642428102
Ni 1.9473780821415525 2.4722280079063417 7.304963560167369 0.24470525759601727 2.059435377357557 -0.0907547993870695
Ni 7.662202856023154 0.7651546145002152 5.288991996335566 1.685506217764994 -0.0511541542763119 0.3651760959902807
Ni 1.8871128615620987 5.677613786392532 12.229950124159657 0.39436711573194017 -0.14898077290849823 0.4737391272033648
Ni 1.9612585173262136 3.1020976562826137 3.6117905520939337 0.27151980668570014 -0.6939821379919596 0.14673285741458603
Ni 5.024091213295483 4.1498909052354005 1.825408938941607 0.1920801752011337 -2.105563024953554 0.8085209271725043
Ni 0.17551520155829095 5.622018360530146 9.038798469452084 0.5754679091034347 0.07587942493713383 0.5563566421952806
Ni 4.5035150247076565 2.9988832192027792 6.52290834147317 1.5384499155727183 -0.40862671097474784 1.6757375684140041
Ni 0.5262075741697122 7.898695260669045 8.038880287521746 0.7039428487490974 0.686284769347702 1.908265310107223
Ni 4.748057529122221 8.714214578310099 9.283014917194096 -1.53447499008537 1.1470848198918955 -0.5011208616504274
Ni 9.219482682440788 1.8758574589107015 2.090870649986167 1.1078053055659827 -0.4047682564606061 -0.2617280174062589
Ni 5.966072624556574 1.9819732477378278 10.228820586377331 0.2706831697170177 -0.33419198890394053 0.4553588249239642
Ni 1.2240020117382875 2.7531341208869593 9.477258114015143 0.2843676091826457 1.0198213840558306 0.4812963707253323
Ni 8.751904519103485 1.703231635267094 10.604123790318159 -0.7311700598961666 2.140625415874326 -1.2154995610208679
Ni 9.10177990790543 7.085045703042911 12.819245980212141 0.16118605672543854 -0.362805281765259 -0.021227541920208603
Ni 1.96341380719563 7.524439306549382 6.223622395439473 1.0859555566807426 0.7574511050798826 -1.1817291494386424
Ni 6.7212714577753685 2.063441362673678 13.326228184533848 0.5896799389377587 0.3534127848067655 1.7081969744942902
Ni 6.005503376398335 0.6866467994106488 7.178515282508033 -0.7469820872277587 0.05421582392077115 1.174722636213822
Ni 6.60135812952779 7.230969879970969 7.555354821278855 -1.9603980262467209 -0.21704661533848424 0.7769958599810296
Ni 5.495123366808133 1.3104899257289753 5.059442572474147 -1.950979561146298 0.9762203595364284 -1.4123259926577354
Ni 1.5162556337749784 6.44974177679076 1.086569124257302 -0.07136970999223836 -2.467936104277401 0.6932717421884964
Ni 1.439816528534433 7.172988898227478 10.41039270510711 -1.21332440774642 0.04673879881743563 0.813802744396734
Ni 0.9449103949297853 8.471348410460635 2.063842025534018 -0.4946697067084449 0.41852880057980824 1.3547993591961764
P 7.700666490615818 7.073495559896551 3.8966111872732783 -0.48559319832847336 -0.8190225980347765 0.8589366606208948
Ni 8.673310123993524 0.2284220414681856 0.43313497330874284 -0.6623249160979948 -0.9223871157660567 0.04673751326585499
P 6.0380814117322075 2.780084454895133 8.201269405349672 -0.781199613649732 0.28168080637910203 -0.3997227236168987
Ni 1.0265350907535846 1.0597947134820591 4.335380309356047 -1.580374323720646 -0.23178417865897502 0.10314571685225461
P 7.524070880930679 3.155491739073244 1.856643141831258 -0.2738775082845993 0.7622621533152809 -1.858587740376438
P 6.526392726762059 5.933402482818026 9.499204307057273 -0.09651381335803377 1.093556251846136 0.8459651880618914
P 1.6048619950732126 1.227262578463815 0.3289036815212859 -0.07443343651922665 0.16062092825058788 0.05350748499983689
Ni 8.715789597830057 6.616822794872878 6.520495153670661 -0.28739636870664054 -0.27006687628925746 -0.6876657088556286
Ni 3.0197453198618742 7.0671125860525095 8.704112347845244 -0.16945909536750817 0.5847534481704186 -2.272811228712673
Ni 1.131794290017225 0.2789460886891142 11.482849286039967 -0.09193956372379006 0.41684087135442405 0.5472752487193027
Ni 5.642392297244459 7.49036914745976 10.923063400981603 0.8535265453489171 -0.8021052534541477 -0.03350430240503262
Ni 7.239194981908529 4.950875832218595 2.9053473231262896 -0.6501175753985254 1.7683425336359353 0.7392078425989785
Ni 8.641174199402094 4.433836529570323 7.109669429268971 -0.29788724093563534 -0.9182301561748895 1.9508715748135241
Ni 3.42821880331864 1.4566443686687238 11.453394578888656 0.17432722209308688 0.16302028172069988 -0.561524302439149
Ni 6.543856101088614 5.744105399928077 5.755020008882173 1.198166469059059 1.1573581767934455 -2.2012126905390796
Ni 8.093767415132174 7.016454063480754 10.791937039028777 0.11493988127370527 0.254822034315045 -1.4365892360804744
Ni 4.190362459449999 6.147761718420292 1.4824590307072436 0.18059017228366317 0.9589996247827678 -0.5017168433632133
Ni 2.6531434079707816 5.176831264169559 2.9124929380010474 0.4591658573748802 -1.2907770907079448 0.07650343167437791
Ni 3.301130386146807 8.844812249500084 4.512449345961221 0.2766802678407171 -0.5521212639576942 1.1612120033218971
Ni 3.474373322701743 4.4511709549303315 8.030482025543396 -0.6306409547311526 0.04137573473330939 1.4776186432179583
Ni 4.2609988611959615 1.9016748841413615 0.9795645086250531 -0.22905778086674747 0.459243504690351 -0.9660979263904458
Ni 5.037787435670793 4.159000228657849 9.904771833446514 0.22032939985481406 1.0814586972516536 -0.10842059209794877
Ni 2.929471832639006 0.36822943206171627 7.583974123339756 -0.2969341329937467 -0.47481616231762747 0.7179052244664604
Ni 7.894836002313123 9.299062616080782 11.6486758148904 -0.32945524554990363 -1.6054492644114027 1.6904746175138627
Ni 3.311437092830042 4.403597996915219 5.213473034077733 -1.041462359364374 0.5295012125653332 -0.4791775246101167
Ni 2.4968756817976177 0.9081663869124209 2.5920427823009176 -0.18529503395850022 0.7015702347518628 -1.2961311559310065
Ni 7.655046188379836 4.01407080090029 9.410340047825947 -0.465077851983941 -0.22485351297741277 0.49312987302515077
Ni 5.076453704353742 3.3969578895716332 12.130354547719538 -1.0073155382793362 -0.05045867087118407 0.9786209985581211
Ni -0.1583456466626529 4.517404670532785 11.348649333363108 0.9471301270386914 0.17874540576544057 -0.646061660161597
Ni 0.1324397992835039 8.140640364471748 4.864754501718518 0.21348152369504525 -0.3398946957156727 -1.0207891472857389
Ni 3.359894272330043 8.331392728555576 11.762170247796114 0.5727376546564652 -0.538316496864118 -1.3965998401717301
Ni 6.752348158713024 5.388832575812122 11.887257192794339 -0.1612037973372514 -0.5240453316570846 -1.4262888825957307
P 3.5120724741355964 4.45905526317059 -0.02495530928289349 0.026290558265412784 -0.4465890491511341 0.388948258709214
Ni 9.09138109481752 2.339042146744963 12.762316853610047 -0.6732850146539243 0.16317197680721576 1.2076142447355203
P 6.070558130020936 9.402866534150542 0.7652034308946933 -0.2057497022684263 -0.5425806714571108 1.165255577263651
Ni 5.910992994560375 4.9704116006503565 7.704774436264365 -0.4113667356137302 -1.6439978141085623 0.43759995827864634
P 0.2131415889324506 2.6392906047075235 5.990527796062078 -1.007828987580645 -0.7890828730525508 -0.24661764412738174
P 4.393254447670114 8.497193467612698 6.470684010021924 0.14417563821037105 -1.1079572577628145 -0.31108934144820616
P 2.2297394763160496 -0.11032597258486253 9.723725642287434 1.4820214002713443 0.08365495511749464 -0.782087415571324
Ni 3.701765614565652 6.218959969234778 10.632082689457533 -0.02893416653584694 -1.4972184197267568 -0.21823986431563702
