# total energy = -381173.08827092906 ev
CRYSTAL
PRIMVEC
9.15178555588055 0.00000000000000 0.00000000000000
0.00000000000000 9.15178555588055 0.00000000000000
0.00000000000000 0.00000000000000 13.39456323769175
PRIMCOORD
 96 1
Ni 2.010070685172952 1.187435001072248 2.479883078648389 0.7975112063255619 1.1096367023477665 0.27654811313822697
Ni 4.026007664773509 3.819607449132676 12.27307682644912 0.09008605545481904 -0.2983312704515894 0.7204174493653528
Ni 8.232433626498349 4.427789346459486 11.27002467575416 0.902561339289381 -0.706593398998067 0.8772169469873214
Ni 8.13773095140185 8.06890952535569 10.542083430143116 0.5904039615879767 2.664289710042908 -1.1826449763846925
Ni 5.469784174296948 6.548294625794541 8.46673031432986 -0.6641018054927595 -0.017647537878434125 -0.18223464986562163
Ni 0.6648094845346852 7.380603747040298 3.129733054803413 0.4807479544210301 1.550999727213271 0.03417510321981211
Ni 7.709683645679638 7.884263103559501 2.103736462986069 0.11057003434078376 0.6917375649321571 -0.3242562178474674
Ni 4.856156964669943 8.23170148366807 1.7536294222611348 -1.2788980798821716 -1.619092309116134 -0.7373237382023883
Ni 6.128145310853957 3.2556835858961892 10.6820297866152 -2.1866414775931244 1.6631129376714584 -1.6251398008617945
Ni 4.96374535357934 8.040218678194158 10.22736542829822 1.2129467126920273 -0.9691277143557051 -0.042063504828953366
Ni 1.497762891471086 8.716993206932667 12.219699038229143 -1.5017623303436973 0.16101610680647752 -1.9439640490604133
Ni 4.221846720087576 8.973673331442862 12.264396358017633 0.19225578154704956 0.5003659857622736 1.0889694038064017
Ni 5.582232161242318 3.5969262073035293 1.7409313200484955 0.09747334905782568 1.3057869338532155 -1.69631976344073
Ni 4.0873337785946955 5.498548235741508 3.3526861046583 -1.4357677686204433 -2.1183360083485065 -1.1623142352471403
Ni 6.161961157827436 5.248237753854733 12.368405483665507 -0.9831985906264744 -0.6762872918153578 -0.4939739661930008
Ni 0.18315834149364796 0.9784082230277918 9.584720652771672 -0.26011027929717784 -0.34013663652314974 -1.0734823639143964
Ni 0.7846823149576143 2.407605938443315 13.237913866939166 -0.2818756959987274 -0.30529458914330004 -0.49004403501097543
Ni 8.402061968488454 0.3883917044987247 12.4734862833812 0.3718018288369145 0.3499839616308747 0.5671429341775072
Ni 6.329713383814953 0.9157825556828613 11.499968774459669 -1.7134538520178555 -1.0458314349663473 -1.0897962705830715
Ni 5.218805612077546 7.230551073974759 3.9333668869227814 1.1915857305177477 1.7912148102484182 0.665846298987692
Ni 1.651522037614909 4.917391560637345 12.979116934470929 -0.07192249717191485 -0.8102962739053722 -1.2019655310901751
Ni 2.7292362837845743 7.3081399104135025 4.5318222667493435 0.011825531880018343 -1.4583484821344366 0.11723947594115937
Ni 7.861758863313821 1.7674660065748569 4.583860233589912 -1.7720189540462579 0.10671877891549363 2.022832895643174
Ni 4.423076176989569 4.502522825860144 7.438536378843144 1.11862939276468 -1.0520272793644139 1.8377252951051317
P 2.5791561553629 8.074482962651183 2.4788782126138322 0.8010482729445431 0.37889241713510874 -1.3748362232423934
Ni 3.2342684081105495 3.227093408373822 9.894188275344934 -0.07147306833932207 0.13441933015455562 -0.40686473397831874
P 9.020951454708083 2.4476266959034025 6.307874478366289 0.033991526454096296 0.13773168235724023 0.5921718521216769
Ni 0.7598855524746261 2.86757467156566 4.1738391995276904 1.1696683616193662 0.1683396370510843 0.9833027203045065
P 6.610801319929552 4.8257181265011235 8.73535809465166 -0.2830512043640674 -1.3953184023561453 0.27489309403330725
P 1.9918037215575082 4.848744018513376 3.943198649954881 -0.16965758453155944 -0.44503687417266585 -3.2772851837781554
P 2.0901213518785062 9.515568847273348 10.253028864856551 -0.23149518666364646 -0.9320817173460012 -0.24405733959937323
Ni 7.535369589575753 6.672081674823846 4.231409420629549 -0.5677330023530223 -1.0051270152684495 0.7452501921383164
Ni 2.6414432066488267 0.3727467273942151 0.4968229728414795 3.100555265780847 1.036645654702021 0.6450108502995795
Ni 2.803329138208739 7.06551692824465 -0.07269171608271939 0.5770748485792384 0.16045766319984622 0.33380812320196057
Ni 2.666345214663668 0.8630069549407875 8.159980772014007 0.2113019995452232 0.8410104151597774 0.20693343816388232
Ni 8.252530947189488 3.1803369368751735 8.72070425590364 0.09401701507810904 -1.6938147376306893 1.8323061809720893
Ni 7.484174502168543 7.873546362881302 8.29412764209175 0.6686500869850743 -0.1680663287850396 -1.019243914285806
Ni 6.215206245159426 0.4839345134929678 3.0391322099135483 1.3139188189317308 -0.3575869707891132 0.5701845492173083
Ni 8.707676689417376 5.387418105890639 8.860476728453532 0.8327903412428302 1.8517851156323075 0.6893412967858386
Ni 3.4115293391063055 2.889063063634328 3.822298989212486 -0.7768017416923525 0.23732901973660417 -0.6981540099814622
Ni 0.633382253544989 8.942264404023923 0.8471295224876646 -2.406949280181384 -1.4810091569567463 2.2256353423578186
Ni 0.8846674005745712 7.665123602671826 9.083388595274217 0.4131207421903595 0.14238126531410963 -0.37250476844121005
Ni 4.721030853556703 2.5521949956379015 5.932853532305522 0.8826702567924088 -1.0841717253074425 0.31857485119197393
Ni 1.8537581909085334 5.703099790735887 1.7328548694519879 0.8187870849852028 0.33824224771391426 1.257518585765131
Ni 8.281624472907673 8.813059498050558 4.239231451592535 -0.43883151669290227 -1.7407504829502793 2.083719703826218
Ni 0.6397271863478884 0.4709472148623685 6.949461307503085 -0.8974530715285381 0.3836127054289135 -0.14477110570252485
Ni 5.704573228181823 2.661860839828213 3.7243044169153485 -0.003586688909993823 -0.06619690754204728 2.076155261215398
Ni 0.5707849567347317 5.882136168095069 5.048410350472723 -0.37527436076654724 1.1037491332187377 0.2750591872975263
Ni 6.715214039312616 6.365295525366478 0.8044858633381047 0.39957411385417635 -0.3099454576517501 1.979969777731061
Ni 4.081632216303903 1.0507713900154239 10.195726791066281 1.4678247970559883 -0.20534012553483347 -0.7807468423830296
Ni 5.740237735801753 7.675858646920781 6.447808022338844 -0.11453056165042856 -0.5705031088989916 -1.2332579134455535
Ni 3.7359967379148933 0.2430430491177241 3.907582646797455 1.0202911246033977 0.986912806253268 -0.7052201727996241
Ni 2.683687847955885 7.381747720212607 10.869607525268115 0.7992199614865526 -1.4875459296339992 -1.2141803279888121
Ni 7.279705313242568 1.1620754037884833 7.303880669498358 0.141324284804505 -0.6844132633566019 -0.1090307148781219
Ni 6.947129432588649 7.603413113864742 12.310594570608194 -1.2283756456525876 1.0137944611354603 0.4264578256188978
Ni 0.33692114835162196 4.554559877522174 6.894395930059316 0.028743904901911792 0.0011662523939592819 -0.6248166347398916
P 6.276422537556072 4.950887095122578 3.419310187035088 0.8150060206762157 0.024850997605408813 -0.6240455609018221
Ni 2.3159050489509565 5.525912074023158 8.238299005747415 -1.170069710822843 -0.7000723100500975 1.2537580902814345
P 4.950621693346602 1.9472985892619656 13.049760480985944 -1.6424302125111263 -0.10404200341427888 0.30469886454083006
Ni 1.3297818708491074 2.958817971789094 8.086284189896732 1.3472215468489184 -1.0484094801061687 0.051366527397434115
P 8.024157294854927 2.006464881733831 0.901224810681315 0.8481722230155393 -0.48821289533950757 -0.040476362847491586
P 8.593691202528422 7.582245034284321 6.287368072868732 0.020348995969997213 0.3525550647921606 -0.05112252970742808
P 3.700826426705399 6.413214273608194 6.839759771349796 0.6874217111656226 0.12454963644932744 -1.9343756340410296
Ni 4.926936872787099 2.3762519217366465 8.55658071281869 1.132779201902501 0.768598894166586 -1.1416171119091048
Ni 6.861578542870628 3.4466447396035287 7.060153982012862 -1.7592804234336672 0.4071791798949439 -1.673169807686828
Ni 8.928609940239232 1.0872137993925264 2.704991373959908 -0.35118003882150484 0.41001639223342284 -1.8128537286744328
Ni 5.418113194050057 4.836718572526054 5.3872533737538255 -0.13500271346185136 0.078533060509897 -0.7756606861093739
Ni 8.009093456121953 2.281366210932578 11.142856957206046 2.5812363930651547 -1.6748302261083867 -0.7185415724988786
Ni 2.837538511953493 4.432401846290239 5.737588293934684 0.4639997884284137 2.4187043638347827 0.9681987747835326
Ni 7.267213126200945 5.733987066388253 6.547556991893035 0.9107256202677284 1.4211099094979527 1.3339196875336898
Ni 3.3955320182647246 7.8166131060417845 8.302419159644652 -0.6120541928679007 -0.09986036123276351 2.4416082650161504
Ni 0.9616787593559325 2.994390961555241 10.402538837049146 0.23505976408645327 1.4239463505054832 1.1712277356866863
Ni 5.120991329952363 0.08549231829159772 8.038505463971306 1.2573800033047375 0.9701736391217163 0.8590505604909399
Ni 8.344112863471926 4.604061884634366 0.45703467073000503 0.9521270660326504 0.5074748288929131 0.1029189455534292
Ni 4.270808771862439 5.271702931565153 10.373178079197912 0.7570232735138447 1.3048232843883656 -0.06435625478888271
Ni 4.443255863749115 1.405595260924426 1.856968637219304 -0.34145278423141195 1.3942683638250761 -0.9448112490975277
Ni 6.7963903756197235 3.1339465367916644 12.960699881575277 -0.689964017971502 -1.1640882964284274 0.45236786061644024
Ni 0.22834802733550064 6.355676998933698 11.195711263302375 2.4172123526702887 -0.07905576578258644 0.5849894754406247
Ni 0.9183908145157277 3.372378001257173 1.9801178068077285 0.4879760967383531 0.8543796373778318 -1.0524422554146455
Ni 1.403819814561001 0.33352858151181985 4.550588002667914 -0.08303249104214733 -0.1180246908466161 0.8596318869157067
Ni 2.7294833819897932 1.7740918991888754 11.845816574269458 -0.558048942296039 0.822218993484887 1.2286548674559035
Ni 8.000719572500644 4.078181993216217 4.999694481724543 -0.823797907936233 0.933800756919637 -0.6952160103990608
Ni 1.6832055185952024 7.547825169475862 6.7577176761458855 -1.3125072832961848 -1.1337613633101118 -0.7189755747125037
Ni 7.81056377590661 3.2575139429718853 2.734258783600283 -0.3463988153827776 0.337929858679818 -0.9183399422798765
Ni 4.476971041083431 5.693243317883265 0.9051472658945311 -0.1907804825531037 0.0680262474413022 -0.5415311471466738
Ni 3.2929496559573552 3.657346294372246 1.329971312806442 -0.8078514119093054 -0.6368373133498516 -0.39766429842597323
Ni 6.371289944789383 0.3802301422981972 0.3778863700627688 0.2284844248617807 0.4894506244013506 1.4535088946539485
Ni 7.075437463594921 6.1236517842331235 10.46704702664643 -1.8947060833655496 0.1934919679469958 -1.5617955322771941
P -0.28823731085226606 7.106343042818044 13.196470922031262 0.34199271589528196 -0.08436920757569985 0.7822018296620014
Ni 3.4978672823668746 8.916309940690557 6.132338658914376 0.6415773991379983 0.7026274723717835 0.426724191906407
P 2.0572755941551457 5.038396466911593 10.520411087188341 -0.4284769129314556 0.28139207149408957 0.4290705806513965
Ni 8.824453470846764 5.462453594208786 2.7239584491568056 -0.790499036673787 -1.5591768637074244 -0.3519205165319552
P 5.697508049869636 0.17631189085200794 5.112664120436485 -0.2809377575654904 0.9692868656413887 0.04663081248466163
P 7.164996835308715 0.6191045531760242 9.466285567831703 -1.0683560984314247 0.2436498197483094 -0.49796277563741986
P 4.870955401626944 6.949929878914463 12.150409040771603 -1.5200873539051305 -1.2069930662117536 0.3296156823871678
Ni 2.449713302969696 2.346774021032566 5.9166731757563715 -1.546837368305465 -3.1723785183707363 1.1628220281214943
