# total energy = -340866.2142501873 ev
CRYSTAL
PRIMVEC
9.32718230113084 0.00000000000000 0.00000000000000
0.00000000000000 9.32718230113084 0.00000000000000
0.00000000000000 0.00000000000000 13.65127410374038
PRIMCOORD
 96 1
Ni 2.5958480843556684 5.910038434762632 10.32280669257793 -1.9456800033102555 -0.75579428620275 0.34627026022471336
Ni 2.937894510820729 5.105942055357285 6.52332958015966 0.5107468147759656 1.7004060176949618 2.470603366696919
Ni 1.415950206021881 8.108408648704673 12.073787418597076 0.1069956867259641 0.7307458278745543 -0.5608879544067308
Ni 0.7218623446220832 4.770368693354669 1.4198284483900137 -0.6106596265132193 -0.5561301280067712 0.2374058957211266
Ni 1.8216826327024587 8.589588652383393 4.92592557302578 -0.41252321781567663 0.1472869301458431 1.213919875238574
Ni 9.030018196931827 7.411733426956342 1.1374023034096639 -1.687368210674397 -0.17845512821853138 0.8658192466733411
Ni 7.859979150207266 0.2745810520129699 1.6821507848078967 0.167173384657125 1.0701378729221955 -0.8433562896841347
Ni 4.167795413049564 2.1996946738176413 10.306848816513382 0.9077110018111205 -0.14914275240765926 0.05321103680534062
Ni 6.2830137974776425 3.9491662617531795 9.650672219975329 -0.31320433090867994 -0.4385399535944125 -0.12941416363048036
Ni 8.586687898712183 4.679018270667092 10.465134829702809 -0.7063609712722866 0.055685723598078295 -0.18356159620716128
Ni 0.48869211624075537 1.411547776012841 5.021852844029958 -0.2697668285503354 -0.1461458745628644 -1.262929472368057
Ni 0.4273948073924315 9.078883304595724 3.1798182997179127 0.6226700207105341 0.446240921783096 -1.4204334522562183
Ni 3.429446341130916 0.8848278051325597 8.294951360437292 0.2576355925044401 0.2891179793834376 -0.7669392470759758
Ni 1.7108290719875467 2.9006790537527865 3.0744715073871896 -0.8184081043792293 -0.5577926033108587 -0.866968786896752
Ni 7.076029484402611 2.4681682869112906 4.990305515598654 0.4643772263724905 1.4131086364600307 1.4315005087036572
Ni 1.7128250889831707 6.745716653173507 2.857703128944202 -3.057984482298172 -0.11445574254843513 0.7485216638007367
Ni 7.861490153727318 0.038286217587090464 8.617940488185255 -0.2190353636337389 0.03547119632341633 1.5945770975835893
Ni 0.13005822891112587 1.760169865944794 7.224199235753468 -0.6779446249131228 2.2822158098560243 0.48202322158902783
Ni 3.6519089643207656 9.03759186889653 11.665122525825732 0.23291752093246984 0.621312478241375 0.27786323240522465
Ni 6.008169718925997 1.8150883148711212 1.513939717015463 -0.4988315513956183 0.6057205373403891 0.15791252818048934
Ni 6.202865320639339 8.442629569285021 11.023949634610858 0.2508422237316906 0.31987171562652655 0.6208671631738405
Ni 7.606475664580797 9.192936088812969 4.064925920317148 -0.9885559982836458 1.0287893918823958 0.4070269705877958
Ni 2.8444081634041902 4.970716567494871 13.563674198097047 -0.03897740970446191 -0.9633920974235085 0.3692404958676415
Ni 9.188151244332804 5.896430075899944 8.449538213157258 -0.9014429094142218 -0.45962351373758914 -0.6955119443729247
P 8.008104131083456 4.198211354277274 6.386720871173643 0.2793850683663898 0.7186004507612721 -0.5496344929800986
P 5.077932527142992 0.23324111496621916 9.580382574746253 0.19633098005768768 -0.08278746491087677 -0.075227907396064
P 2.872203166427366 8.628417711975835 0.1924374908972646 -0.4538099923796055 0.30283712874174296 -1.8429526049423424
P 7.850045701140259 2.0044021324420567 3.1604336169048035 1.1919392572024246 -0.9519612298787477 -1.3920734130562866
P 7.788989966311498 7.062794212828822 9.950263178399823 0.8247790409025795 0.34007570137822724 0.37769248328973665
P 3.9360708979127303 2.561132312123367 12.634799707636756 -1.0863263097566003 1.0944540810700571 -0.22443236627959412
P 6.9325867490021365 3.9138908585875254 11.990664503348002 0.19547943069066978 -0.9525068179695725 -0.35320375411975297
P 2.357771758125283 1.3854130114252783 6.431702140160074 -2.426715149954401 -0.6512650587394074 1.1404364613374423
Ni 4.625461590345256 6.79321066505069 10.482854610489195 0.21309740088274912 0.2628582743559602 -0.5389407607116783
Ni 8.661762388421423 1.5596354481601407 12.670170248061078 2.204876255433596 0.5196047793872277 -0.16899244014373477
Ni 7.93117353211193 0.09017053413642494 6.354873207474773 0.06948329160280291 -0.5194525700800796 -0.6929925203851807
Ni 5.544618089647882 8.622149845522287 0.5463415641218431 0.07567347957391483 0.40832537768424515 -0.474899208949737
Ni 6.209506274381789 2.147872849389198 7.522998316407268 0.312358695078933 -0.45170477311114465 -0.04132148445660625
Ni 3.128215664071699 4.769081542207958 2.3878127466276466 -0.10960201400055963 0.028167463573151492 0.287617226468195
Ni 1.9142642434434105 6.932875891651035 8.034948694238155 0.18675567766442674 -0.6445195124854578 -2.1882034227636056
Ni 1.8181849393690053 1.8852007436379696 12.383002163638787 -1.0357311133075517 -4.41428536574054 2.0074281310523303
Ni 7.0585037090064535 5.1602449102569246 4.446833925446687 0.19464459349420027 -0.12170728190452586 0.4902954889001491
Ni 9.102266550427638 7.312501535290718 4.5889708553360045 0.307136013227413 0.2790066019810485 -0.3398245045993696
Ni 5.893268161126502 8.593804538747982 7.508132653380981 -0.3191389512255601 1.1210382593164885 0.25374808452457587
Ni 8.68938017498237 6.694389169402858 11.925670832184885 1.6824499474371732 0.9342152187492363 1.1217273149637133
Ni 5.8169065202705506 4.765928954616738 6.509446069421406 0.012672710371662045 -0.0189297470249674 1.100404642226537
Ni 4.156957227306971 4.640282482896875 4.70832427721032 0.19601961946485597 0.7244653941824813 0.6238236746990031
Ni 7.498504203172651 4.095621677011534 2.4832074355269174 -0.3340330947285731 -0.8342728393256277 -1.3530594936869342
Ni 8.502640659704856 9.14589910886469 11.167629280439783 0.6390057817560801 -0.6815421124563941 -0.11229035946600015
Ni 0.769586737900164 9.392192682633132 0.699780240710215 1.1797342304958005 1.2992717584425173 -0.7154747606480968
Ni 5.345930453943291 0.1098527540624331 2.8352600630803213 0.24517962612927452 -1.0625358922052217 1.3861771021765095
Ni 6.825818494100698 7.666449446271742 2.2724998600921373 0.7637513362662977 -1.3536963559399848 0.30765897561041855
Ni 2.8863898105878523 8.30275914467578 9.488836281232002 1.7717477026627422 -0.2806917029929553 0.9518013072621155
Ni 3.6740050590059674 0.6736902465973206 5.064267272468745 0.6982951635450168 -1.1513957885624235 -2.109048926619626
Ni 7.541427895760789 6.6831685691891405 6.218482754552763 -0.2926223929922702 0.38297327207270176 1.9455720169774815
Ni 1.5990054843214905 6.773670218294465 0.3377559226426915 1.110131639706314 0.8795422526863885 0.24255658668413063
Ni 5.09032835231675 4.185414460267946 1.047290530521241 0.2642551547034868 -1.111749377815395 0.05743278819617205
P 7.8781298468123335 2.2659176675976895 8.846626207353983 0.4617472449488112 -0.1787934853945566 0.6363151222977944
P 1.205836772094677 5.605468626467745 12.208784390495037 0.9917721912280982 -0.03510712811577825 -0.7254709526288603
P 5.437038369893082 6.255237448818912 0.7695699489721635 0.79475189841287 1.0115725137834772 -0.4773019048539586
P 2.2130978346714345 5.413729741518949 4.44844472981652 -1.3863779053334058 -0.07452033980607811 -0.04699025270660939
P 3.234219090030889 0.2215895989338197 2.851573304787547 -1.8379641505888151 -1.7773349669425325 0.7328579891215508
P 1.7090009442719285 0.5747101888517047 10.317783072232867 -0.27552764229351256 0.16776550971516915 1.953422623370152
P 8.537785482319395 6.132146625028025 2.8521879660960128 0.1698221351338817 -0.9663018148711358 -0.618110940584942
P 5.833630157995568 6.9039243180322645 4.932014357580655 -1.2883108885556394 0.8235287134352461 0.3150871497536896
Ni 7.529013416222586 5.658204514753998 0.5007447011087242 -0.2522265056737269 -0.5430894927727292 -0.31638915639456483
Ni 0.05271723392180747 3.7439869072217 12.47598111234242 0.29688682469557903 1.2801270671932663 1.4259412694483249
Ni 2.846115037750916 2.650962404108669 0.8188948867196324 -0.3879730392801383 0.2035174705037979 0.5589966509212888
Ni 2.392226369255354 3.1153348254223685 7.921547880058266 0.16347022477392492 -0.024466103462164317 0.1534560350710325
Ni 0.5126639072709106 5.512840379815681 6.014792018304002 0.31182544828328235 -0.2280617355020653 0.38384976114038416
Ni 6.210364375146263 6.538336083637508 8.671152995483078 0.3399867412088467 -1.0123019357503342 -0.8852842973764882
Ni 9.275584250486913 4.008655029968552 4.145359808931462 -0.2948790502369309 -0.2118010506688288 0.6146736327686189
Ni 6.872333151844515 1.6459025565364318 10.746474357954233 -0.3680701297086242 0.4056591437059917 -0.2911373238063115
Ni 0.0888311507692679 2.304522874816791 10.528340480033865 0.23980859162534832 -0.7458415458654123 -1.4062880139937717
Ni 3.992882764830234 7.8204412247659105 6.418869802858301 -0.31490203032607705 -0.4968605437121766 0.947943366968606
Ni 5.355201673072498 5.99918764244569 2.876392003963509 -0.75374280299036 -0.06782235896061223 0.6460858285313131
Ni 0.5870435219045719 7.749554639874591 9.78729491973468 -0.8639012037150218 -1.3045180944431212 1.6652999180204482
Ni 2.114835969956954 3.2579754231517035 5.502610326353997 -1.3616611193130161 0.28756451885338863 -1.6131085807288732
Ni 4.352091206584772 2.724563199026748 6.198633578064972 -0.33409197299096655 -0.2373894406608944 -0.3753064995560633
Ni 7.465569922744854 2.965251136279445 0.22663280636154814 -0.26451509323309286 1.8357416890161997 0.4685804658205607
Ni 3.516552895907236 7.496694729821478 1.896598560313916 2.1924740251145014 0.5184189866092426 -1.590103635193268
Ni 6.643182939001102 5.9388687550125105 11.586764867974154 -2.1080253704511183 0.07194152333530836 -0.2854739548729471
Ni 4.40664589540442 7.002717832133429 12.771422407396104 -0.9584481231546719 0.034780598014294936 0.40329244324602803
Ni 0.9576684346995015 0.06467841240399536 8.366647544745527 0.9020702585855753 0.30443635490806276 -1.2535410891746217
Ni 3.6025868247279633 7.326846741548987 4.23612728273013 1.0397610604025513 -0.804611307705453 -0.36978171308309216
Ni 3.9512275690243612 2.14222990414456 2.9238030039189127 0.6392258681866861 1.6915076867640677 0.41703087587804305
Ni 2.291772616718576 3.455478506714031 11.202125863889856 0.2413589668316037 4.14389915843865 -2.3321029244944547
Ni 4.514449467532561 4.572287324494544 12.153934029998934 1.600102912497825 0.07240689300750111 -1.7193020832685164
Ni 5.37817452288662 1.1486331635238267 12.623701293510152 1.5815290061503795 -0.6869643119132298 0.228345071070439
P 5.333487992858421 3.887849365822188 3.330623912764861 1.987237772147384 -2.092915768503189 -2.6388838683752938
P 4.52259209761284 3.60738099639035 8.139340383109289 0.9542446265962857 0.27316608403987147 1.0682301143765216
P 5.668175272549896 1.0031850839455065 5.486105877411209 1.411517637823827 -1.1723888458743228 1.1003246809182212
P 7.410241077800736 0.13339829286501817 13.121617992969002 -2.265364542626641 -2.3691764323079845 0.47181851314188417
P 4.043566673027527 6.576726765665491 8.288998752742865 -0.03379663683447083 -0.12260896778318883 -0.16102073479216786
P 0.559877170963196 2.431810930607822 0.813386252898999 0.5961352076447991 0.4421032454656387 -0.2084982115478409
P 0.16140222476997831 7.772583452782047 6.958477141415468 -0.46733682322144676 -0.3554316150090073 -0.7491274157055356
P 1.0886314002862139 3.967093105984905 9.356556317515468 -0.23014252929049395 1.5030995610978823 0.20311329308684373
