# total energy = -340868.48042702494 ev
CRYSTAL
PRIMVEC
9.24922018825612 0.00000000000000 0.00000000000000
0.00000000000000 9.24922018825612 0.00000000000000
0.00000000000000 0.00000000000000 13.53716867101826
PRIMCOORD
 96 1
Ni 6.888680415986978 7.018345233017022 7.069786620624982 -0.11777143718522942 -1.6291977729812523 1.4783987159170924
Ni 8.382383221198975 8.343628988846032 5.907755299813239 1.1059762227770435 0.9042958054819846 0.4669401020036603
Ni 7.218877574698196 2.313220705784793 8.810205898403105 -0.6703724689928197 -0.32695587616681754 -0.664392854370617
Ni 8.834068886343578 2.1687941334241296 3.0521982472924476 -1.1285610500560952 1.8139091665221405 -0.2603090255715453
Ni 6.032887074056607 5.47505735867755 10.774367510861559 1.0470331685839322 1.0776778900529826 0.7516347555084216
Ni 7.135828827133266 4.21720966683071 3.0802742550030335 -1.207349678220224 0.21388801510484454 0.9089327900333636
Ni 1.7032346380815753 0.7588781635435949 9.306722533527351 -1.024530873716358 0.266710815332831 -1.672643759980029
Ni 8.67353942173316 0.43495660069191566 7.821194189067987 0.43229165869185554 0.31552218040857916 1.1480911496692228
Ni 6.5087132037456445 8.896982081681218 13.140489131191135 -1.3497723382952302 -0.586691545733396 1.6369625045283358
Ni 3.3774637218293018 4.710516822569165 4.7202618009002055 -1.311240243658303 -0.29185106204388445 0.7298228018396528
Ni 6.439186816013649 1.6713063301860254 1.5653167419277767 -0.527875246926136 0.9674989205030305 0.6721336746583005
Ni 2.613746366312662 0.5894546488542778 13.127682660996415 -1.7318444387099012 0.15008943259164476 -0.7586692937576998
Ni 1.0719661148547013 5.834935264792251 5.212405404746059 0.008003329920450733 -0.9616440043841502 0.4255769656758413
Ni 0.8125578624234913 4.8773357568693205 8.583918178342454 0.06440433441799875 -2.0673397198062973 -0.43125036191153476
Ni 2.963958837389457 1.044930644408962 2.6512269810534312 0.5912447123217173 0.012123008515779122 -0.6182243262343546
Ni 8.593145200346104 4.233275562199936 12.798296658890768 0.2968261466609727 0.14441115125994483 0.14054935431169344
Ni 1.413678552630219 3.499525679910869 6.468330183727463 -0.4825793512028141 0.9525204448163274 -0.205379206302885
Ni 7.240169279441984 7.925296011497301 11.33102997465996 0.004969428190133377 -0.6490220283415015 -1.5858057791488624
Ni 9.041861865828347 5.2715375188937506 1.8643662269225838 -0.8465621982159421 -0.8786737340385061 -0.9171394942138722
Ni 2.963995834269985 5.943234383317451 7.691575618138603 -0.5129088554242909 -3.680678414268106 2.1751401618217443
Ni 8.443141348245865 -0.167617141997544 3.7033627679451957 0.8364058265082305 -0.554446055436129 -1.8039656821561836
Ni 1.504829617030753 7.580670069380214 13.227858189479708 0.9919465120224337 -0.50796848069988 -0.9165671666501698
Ni 2.6844011589007573 8.174451503412225 8.198935114023556 -1.0763478583876496 1.225243270671193 -0.24577457940079606
Ni 8.90230963247723 5.708590917789583 10.632484474037184 -0.9875319278945057 0.6386751378895388 0.9209133594340075
P 7.784670868610876 3.4645266309315064 1.2764848704127536 0.6346649882888812 -0.747586553580977 -0.9913075928868541
P 5.002070739569026 1.612120570561569 3.455768544388547 -1.0619504520153968 0.4263804354137431 0.35185983849734886
P 2.6621290368229813 8.499163874585188 1.2581223936847599 -1.2686321791797894 -0.9274282777343898 1.2296324008778243
P 7.656522923682475 9.108853967244183 1.480330282745199 0.6342762374908948 -0.017434136316047396 -0.3417291778212502
P 3.934904969962816 0.6834905450139721 7.564055695257163 -0.3372143206700321 0.49118663325585077 -0.361603548147674
P 4.86585747468555 5.020855905657052 6.621759946964584 -0.33382483537250895 0.04312022822824187 -0.349092817275173
P 2.2126261876295206 8.521315756801249 11.041835533715764 -0.08964279726981336 -0.5792502589640024 0.07321370517951262
P 7.0012434249930156 1.356897590240074 6.655481678643722 -0.4045304294181872 0.32555308228201996 1.235932374953923
Ni 1.646805146056445 0.9797698885792551 6.654060073509438 0.5669953528560493 -0.9173197285454782 1.0307966521204117
Ni 9.215460478485234 8.606778550820623 9.954746019023284 0.014363467810523651 -1.9472092954705884 -1.514311627763618
Ni 6.815990794969849 6.3602354729671795 13.27633427711336 -1.4401281024716681 0.10190824490072772 -0.9624461885704716
Ni 1.5993936436599825 6.659050027770634 9.805607893927396 0.2276624431811176 1.6152479956693793 0.6898015242517088
Ni 6.637702827706056 6.682496800805171 2.1920059762673136 1.510766847835153 -0.7133908815358746 0.5733161528677546
Ni 4.386313158503461 7.113917424640635 1.7146176532979869 -0.9163473373298798 1.137698236470673 0.9991700263540663
Ni 4.808188587162736 7.3946220064257 8.03624503159031 0.865277258126942 -0.7341646237481162 -0.34726759114097616
Ni 6.426182412508104 2.87377894110278 11.113203441176033 0.6188262214844117 0.6175825788852977 -0.20187042181867818
Ni 5.950291538278143 0.03562152149424418 8.520131856624358 1.8815613184534759 0.800164584788009 -1.4627399263339131
Ni 6.870126480402251 1.407472325921669 4.435033425548597 -0.3024548057016598 0.8470293676603478 0.5729070903547939
Ni 2.1555677486354172 3.0117310593710664 12.816652661164671 0.18092158748115292 0.48617940984924657 1.7220217961925246
Ni 2.788269900982746 5.519509110631783 2.5752973582240757 -0.48106728543366184 0.777406722266203 -0.7761347975323148
Ni 3.386925674024304 0.12159579738691621 5.255277389901752 0.6716029989658111 0.3959313748952665 -0.6713317475822954
Ni 4.5167549100245905 3.59663324207639 2.445015618211229 0.7604940056712644 0.398069761394508 0.3661340890281759
Ni 5.060017103695799 1.7742409010346851 12.447128743374343 -2.0539902950825852 -1.6797654586264748 0.40328370149527965
Ni 4.244337629477769 9.121821373869201 10.036091060239906 -1.3005876490404633 -1.5143630498268437 0.7256396169962406
Ni 1.8903926074519257 5.55114144348311 11.997951466729527 -1.0734301705202223 -0.28411178441809776 -0.4068007135096027
Ni 5.763207562668848 8.815699935161492 6.010882254440644 -1.264596318547519 1.4878264369888956 1.0628158853394858
Ni 4.693692491149117 2.0462512158957 9.8038209445979 0.05578676795231683 0.8918987173692123 -0.8716011434624409
Ni 3.8709466127502647 6.690617616081038 10.05187577931712 1.9198453016353387 0.8336948553349707 1.3222445651886068
Ni 7.823748823668437 6.124019640016877 5.059273466397189 0.4809641841968942 -0.938277561744068 -1.7185924587960015
Ni 5.431308547453347 3.5799661473985855 4.922141753954608 1.0110500656211039 -1.570323110132231 -0.33077062192721746
Ni 4.979835614371778 4.339123637390165 8.801447811860145 -0.5280837633925163 0.1656284087675083 -1.0080043368162446
Ni 1.6697802088642508 3.5017084958620135 10.61641580390192 -2.192808525635785 -0.5472258835386059 -0.7116103925966841
P 6.941622952022356 7.001761381320405 9.357107660196242 -0.33974634306326645 0.11893074760065324 -0.5811104521011927
P 1.3997862239920047 4.807994353539965 0.6326161346001015 0.8520463612589649 1.5486865056990617 -3.4065121710984947
P 5.370735404809095 5.404014098843913 0.8807495876904436 -0.13606560750872695 -0.33405263511259886 1.5946570588919053
P 1.1345185906071935 7.907028801736667 6.683652028399654 0.9026441288111745 0.5233611611058664 -0.5524297963370486
P 8.101521402671667 3.7461468855096354 10.433921291322108 1.9100406568400907 0.3760066109468814 0.27113774075593305
P 3.4733781345977985 7.071130532310157 3.865619986876265 0.3533554492062689 0.30910033604263537 -0.8203392599636711
P 6.781306219474974 7.792384718200936 4.565612990449693 -1.3676898420055994 0.11431921697057086 -1.6996812237137953
P 2.9667336034290472 4.8738118039990415 9.838651657770862 -0.7564928549316714 0.20899572000954972 -1.8259036198798557
Ni 3.5521907393422887 2.600686467486325 5.99631565765481 0.20338300180846264 -0.8346430781808528 0.2918353783146006
Ni 0.5997370068749853 1.0264044564846324 1.2859458976857425 0.2682478208026477 -0.6705794427973032 -0.6821144400200961
Ni 8.885152329132431 1.7600525973522478 5.810991808636628 -0.06376335839989018 0.1584383187769723 -0.9624667573957619
Ni 2.9669833323726102 2.8361253659455428 8.423570923368636 0.8409096279158551 0.08303480503499247 -0.49404107198551034
Ni 3.550803356322494 5.0894388729355855 13.417242446135822 0.45836881539488156 -0.8788380275305122 1.0043952793087474
Ni 4.4122202240931 0.25764257630801757 0.8286746285034435 3.1498445989342785 0.22635066634822953 0.6661885128184591
Ni 1.3322206709279862 1.2113981083441026 4.161989047876828 0.11522604505555638 -0.6565173082772822 0.9734703075951171
Ni 6.133888557897685 3.711545552995947 13.326598238998521 -0.3632007174314648 0.46394553815171063 0.5732559890537805
Ni 2.742689744172413 1.4721613715246458 11.061071136824214 1.3414609902160575 0.7095810208714812 0.7149489700516138
Ni 8.641518621636292 3.9679339350540697 4.950609928598789 0.13052179487236232 -0.9900251266300047 -0.3659312289887504
Ni 9.292968943191116 9.023548409967052 12.08372318470131 0.17820058900556407 -0.05408598321112621 1.9099416693683815
Ni 1.3720663112564997 7.940399987972803 4.377067638059547 0.8681476376962017 1.1296098030355837 0.14407587940771316
Ni 0.22369701350168578 7.806295545279415 1.6302814142906858 -0.1497785862194453 0.9967452189626574 -1.1218874946906614
Ni 6.9695278491605 3.7614635940481724 6.86942261475021 -0.8896652000530033 -0.6675535114867859 -1.683372716361759
Ni 5.44886356726382 5.754337560562291 4.291512351838853 0.06795477077341844 1.8139809003003404 -0.16651183981372614
Ni 4.29616100987718 4.060231902750967 11.153056480880652 -0.5430226440905357 -0.9876774523334344 1.9485323851573861
Ni 3.3516029023403227 7.02609607948761 5.92427070728088 0.5027475986205728 1.3125108828406105 -1.2068683677084313
Ni 7.5598593240832885 1.5800442751439079 12.98028986373943 0.3898648569862124 1.4999191064873716 0.20000611491642975
Ni 8.698234839485512 1.5434543603018467 10.509878661811857 0.0929968013437108 0.9683489272081516 0.7102618489885896
Ni 7.286110155837464 4.7970432769037155 8.818924213299496 1.0788929934070066 1.9082120882717846 -0.1299515241911891
Ni 9.16832645269273 6.917621225779902 8.18135049670866 -1.3085081894391206 0.9297965208562503 -0.471528235594975
Ni 6.000894021620134 8.85980021675071 2.8528229830497827 -0.9768302252062856 0.6464205861629124 0.21971002110326032
Ni 1.977242784491095 3.5103472674652707 2.0171735176448227 0.13645358697576498 -3.8707523576724885 1.4484638760308732
Ni 4.212742293506969 7.394732997067283 12.85217429108149 0.009030742743700576 0.17092282439722822 -0.7253421403604798
P 3.989419873420629 2.480391110449963 0.717144757386147 -0.772771794597353 -0.4856633894447765 -0.9391537937014343
P 0.8932850557352985 2.666605659366853 8.468460163435111 -1.4868805281358586 -1.4755033966471685 -0.06752051144947727
P 8.72568652483719 6.775275727948931 12.81379650198792 2.2379568400376493 0.15998817976259544 -1.306253331966673
P 1.3388801094230025 3.3308846492447164 4.192082310498195 0.689096013544252 0.7241537764793334 0.057049693825140455
P 8.673955636639098 5.214617818201626 6.771305037746278 0.4729179168536501 -0.7401072144847963 1.376115089954817
P 0.3550488882838007 1.7825744483735875 12.649008696428742 1.842256350206266 0.9587162892143942 -0.06218907193423484
P -0.04922619938635431 6.702974574177346 3.2890855736243316 -0.16362294830170532 -0.0798594926308044 3.462469146080088
P 6.344558044843496 0.7526164415142532 10.530211222427962 0.8358496968944443 -0.6069706076974063 0.9980652233256617
