# total energy = -340889.5854552604 ev
CRYSTAL
PRIMVEC
9.10119325849033 0.00000000000000 0.00000000000000

0.00000000000000 9.10119325849033 0.00000000000000

0.00000000000000 0.00000000000000 13.32051629651208

PRIMCOORD
 96 1
Ni 6.371836505304986 2.090990080497801 11.726943202194166 -0.20471740434917002 0.18475947317000438 -0.9320871166626399
Ni 4.787309634655941 0.3228302510276589 5.89506138829922 0.0005067644330894498 -0.2915666980342463 0.2409072240061657
Ni 2.6194326723869663 1.2518236450303157 4.7224290472068 0.8083440352750079 0.12935322848555786 -0.27833323006310773
Ni 3.5543072575591936 4.44219238125124 4.973054980463198 -0.38042453750891897 0.13939184366848253 0.3209436085344666
Ni 5.278473738413628 4.5764076801953095 3.1472518325288155 0.21512548705637144 -2.0007239795592766 -1.8189379871952995
Ni 7.386847098289144 5.964039333013202 2.5448311002763915 -0.5342461834494864 0.8824583978919188 0.3509874631947245
Ni 4.799277703965729 4.637522193819058 11.585558893215634 2.7269554645032454 2.4294634021235 0.10798221900894951
Ni 5.773542254136258 7.727786903927158 12.376024842845338 -1.1045526029566397 -0.18419794423957955 0.20677994330515354
Ni 2.074507819265841 6.6578688112122375 0.6742628225267037 -0.23819625283290588 -0.4600364329052916 -0.38222276705992236
Ni 2.63847236896193 1.6687857190673137 -0.01490502441721726 0.20050670870193213 -1.020687845821184 0.8099486607579663
Ni 0.4681790398475189 -0.06565327876807728 4.795279549708854 -0.24058660744195343 0.0727377939843586 -0.03591574006000266
Ni 8.662889018934173 2.3327541817489212 1.5440210993409509 0.19823539616925215 0.38288714011679864 -0.6068165986180453
Ni 6.925616819596016 0.9685034947537245 4.869181240047625 -0.5429264848323037 -0.9435336679366847 -0.013416016295589797
Ni 0.44904469086128357 7.364257936291506 2.936614722795876 0.8239457463680068 1.1088280904035421 -2.0194282408369997
Ni 7.926556967596955 3.7837665453450406 3.887792275690251 -1.3494995442498179 0.42995812546267237 -0.5295066118819719
Ni 7.79385246675587 3.8613633202007493 12.784858641064412 0.20468963643502813 -0.28959054814448193 -0.5401833748695278
Ni 7.854193378941344 8.951888313887045 7.293089334328195 0.14676319643188918 0.2816101010421666 -0.26661131364048923
Ni 6.954986370670303 0.5220581047250461 0.029326775465347243 -0.46777288231760084 -0.3165151404494678 1.3800085114719525
Ni 1.6114390995076349 6.631657374244791 9.09523575028012 3.0566945598421555 0.9355959011468468 0.7654276955274559
Ni 0.1716812716594123 4.873497936073202 1.4388822930439629 0.847230170817244 -0.665764280796847 -0.6970445789673674
Ni 6.434671144479725 2.017215806866511 7.147069787555383 0.09183723381797086 0.5590177339672114 -0.5637328800546936
Ni 3.1335135811043853 4.242639614949777 0.21779883881269024 0.8019556152501609 1.2914437777576662 -0.847509906841192
Ni 6.175168817308621 5.704200261686616 4.881170242102214 0.7219068894266857 0.48866309550304876 0.7628175115981185
Ni 5.326446128780088 3.051539132227377 9.255547811154901 -0.4527327001550267 -0.8356630348049351 -0.030595099178037634
P 0.6409679267426736 5.486572525309684 12.596280093754388 -0.602635213546846 0.22953266362063696 -0.22250712423242322
P 4.044661355105039 6.273206872521581 13.013318617815873 -0.005808379151660965 -0.46944718469623026 -1.7513441993057255
P 2.152696171691996 8.749759909855793 1.0847493974656677 1.010578268191008 -0.1069190678517578 1.1219193763698614
P 6.548081115330884 7.816714664555253 5.7610563269224935 -0.3281568384534542 1.2499011784291894 0.4448376136776661
P 4.678832510622961 1.1736261914107697 12.682663160710227 0.7978089400716389 -1.1419945498531816 0.33803655946101135
P 3.8151747637390176 6.346071026813723 7.935444282943729 -0.00028384978900596275 0.0048866386683399715 1.3964499448574275
P 4.5635749975133315 0.9289588094677693 3.490561588925969 0.18019782194125097 -0.40564423130765626 1.1209878656945274
P 9.49163458796842 5.383028248094883 3.580075466408475 -0.057516091938597726 0.3639213976475732 1.0053242188809202
Ni 1.3581710898096915 0.8936479993475278 2.6426971429342525 0.31202882254334 0.6645982855132038 -0.5033160695295332
Ni 1.9826585755590838 6.260574416094214 4.961932412019477 -0.6150559558087021 1.4276837060607284 -1.0962214573831248
Ni 6.047206038224494 5.779430726260541 9.41314316580233 0.9054738849504858 -0.1321449322980821 1.102764143597649
Ni 8.50228936034822 2.4653130634957425 10.564262105955983 0.5393624216301293 0.5236437253432917 -1.133907659079989
Ni 2.1399089949769747 5.20539115548009 7.028437551936195 1.0360671564907318 0.6742892875487226 0.7174959048431837
Ni 0.7290611079367696 9.178553535301708 9.032335582512962 -0.2617334167228976 -0.6841479255103573 -0.46757696425671086
Ni 1.1932210607826135 0.8326982173241644 11.256848361137742 0.14815699145562225 1.2914386355513434 0.9705189382762769
Ni 4.709339710871181 6.612326439481301 1.6923587200705712 -0.014836036571567996 0.3786857004409414 0.4320692582684043
Ni 5.584856312744214 7.896131678089256 8.042901163197525 -0.20901911704831744 0.2029196890187989 -0.008543775804953028
Ni 4.849370672392403 2.6122791343812675 5.051419896041148 1.5440343516390311 -0.5054719395302715 -0.18672405309554296
Ni 0.5579604924157334 7.385327198992768 6.9287467200033435 0.21219057279776363 0.13832046498117467 -0.06649232729527903
Ni 5.282150620543783 4.753708028654619 7.487075810751432 0.19269929684237136 -0.33711918985306455 -1.4960724790477717
Ni 8.439345506852783 7.129884004074262 9.299638542539899 -1.6671770804385029 0.5412773792646548 0.14714371969975948
Ni 4.580366699320601 0.4243376811614487 10.355235907453336 -0.7139017597340221 -0.7512241503335643 0.7445102286484985
Ni 8.389571080194813 7.05615523640993 4.851172708683915 -0.9601594494188237 -1.017772729056918 0.490195215876859
Ni 7.19654114447342 6.257543718694855 7.097503778226075 1.0348242852225662 -0.7050795334567018 0.4449679686079433
Ni 2.5890073828792683 5.277882160843181 2.669711305158826 -0.29526085905638183 -0.21923796656284822 -0.1344013324324266
Ni 2.6216624647678772 5.343583675936235 11.307706739928639 -2.058412592519997 0.5716030268313897 1.782636067440472
Ni 1.1814168129538716 3.348829614359881 3.68205706871796 0.8009310306403884 -0.7405072781366925 -0.12101282694066255
Ni 3.5262209747531044 2.7015254367780632 2.830370121501824 -0.07157719801735415 0.6877801229463059 -0.327092658854998
Ni 1.213826162620911 3.3890477879568053 8.262530252001241 -1.235526654875072 -0.5277230376189879 0.09456723115462423
Ni 3.6082500307904612 3.13792765989925 7.24221821386655 0.026005165814510053 -1.5015445579059368 -0.012011936859211569
Ni 4.281820252500073 6.975263829546507 5.8613332757097565 -0.14392109899740377 0.5520459306350687 0.6222802414712832
Ni 0.8346121982943914 7.503979457237417 11.731485607815852 0.30439573147811444 -0.36952023189158945 -0.8335989531870547
P 0.16563534888945602 5.474131193943539 8.094372052303669 -0.7876445979441273 0.16276445695615196 -0.044456687651478276
P 8.624481982822152 1.7919248656539595 8.34315863437565 -0.34865958639249633 -0.4331077268352476 -0.8598429744852482
P 1.9830590280683087 3.3515235676037576 10.373871511041719 -0.37665375761257713 -0.2952338624731883 0.8633931537303516
P 4.219240446740297 6.269684710679081 3.833751209570356 -1.2529484498959453 -0.02794686292191316 -0.3445471068860195
P 6.763488160520295 3.923251435262774 10.606221337848696 0.4488626756766592 1.5936656415129136 0.3669974654697357
P 6.25282930051807 7.873415099384137 10.211361511962894 0.2659821646969226 -0.6025110292641559 -0.37792542523614914
P 2.2983880755027144 8.28268666500534 5.882313346715783 0.4327318315530676 0.33714875753941936 -0.9647817786821837
P 7.128309497617538 4.021890169239571 1.608612268840243 -1.26607393153431 -0.63366688604167 -0.08792118659301632
Ni 5.1555530204683775 3.042956706859217 0.5243889203526025 0.35730414944137173 -0.11706232693334677 0.024168112605771282
Ni 1.4506665182472438 0.9924123297931273 6.728219215889655 -0.7662373359129449 1.2461681937493183 1.8860399230501195
Ni 6.7378318963497295 0.9845762022830681 9.40519054301686 0.04574840987970831 -0.0028968619318208173 -0.9644987002241261
Ni 2.620160767858284 1.6194572508855238 9.29365814836236 1.0795591662360955 -0.36148064941656455 -0.389112295090904
Ni 6.201990034233296 2.206365909121519 2.6194927402633494 0.07038472037114975 0.06173887177069368 0.27426677330321797
Ni 4.11776214042536 6.923004777092663 10.331792143396237 0.0639001410880706 0.9333685544782249 -0.20161125462002052
Ni 8.449165694522184 7.143535794161473 0.2292272073543644 -0.707173439871253 -1.6839039062748806 1.7550558438293582
Ni 7.7204513420536305 3.9578177677635926 8.53212398240481 -0.21407570563561842 -0.4556642719795249 -0.49186797559359163
Ni 3.1309652469547724 8.53370667993559 12.48140392064786 1.3760166167037398 -0.6895678109743479 -0.006812394936143106
Ni 9.466606306141864 4.932409960896213 10.372992335760102 -0.5666621378863467 -0.7571615988639219 0.2191297231197581
Ni 8.663526102471575 2.375793725297202 5.69846377949197 0.704230298082529 -0.28511862841605734 1.1703895560561068
Ni 3.901490481863759 2.7464216237782053 11.446853065452208 -1.8393859706370064 -1.7893759572674666 -0.9864932022173464
Ni 0.9498460483012026 3.2293764510967824 12.546115225899921 1.3282889716104738 0.8394327862600124 -0.5240695000268006
Ni 3.229394653483565 8.738246900215579 7.81397520534442 -1.256465204799952 -1.483748153154464 0.8452151972697445
Ni 5.713174038370609 8.012781673787782 3.66502054480846 -0.7316739961157787 -0.21882247629198442 0.22345586129893774
Ni 2.9219745431063506 8.102610452561631 3.1626237481670154 0.5962053987611022 -0.026401887032296466 -0.1318942497398567
Ni 3.4997000972103485 4.548858367799317 9.344702191498444 0.23687727691116622 0.5437986030246119 -1.2881152276050654
Ni 7.6734618805734485 6.271168205201891 11.636883253108172 -0.6164428088538997 -0.7761998464422956 -1.9112012528070954
Ni 0.21902021896582607 -0.013538935289156987 0.41370566704152856 0.7109578466143498 1.5652667786552463 0.3405513554630651
Ni 4.850335398891899 0.10286350794911946 1.409830373619038 -0.30921963522931906 0.368715733712423 -0.2407264754539273
Ni 6.22819237000735 5.421817534329346 0.13404965722434486 -0.7432704427041265 0.9693236324165952 0.9064287926645874
Ni 7.879076041673634 8.93179287887867 11.047756634042676 1.296966250237792 -0.3147847880219224 1.3156872236860633
Ni 0.023647630789067356 4.731956176448995 6.024243727297805 -0.7454998462552774 0.28969982002883654 -0.6886769237289624
Ni 7.475547329082452 9.201488542648223 2.652314373991023 0.7004492337735421 -1.0281201337295132 -1.2344871578669643
P 8.643221340015197 1.5625929945755932 3.6093003085078372 0.06836409039669517 1.0522332247276331 0.8797014039720721
P 1.9148455835992095 3.115029057326301 1.3734647351847247 -1.967161313112483 -0.29340632234614633 2.4984016198561103
P 4.751632956561362 1.006055018686947 8.18906723918394 0.8176128621714435 1.9345442984084102 -0.14715297567114013
P 8.639153106569209 1.604048930473758 12.514798019439858 -1.340254371502466 -0.17498028229605347 0.39155021510843535
P 6.601678043213275 7.693020345171727 1.2348735824580341 0.04334828507864792 -0.025604073721349454 0.28262748656308745
P 1.8397152321525903 3.273571846205781 6.003982650569705 -0.324443394157609 -1.264242534752526 -0.9985290503359577
P 6.835269272798851 3.958008892824814 6.005954879177637 0.23213719112301956 -0.4184879200395438 0.06714410194666501
P 2.414901553300367 8.403423096536637 10.404016483792958 0.1512034915914299 0.06670907129177543 -1.4248210398009526
