# total energy = -381165.00224616966 ev
CRYSTAL
PRIMVEC
9.32412329757729 0.00000000000000 0.00000000000000

0.00000000000000 9.32412329757729 0.00000000000000

0.00000000000000 0.00000000000000 13.64679694284032

PRIMCOORD
 96 1
Ni 9.305577368355863 0.6942788642975495 5.996948668462434 -1.7261108786602337 -0.6626838420993103 1.0252602956832149
Ni 1.8259430167053554 3.3353693523859445 2.635087617669384 -0.03811609014543113 1.0499516277823078 0.1873452316193096
Ni 2.6042648641059722 7.537732962369452 8.219397220593873 0.5147816469669715 -1.1707968187968547 -0.34125738039115416
Ni 3.1446817119087895 1.217254939937024 3.19081187828191 -1.0331733798827045 0.04311997111792573 0.5406880824200883
Ni 4.725745284975618 3.8658933056336657 0.7821950881152134 -0.9790321179536106 0.4174913604542294 -0.20743197506685565
Ni 1.4013877219106612 5.80515238975474 6.59639747170141 1.0604206456344318 0.7856476221187566 1.2094764947552397
Ni 5.9128553350949 4.840254840141622 11.545558069056526 -0.11594261150660677 -0.9391651065553438 1.094911994543082
Ni 8.294357575434812 2.654577832078919 5.567756487275421 1.3385972955150174 0.054896909148195776 0.3165588492032097
Ni 7.659804381328276 0.8427319570114986 11.729380357732628 0.9941787437870621 0.12167951399038399 1.7806398629460496
Ni 3.607298076989912 5.294964348877107 7.749660955152458 -0.6735678360016658 -0.11775421079404882 0.2084915266796216
Ni 0.39611765190724246 4.7331299904305055 10.818770649748288 -1.2327292946355932 -1.2245997235499233 0.8144727738805652
Ni 7.538553485197773 9.121631068843207 4.0691880928855095 1.418027928138519 0.4146029831628408 0.3052979315774097
Ni 8.512924343828777 6.299610635048541 6.90007949734909 -1.5673151765438424 -0.36045992146153405 -1.4657838553665594
Ni 0.005138524212359298 6.640351387754871 9.79612134679365 -1.7302428985507363 -0.21723199187641298 -4.685385054169686
Ni 4.250233657717589 8.806662192244591 6.784396035091205 -0.19077405479520046 -1.7140801727479447 -0.8762784943334521
Ni 8.339150662562691 5.339114071514598 1.1113422262222914 0.16238779034302356 1.0919529119147582 -0.9514873755661226
Ni 3.653853423374071 4.036879074108072 9.753774909553856 -0.0010505527517014166 -0.415445019448162 -0.5681880876125699
Ni 5.7967420307644515 2.0443885714996823 12.870143921824052 -0.5441181911475598 -0.8447421142880678 -0.5382712454484794
Ni 2.21773334310551 0.4665986980353933 8.442017185277283 0.9805490688187692 0.6665106720445683 0.473981582231474
Ni 1.2203598729123746 6.123235523451755 1.758430771356038 0.4576962148078892 -0.07454322262421355 0.7058904593937714
Ni 7.574125014630091 3.612752688973636 13.110245684812218 -0.4074036372009241 -0.3629955433991942 -0.49508416853804404
Ni 8.222888172263456 0.9092306701853785 0.46180889602507036 -0.7098661562120678 0.7616432887843593 -0.8331433537068749
Ni 4.034109809562489 1.1487692561413807 10.367812235715455 -0.08821583501529968 -0.7398123089521969 -0.8238225905265812
Ni 4.457788636790568 3.148532574728068 3.3948591222638154 0.14337191136215308 1.4885507167494298 -0.9236086468779836
P 1.6304441287348646 7.873979487766115 3.278233923577971 -1.5787501578536616 0.44080689525171823 -1.3966528048968527
Ni 6.626374527304269 0.3288515634064214 2.153655172275177 0.6763374283270029 1.983208853493649 -0.668777613701874
P 5.126244342303633 5.48452377046532 3.8033759930017523 1.2530988594308807 0.3261166680949738 0.17330443725552735
Ni 8.285490334415117 7.662750804211791 12.912844675739713 -1.5114811002933581 0.32264670726850236 0.606654104898252
P 2.1160910777472655 0.7626666448011773 0.7112263903515946 0.08545601288197541 -0.011252175875051588 -0.36465519048980427
P 7.396416553437284 4.221860351279177 6.749814727526701 -1.2204111393898724 1.6338969782291346 -0.8301631880326282
P 8.311467341229912 5.449390474816309 12.309956203507921 -0.6896315743327477 0.7037556724389556 0.19764147133899512
Ni 5.244912456349534 7.988666201270052 2.434957437780405 1.0328298805003568 -1.81204434539926 1.1009813406656135
Ni 0.611594405922736 1.012441253040482 2.330954304466128 0.2020653114383036 -0.9476762293501485 -2.174258530547739
Ni 3.643447702051275 8.143045706594009 10.485270078589584 -1.1840017475229028 -0.044466972064123415 0.3584215508752666
Ni 1.1022512062494183 3.248207450122953 6.3221927286611574 1.1566336399225952 -0.3901271095086636 0.7018967648533461
Ni 8.815911722309298 9.084306604277657 9.95840864087555 -0.27482058892415895 -0.3566559743344116 -0.28359293580015027
Ni 3.2816344312539782 8.520654041836481 1.696555890802207 -2.3085608755084563 -0.18614478355330522 0.7136402785425193
Ni 4.122968702220416 1.6074508412957829 5.672605318550251 -0.2833458527863507 1.7724182463672056 0.8491770101309698
Ni 5.007361773427601 6.1287927007890195 9.731762519859538 -0.0512755103455246 -0.4752162259695235 -0.18145200606332623
Ni 7.4234471861566265 5.352689994674089 4.70856745308226 -1.3485297241373808 -0.442931912014521 -0.29025877785610016
Ni 0.9632098833412314 0.17117691299691196 11.832441754618946 0.05614569395363234 0.4890716437953771 0.9738302620376972
Ni 3.8072911922700694 8.567787483849685 13.056927551980548 2.0866276215016324 1.4337949611647889 -0.7277265814322563
Ni 4.247706820371283 4.515197262403879 5.512951156817418 -0.6526922781042371 0.498902770953186 0.2963998577568315
Ni 4.749419233397284 1.2175906083667918 8.197740079987726 0.29868016915057594 0.049996900743417116 -0.47141227884240106
Ni 5.170160961864896 8.219466219104437 8.86130155331232 0.5472564796662253 0.9845764448106075 -0.31398851737287214
Ni 7.099154186508911 6.7691082029399 11.031306575354096 -0.040133891906408294 0.5232202646526279 -0.5195875529960471
Ni 9.449718986571908 8.426601612640205 1.0764364391756787 1.0088270898278562 -0.9990882652735374 1.1266324655748146
Ni 2.290731902456918 2.922571776756166 0.2330965493413787 -0.9743905054165413 0.7526243731152005 3.207650711309469
Ni 0.20057027849689643 4.903136725984755 4.957184937651172 0.23686442139535982 -0.9886727263671682 -0.9690351546418988
Ni 8.221825222235859 2.688974522007051 10.353770106403509 0.7372723161391624 0.7128303810467144 0.06751382658125792
Ni 4.562368000909279 1.151752975517093 1.3358074348571176 -0.031026530288501403 0.9998806792678457 -1.0164861490350108
Ni 7.668438519271743 7.0057637700491195 2.8966693629257647 -0.0328584412909176 0.1244604191696308 -0.2804567041640138
Ni 3.052923016982591 4.020683072371784 12.133666873843188 0.5906947533555182 0.7058320953520102 -1.3569896819792757
Ni 0.008282618504515993 7.981551895383587 4.994550428358137 0.8081733140250985 -1.7255583485908734 -0.47359720230886176
Ni 5.664917579096268 -0.462299344897453 11.585338507633208 0.550157455363104 -0.1897139889618023 0.19228406368182369
Ni 0.7370243740038459 1.9099347171316527 4.219357756652798 0.8534586682254592 1.0207585511581194 2.041327869123568
P 3.06755256604663 5.31130953658218 14.049650149596792 0.17891561279471768 0.35607156258585126 0.13696909315960284
Ni 7.355381087898193 7.363166730644192 8.698672996326824 -0.27206359500431204 0.9659079218668267 -0.4725142536573282
P 7.734490606951571 0.45349830515140704 7.59751271247415 0.2660299872157225 -2.247106367747401 0.5383558347424857
Ni 3.669462005358265 6.167086874151675 2.4254859935871287 -0.32278580394952794 -0.41888207015416895 -0.87005179669745
P 5.320708252615673 1.2093853800835832 4.0236350897291295 0.38837773091772465 -0.5715099528969512 -2.888613061548464
P 6.40235314692658 2.6799580950185704 1.2668611393828488 1.1607528042972912 -1.2712063676648688 0.22977897530348815
P 4.688570006378854 2.909620569840966 11.185310318519173 1.319278283471431 0.5878107469395037 1.1042576974240401
Ni 4.025531616357316 6.390660696623008 11.944618414198064 -0.04834496696229093 -0.40520765799086994 1.7260100914163112
Ni 1.5089228330359377 4.499141122513328 8.582620298796193 -0.15287753685974317 0.12151804871185524 -0.12306610992526548
Ni 5.23138315380529 3.297923674220757 7.398938728722066 0.5173848889177735 1.1361874562531014 -0.9931425892130638
Ni 1.2048352080356222 5.349389255114707 12.94405438040966 -0.6042478094496047 -1.6432203125125893 1.4575406415211607
Ni 3.0380790130884234 1.5098086247256024 12.411379351974512 0.3644914112184304 -0.9643711735073262 -0.5196988817629308
Ni 8.546677669266522 4.63356700451221 8.486451293667772 -0.3416350754455471 -0.5385358119637758 1.4681978641246907
Ni 2.958311140403368 2.838514807468525 7.780298158667192 -0.42079497090616563 -0.952813550576714 -0.10544891106413454
Ni 5.569494503811773 6.2982959336986175 7.278246347562204 0.9278813061114084 0.17776967211573255 -0.5695332887865545
Ni 3.345122385095304 8.502145657584018 4.308348119445719 0.7931729839615242 -1.0907465503114828 0.9333060766714055
Ni 0.2848006764732509 8.09358123381853 7.68142702267914 0.006189159529847406 1.3049469544504235 0.2163596165737887
Ni 2.167933201900264 0.5862850063182574 5.935360038486209 -0.19343360390523462 -0.20783615248380982 0.2734422205193936
Ni 0.1711536026892892 1.5615202111559137 8.389354538295963 0.8654562069069676 0.3901129684412765 0.010739240794375052
Ni 9.199832488856014 3.043906589994111 1.0390084768442842 0.7841628100431141 -0.10018740555487907 0.8648342570522525
Ni 2.0392043590843825 6.069379388720151 4.260380168419621 0.6223573745661217 -0.49162320657263714 -0.05893894042805333
Ni 6.09011623838135 3.6091256051075358 9.50173267458901 -0.13908793927481852 0.09201232594325444 1.060918668316773
Ni 0.7719944974994974 7.095303323689633 11.636513956988198 0.7810923986479064 1.2000850262380107 2.8919948335365033
Ni 5.735044308548553 6.200112917991589 0.42315947357424377 -0.10537589173435401 0.029103345123859554 -0.013738689742331176
Ni 6.803159900315214 0.9474707636343496 9.705669893918937 -1.7536229680375734 -0.495299884093276 -1.6656943252453895
Ni 6.354678905776528 0.762658253090433 5.7249947687262335 0.9585242278082459 -0.4652902251050632 2.769629349222688
Ni 7.846743724339692 2.353100961532352 3.073654272169961 -0.32293467082256644 -0.8977340931040667 -0.30971405836723437
Ni 2.026318421030526 7.500576332018786 13.55966188889273 -1.0693434020453583 -0.7981640094182125 0.24594761464355064
Ni 9.824175768223785 2.5927215997711857 12.381943095508502 -0.5878256593378393 -0.07175511835611512 0.16838643112861967
Ni 2.3350681075553914 5.909452030181979 10.344544819058731 1.176931728049999 0.612698511320119 -0.6511907538580463
Ni 6.371508947880155 3.177176280734905 4.8854442024990865 -2.6061676090891956 0.2653247336185818 -0.3497376499480234
Ni 1.3728092847651683 2.8621421352749454 10.263824020998056 1.4702400913657003 -2.01659437093263 -0.9865397391845656
P 3.327248041210178 6.653759476699477 5.9270494476125455 0.7975531153070909 0.9383670361340808 1.1910175167191037
Ni 6.592276209313708 4.528129821072982 2.5356980604398016 -0.296510929413399 -0.2569671056825058 -0.35474153092051813
P 2.6640045204815594 3.1365604007330234 4.71955313485871 -0.9064673592120066 -0.6489754913742823 -0.07021939843787907
Ni 7.462067703826001 2.498202964422454 7.962769381913479 -0.8055083655984258 0.303169058159865 0.011820389673695772
P 6.369187241240929 8.265751165920172 0.49774126901938903 0.17581897614726494 0.13006542406123406 -1.0098213354203254
P 1.4882326039899836 8.293835424544064 10.053854094055362 1.0654080715466943 0.6566816017692884 -1.312719656417307
P 8.833851335055769 4.2436228544757775 2.97923260770094 1.0203188925175395 0.9467953694070921 -0.4109988107513502
Ni 6.62791300760737 7.302914247500905 5.256036135147111 -0.7223321498895625 1.378410313746897 0.19507833859750917
