# total energy = -340871.88962865435 ev
CRYSTAL
PRIMVEC
9.28055559455285 0.00000000000000 0.00000000000000
0.00000000000000 9.28055559455285 0.00000000000000
0.00000000000000 0.00000000000000 13.58303120556668
PRIMCOORD
 96 1
Ni 1.76026149631012 3.8608316771292652 1.2101844189908875 -0.285045866196593 -0.2817006038734439 1.347790274868195
Ni 4.808775443302472 7.716327034926324 1.0435706086063523 -0.12106476322452053 -0.47995785441956695 -0.11859239042462803
Ni 7.773253961506769 5.598337251695783 9.209349371301673 0.21668023313800105 0.35100854624064715 -0.883026354580247
Ni 3.662663978519507 7.763778514483841 8.553234524546045 1.2026895537403934 1.4275638926534124 0.2421287551180927
Ni 2.4742888646254646 8.059373483266654 2.090510058808515 0.37042114643930396 -1.2233121150867512 0.7684016905541154
Ni 8.163120811640113 9.166460212759306 7.341859410302423 -0.6222041368177091 0.05613823775446461 0.48319950128531625
Ni 0.3899243895765793 5.169714802377577 7.231144240964405 -0.3385152988696428 1.209019866833795 0.7026061322155447
Ni 7.427349102115447 3.171202888856306 5.296118750552282 -0.17746011129511374 -0.42860443964825545 0.7320257230282425
Ni 6.149203176220646 0.1808297650855341 9.524108686903627 1.7048735665480124 -0.4094412364562433 0.6504942420116538
Ni 5.6447214673868595 7.15410171064038 10.028378799075199 0.3188995815212443 0.3455056141445469 -0.04492719952999359
Ni 7.504776775486927 1.7955554483455674 3.07947666384112 -1.0025759667118217 -0.028953192699240463 1.032946608583879
Ni 5.65841028654339 4.9420442182772355 10.758480089274686 -0.6573919975727517 0.10804263993323972 1.0502994980400298
Ni 2.5556236518036557 1.3587753908656048 6.992191285712474 1.5038269261822101 1.23323888728216 -1.6335969304902125
Ni 0.22452261972210696 4.162820948555365 12.634201902878573 0.5315012737144975 -0.2687700118547049 0.3039002798989347
Ni 8.639844379391063 5.145566797329921 1.3205153733369863 0.9886711837052715 0.08272935797943172 -0.45265916660461397
Ni 7.150816394042812 7.771806194870552 5.686304851790023 -1.1390853466261868 0.12841220472852724 -0.6894323138377482
Ni 6.146094190174926 3.779431926063551 8.895906966505354 0.883456243028814 -0.9409288833239859 -1.0360465876654414
Ni 4.320608950792199 7.09216328416534 12.356034889006981 1.926740228982959 -2.4494969237356075 -0.6931298172939934
Ni 4.186003775845543 8.515160118124633 4.1424575539836646 0.4153509170724589 0.09237202327551834 0.4734748177983846
Ni 2.379246697180022 6.552034962192413 7.056452635194212 0.036651589784762684 -0.36611480575446625 -0.8787675793038929
Ni 0.12844103007630434 7.455125804309002 6.444034355297301 1.1737235055253463 -0.37574127310063676 0.7135315208787969
Ni 8.73161979134966 0.5342871404291165 9.58970086802404 1.116530344143806 0.7078236718607422 -0.29199401537965197
Ni 6.608590666558444 1.3820695848201072 13.182236329962992 1.5835501503454663 -0.6816297870741937 0.15552962977060955
Ni 3.674255392164596 3.8903531237305686 9.808537291476854 0.1197586428185873 0.0708284927767877 0.1057643854220243
P 6.487952727429131 7.7652170005646965 8.017017028601973 -0.20562397532383941 0.046147702200656004 0.11490748537387306
P 1.4831162715837023 0.09915716569222577 10.463144047986427 0.04289268559846806 0.5054122899369295 0.6581800406916858
P 8.098797282437461 0.3850799396784716 1.7163793183441958 -1.1342262187616725 0.11067699223229326 -2.177355681415824
P 3.984448674529254 0.32851495475708004 1.6721797453849474 -0.6675522259352051 -0.3623761646476404 1.9114912732436886
P 3.7732510761935516 3.6391470512363555 7.6041334731194 0.8184407573893775 -0.5249184782906573 -1.0816957529631241
P 5.897226817631523 8.670442370414168 12.240796376986324 -0.10478556644852277 0.09100471061434649 -0.24232570162024716
P 1.489928199218206 5.986923385189399 1.2285079474943816 -0.3568066409796629 1.4134076557576882 -0.0829342749013862
P 5.497030709382098 6.653517835057945 4.301284050365322 0.06253539953006004 -0.011642212224618658 0.5416257637430092
Ni 6.585732658705879 4.038257334508619 1.3158221964912526 -0.5991382561371811 -0.2759968686204473 -0.15958477367658966
Ni 2.3877848081115527 1.797996234405342 2.4572516210949162 1.16892428436449 -0.2415901090058033 0.20347684707384955
Ni 1.1066134211692749 5.17728773555163 9.704817804769478 0.34099307098617404 0.5256000777387142 -0.17685230250778575
Ni 5.088463540197629 5.686715980392487 2.387801513111201 1.3935402274097999 -0.6356672043011503 0.22872019502167062
Ni 0.4760878497087656 3.2871634280839985 5.976628465128152 0.14998761690645782 -1.376790775865603 -0.9743971902847605
Ni 4.926378640828948 0.7282563157938478 7.7718164034814485 -1.1404392895509197 -0.1939336834701047 -1.836436401090379
Ni 4.17147042615122 9.251423697083398 10.863137840128994 1.5562013260188683 -0.625427014630381 -0.09668324905636252
Ni 4.735338408735947 5.454470082499489 8.174702944729843 -0.6698991289008269 0.8217142859343267 0.6622971481838529
Ni 2.626332203094235 1.598334366382566 11.853883527624182 -0.9987717624743832 -0.4258911544821504 0.7295883172313435
Ni 0.5741591904238293 6.055803667073988 3.3215673748603876 1.1477445649630815 0.5066595320804693 -0.5327924817220954
Ni 5.029448488661102 7.046122449022596 6.531251158462888 -1.1060423001282886 1.3074869472634578 -0.5975454577287644
Ni 4.940624293307101 2.636113908444054 12.055021003949253 -0.01790310553266594 0.6065088375696394 -1.0174289725642542
Ni 5.332737037837652 2.0064282272436573 1.481542289394585 -0.3483819072510774 0.5997738328386509 0.34700045352251857
Ni 7.387219980737251 2.0116253382454587 10.888537792094764 -0.8052926500431937 -0.4675304272894915 -0.37768528420088504
Ni 8.486594568725446 5.52780503095705 5.127675742706219 -0.7743447955114278 -0.7176537705772866 0.31262017627043576
Ni 1.5282754539672117 9.04136760705702 8.154789657093119 -1.0315451002506622 -1.6661589235866336 1.1352330627596319
Ni 8.556579236697917 2.5755675652730683 1.0641873623393912 0.34015283447306577 -0.1329021221790808 -1.0386796544129142
Ni 0.41208357161050985 7.229914567379158 10.749651496960375 0.16899861079132183 1.443128836971205 -1.524315790164181
Ni 0.3606024749155233 2.6827672602405817 3.382772637461959 -0.05785881998999713 1.1732799902300244 0.1753034699634271
Ni 4.898416327528185 1.5721167974895502 3.7924228474569825 -0.8274709859124458 -1.2957557748694586 -0.08446716660614485
Ni 7.411497913559953 6.504499957636652 3.0005594613343023 -0.47298193732236604 0.6231348761620945 0.44852457561095016
Ni 5.4947476927634495 4.809452923843779 5.900427681175311 0.9583699616185688 0.588369190546135 -0.3893128411374844
Ni 7.191706520960557 3.736147415862834 12.573023553887547 -0.8712712709268478 0.02397476564804258 0.2327971933045217
Ni 3.284472067029494 6.404372045853732 3.623586344063641 -0.6665263557738521 -1.2021246823758587 0.25981408821299773
P 1.8608163136396156 5.518292461712682 5.0527649559484695 -0.9146234126602376 0.5739686988500889 1.4687771336669284
P 3.4221305446897077 6.425318259302064 10.178348861476465 -0.03728948047907771 -1.2535470027118927 0.8500419292344263
P 0.5837580688330493 7.021677466203409 8.563122956282507 -0.16371885044962126 -0.4834416992031093 -0.31554763432987587
P 8.862689074704017 7.865586206786986 4.446133102318742 0.1661367158624945 -0.04241394618983663 -2.06649742641066
P 8.582536950040843 3.758559957058102 10.68559339164103 0.18637438306560805 1.487816923907199 1.0922493601092542
P 7.927431827708422 4.185177806418471 3.2380043263401737 1.9602324472031334 0.9752356270256558 -0.36907800214784825
P 3.2391643957602185 8.524440673484992 6.375738748400415 0.0036041724114905674 0.5359834778555673 -0.13126921456134813
P 5.258056408852839 2.1102126778385584 9.921100219387121 -0.44105012161077584 -0.04415252614749815 -0.11091276239218319
Ni 4.844431336996974 2.603362828577345 5.872786475090017 -0.27840419251035925 -0.5121416382409631 1.360754805448663
Ni 1.6651079622003533 6.066030839081104 12.145402476492723 1.6478410991140526 -0.647973018251697 1.4389772766966766
Ni 1.7213574082394927 3.4218892502503384 7.984784731779908 1.4030723352699515 -0.547451883506483 0.9564516615499333
Ni 6.111254985352136 9.049469531886615 2.6339942295997476 -0.18542667444035807 -0.23914319012720753 0.3097076306093311
Ni -0.07258415152890821 0.4939297173890569 12.314892330983435 0.6663209246312654 0.4614523394162117 -0.23464195982274427
Ni 7.71677250158362 8.380721993174465 11.06942324051246 -1.487680912549967 -0.34405834017505904 0.9324614692829231
Ni 3.5254138452951493 5.4204661276591315 0.7328000756982798 0.060487772972411945 0.9370354618068507 -0.22311416168880283
Ni 8.703787405823942 1.0935556797772488 5.098974697198771 0.3922264152398536 -0.9908188261758935 0.8661113239924632
Ni 8.817873272868841 3.236909220807651 8.675142043648655 -0.8901254275188735 0.07124732548176117 -0.13943786641506953
Ni 1.5325537899883377 3.072569146486404 10.450254284646423 -1.4268604388284845 -0.5721653270927629 0.4737049315313197
Ni 2.6319190974211715 8.341771502327035 12.20438040580781 -3.691192683535869 1.3064605628814727 0.23711176151947552
Ni 4.318669314721883 0.7484517323135262 13.23739716685836 -0.1806595920690179 -1.4058087603645077 -0.34233261573320395
Ni 7.1084042560459695 8.254525001384295 0.47561361332985125 -0.18983483081038274 0.7370951671313499 -0.6955857350336536
Ni 6.70938677832731 6.077696497169076 0.16027055079572955 -0.9159822406809773 -0.7973399708550203 -0.40898512275543114
Ni 3.1876758746209437 1.4102360703387986 9.41223901647878 -0.9210347155032202 0.4919232543115593 -0.6895135606976448
Ni 1.7573659630376877 8.061424486001293 4.58867408015404 0.5461948711709304 0.5630823909548883 0.32876516146141443
Ni 7.639140655994213 5.8652274627490035 11.513778087277547 1.091903289623745 0.41307780476756606 0.6653544469529379
Ni 6.030903937042142 3.4982032569785755 3.552112146955832 -3.4428138337430063 1.708239911917084 -0.046050000280527144
Ni 7.001733552733997 1.9141145430741606 7.651919052669892 0.0880029476735452 0.12882049591053946 -0.8091747587064194
Ni 9.221085561610384 7.725607590286683 1.3562668567516996 0.6192684512281529 -1.1318512907715925 -0.25967164909786244
Ni 2.809418999243409 3.940616611562276 12.5903828326891 -0.5169904816928322 -0.8012547325283943 -0.953051891839765
Ni 1.5367486010112201 0.10327309199454524 0.588191390128693 0.09333541563005215 2.0576407473509786 -1.1419431277899559
Ni 0.42439422829602685 0.2581971148471716 2.91290832817785 1.655816146899729 -0.6138187409674912 1.9831903415508878
Ni 2.4221321435002436 3.6162983239391506 4.305902054712637 1.3291706028844785 -0.6815310567128005 -0.6165844766380865
P 7.603818862292683 4.441330414919756 7.023105743673368 -0.8464007329374131 -0.006281462133337569 0.6837643169186933
P 1.1760876585969267 2.261142349664086 13.559980918684635 0.35055346098109946 -1.0961533231493508 -1.2083547224459705
P 1.6823326729491805 1.5228092068599601 4.933560862622331 -0.4261840031322209 0.26562760957098125 -1.2321255996133234
P 4.8887181471766095 4.6865876514279785 12.776090457672039 1.0866626100500962 0.7963850631409187 0.5333473257843008
P 9.042342065369859 7.095179464657457 12.824160950272093 -0.7798225307965473 0.05525017872255646 0.27744388547961896
P 6.4530856809402595 0.9577161909676659 5.342490901521391 -0.41781891899697715 0.36643979319405273 0.1138484479817394
P 3.985061191183038 3.637420867939329 2.408692043227371 -0.33226006198855035 0.19926692275756006 0.03603452502605407
P 0.2999911678570149 1.5435141258689222 7.515491176650461 0.09706917164087153 -0.02865597317379581 -0.22523429335559922
