# total energy = -340871.2702281685 ev
CRYSTAL
PRIMVEC
9.26418200366885 0.00000000000000 0.00000000000000

0.00000000000000 9.26418200366885 0.00000000000000

0.00000000000000 0.00000000000000 13.55906680023926

PRIMCOORD
 96 1
Ni 2.576924889697078 3.0894750279174565 11.260290008441716 0.5261150697019197 1.6477518818343557 -0.42299532099159404
Ni 6.427285720895381 9.147629413502298 13.020391963408454 0.4270676912887548 -1.6772936000472145 -1.4890957906196227
Ni 8.30041069734006 7.535328219573189 10.86357827663593 0.684983276927459 1.1652846307293738 -0.17975070710150334
Ni 1.0926361638648718 7.422555331011632 12.039882048195372 0.04773330152022102 -0.13584423552654024 0.4896105470179825
Ni 1.2138950432193623 4.193246738652531 9.58771141375472 1.1773474754311788 -0.3678600705803471 -1.4127000881677025
Ni 1.4213849294522694 7.716628263042314 5.004814102884148 -0.26606598265998044 -0.02981708336143252 1.7431994587114046
Ni 3.0430244189264397 2.494112366009264 2.581565318505135 0.25819017945632955 0.377181347981273 0.3956534386435315
Ni 6.219573494292353 2.758706670634797 9.032928648648154 1.0811961876188863 -0.8011182069505299 1.1029829444766746
Ni 8.936424590251958 2.543592362543173 5.539258282633937 -0.06266395468812433 0.05355376485674002 -1.1128613799326512
Ni 6.7439076721291205 4.028057107835058 4.931364888033036 0.05307219723463118 0.8409867610106935 0.038006046930128094
Ni 3.8668047544051354 1.994068873608166 8.537425531888559 -0.20557512436377498 -0.5049083537173175 2.0718175530719933
Ni 6.274602735897187 1.5475352969494116 0.9780428635229534 0.051974336184762104 0.5905885667949571 0.9387938392588542
Ni 5.1760745522241205 1.6976057825986888 12.192515933028496 -1.06420428104658 2.256341256082108 2.1105057136708107
Ni 0.31786891014283236 2.6544753579587046 7.803446619065132 -1.3055779031662031 0.4389582720787537 0.921938201154096
Ni 1.26084591804315 4.437960108516453 5.154181437112918 0.0760023236682433 0.20470197773020232 -1.0972946358426459
Ni 6.736144287539078 3.5841545588893964 2.2254093966275454 0.5918147258925742 1.2838484819089115 -1.4002366655933691
Ni 4.832002829462583 5.089852809527793 12.290941382789816 -0.3447054868407547 -0.925087288306039 -0.37841213506458055
Ni 1.4907365965657016 4.717729143402713 2.5045762596780623 -0.4493385868718133 -0.20783769514570657 -0.7908458784902443
Ni 0.1435197824946008 6.397056694741075 9.004427392453326 0.18289593759870434 1.0771783247087447 0.02637514755941909
Ni 0.5176723044970306 9.04516755960508 8.69738182624432 -0.8629828056658105 0.6651860396958739 0.7556757583470147
Ni 1.6192585946774631 5.103536006472294 12.83952826291569 0.3041576473253794 -0.46245224143563585 1.290903846093796
Ni 4.716154232447693 7.35201784859089 7.9696803232039635 -0.03671946690822064 -2.7259463065124407 -1.3860989406404065
Ni 2.5043678155810745 3.579161164743773 7.32120425254681 -0.577209831495206 -1.5102947932947408 0.7719850370299995
Ni 3.3088045388592824 0.9736470091220286 10.614132762561276 1.3232182419557854 -1.2602976911721648 0.46373290792027233
P 1.6248263681125648 1.8563197501364022 9.381694532473862 0.3849681910155434 -0.025545709679588264 0.10741426232062146
P 8.70978563964242 0.17341344525730765 4.6286317985861585 0.49090201213589646 0.7741879582185892 -1.165124965223058
P 2.248833881037953 0.2437758346365795 1.950281716967552 -0.7775388769686932 1.2415196392337133 1.6000478908901734
P 7.417932504149542 3.2058331549472068 7.059094601557374 -0.3563237878059734 0.6664206834339234 -0.17017411915666175
P 5.328090516111953 2.6451463265957305 3.5620215014621053 -0.24546836101428696 -0.9963893782851354 0.8461495361585556
P 5.729183279627321 5.572479639602783 0.8390393697964261 0.012528985704946165 -0.6444860881443609 -0.07382459929063415
P -0.10356243872931295 6.968202784670305 1.0982845356841424 0.473403855351133 1.587390864247795 1.049635896314102
P 3.7216906061731283 5.307338748234035 7.724274918938043 0.2664575616714443 0.6709401685708316 -1.1201905666042127
Ni 6.409572604742444 1.6564450215801236 5.4739309762196875 0.020147678592468528 1.2633807009728628 2.334463197196515
Ni 2.214510086400595 7.847021625935923 7.46181230261104 2.0183843729535176 0.8466118205069548 -0.8099471180960696
Ni 7.5827515676834825 1.7901271691150995 12.329530406860652 0.44607945650456726 -0.690955435350494 -0.33257270813296275
Ni 8.375858196267632 5.3896695344532555 6.5053281172259005 0.13678063129788057 -0.15771172502359287 -0.6952221810466479
Ni 5.155276463435762 9.391286666608144 4.510613530126176 -0.34930004818997257 -0.8389849000893164 -0.2072599682653656
Ni 4.325020464677306 3.1926224312892106 0.43088266743868603 0.7372707734772658 0.5603372241095833 0.3982283984595593
Ni 9.092433416619873 6.188269823015799 4.183989041491638 -0.39714802091118695 -1.1739633894502943 -0.4023390781938232
Ni 3.4090800457836465 5.620366196817494 0.9689306140208466 0.8084301672309109 -1.685870800193264 1.3940508484976315
Ni 5.259220586467116 7.079234006999251 3.280508021088608 1.8632283244722427 -0.7492685692690902 -0.9560171451156759
Ni 4.7965488046104445 4.667943428859889 3.0744096150053717 -0.85666766208106 0.49992427023916486 -0.08265042511238024
Ni 5.108427494614947 7.629730235053535 11.065202082770492 -0.67334440713695 0.5331843178438752 -1.4862585782811435
Ni 4.6756326999932245 6.713280286145016 5.6110399447091455 0.02305071117187643 0.002661863102879287 0.11899785339316281
Ni 0.6831704325780469 8.2636226302672 2.8556748645536185 -0.8793838727316532 -0.4338564320758141 -0.27239603864306633
Ni 3.9767242748834777 0.8404808765293744 0.9929294777207325 1.3627355833241175 -0.599674074035993 -0.10799096075969788
Ni 4.1103693656901 1.4411083731183791 6.458847862852201 -0.5997236963270058 -0.39662248742502015 -2.668864216787468
Ni 5.815358701413208 0.6947237940604356 10.4157365974663 1.0593412965273241 -1.1445931638182933 -2.4272635662587034
Ni 7.292356515941878 5.925333806984082 2.321949585333885 0.45342149869193527 -0.11030906736991326 -0.11209161319163277
Ni 2.4275399535223388 0.7017497497562447 4.237763912841708 -1.317384408882828 1.7546907471804556 -0.027633445446552413
Ni 2.184132833332876 7.622003907191846 0.9670258981834806 -0.9206927587827692 -0.22112489917291592 -0.45550460647320906
Ni 6.591298800587634 6.714799612007507 12.484985235139684 1.2755723579430482 -0.9028667863449418 0.8828687459564601
Ni 1.6660797709520139 1.0862531424059945 6.859789620199529 0.6383889741076877 -0.7831636793546384 -0.47436647637471857
Ni 8.801732646869352 2.5190237516448533 10.394543854520977 0.36461379572890756 -0.9054656574203696 -1.1131565425755667
Ni 0.36816600753693424 1.4638704685094694 2.548101239965576 1.2654118724702788 0.11901225157086602 1.405426951545057
Ni 6.635257344596882 3.834630250012275 13.136389713754966 -0.15851725164402378 -0.33195101538856375 1.456881410670607
P 6.84967683903188 6.477710664002302 9.92361027507791 -1.4850699572896808 -1.9488368037716823 -0.7331387535867633
P 8.757246044481068 3.618978619359526 12.212733157599914 -0.8838514215847036 -0.9542744513929565 2.1066279758829585
P 6.827943067852597 6.2468750389067385 4.815163325680579 -0.13549996481324406 -0.9246360597012334 -0.5135863411072897
P 2.265277804244785 3.523325939297252 0.7068394913955874 -0.342476597510236 -0.10155677509857994 -0.02572645823182666
P 8.966922277686827 3.8279229821803056 3.402946230822946 -0.9511189364831103 -1.0194326332578443 0.38436372466232516
P 2.9555890683765367 5.790206447043322 3.6331657878096344 0.8762679528104909 0.35670816772858566 1.038738789785624
P 5.773855165657374 9.139541782539162 2.4577569362399294 0.3109587294076129 -0.41489017538595646 -1.196424803777604
P 8.702253859604586 9.07233014148814 12.262697670857046 -1.3472482863217958 0.3815555657895687 1.164595317971833
Ni 4.902929407531036 7.668454516182862 0.5994546511366189 0.3866394080703793 0.20455851017380253 1.5462161897816984
Ni 5.118330905267399 3.5699710961121234 7.2712258430165475 0.7574433917703988 0.3961599459663048 -0.5983265588691631
Ni 9.220936886367456 5.270782285713383 11.170352402309748 -0.718336398466608 1.8508870292980704 -0.31372832173295007
Ni 6.414139846512003 5.804695627829511 7.653944027777872 -0.431950730412669 -1.579814337452118 -0.07592853300751438
Ni 5.8141265651954575 0.21347454786198505 7.545634622146485 -0.1018694212429923 1.4972173912854925 0.4713315462031366
Ni 8.576872419220777 5.172053897197775 0.27702405773348004 -0.3693682796947574 -0.4315635222765793 -0.312104670086598
Ni 7.005454060847585 8.045321443537182 5.908037579025121 -1.1159055660756136 -0.6607249186007266 -0.10120967617180635
Ni 7.60885803280847 7.926313760430161 3.5666582245973277 -0.7224645617023687 1.153150566470001 -0.38262951558003777
Ni 7.229137737370938 7.849902786565401 8.268874495093089 1.9923936053167106 0.6687087081371516 1.1416335669693372
Ni 8.23302303682936 4.396947574411302 8.892984840439658 -1.2656846665156911 0.12629747237836958 -1.1152450496734794
Ni 2.360522860295172 1.6292361187866222 12.945166804851004 1.0268011578077736 0.09611709214024737 0.6903987915160755
Ni 3.427052559035057 6.803457834593073 12.58477993101366 -1.6402661149802717 1.6540701107428997 -1.8742555288206817
Ni 3.350196904430056 8.066554948883693 3.556149862854505 -1.5395765729779938 -1.8342054548773314 -1.7949467664870247
Ni 4.76321627745654 5.385102292683695 9.644767658400486 0.2612780743530339 -0.20346707688183668 0.6453114122591337
Ni 6.888864329265625 4.357741555813379 10.858778503895953 -0.33451543368163034 0.4439577821758741 -0.24344798815014845
Ni 8.492475720395856 2.494260592922678 0.8892076950594998 0.040035161545014915 1.0178871431475955 -0.5493262177110604
Ni 7.833125352803389 8.903620121477092 1.3366621314178369 0.5574879275862463 -0.4574522171178831 0.06522657320897798
Ni 2.557849938777153 7.722696302310187 9.755748854146155 -0.42132513237802277 -0.8023903887947342 1.675182724351799
Ni 3.7974252947454374 4.3188783119527265 5.585956245286713 0.04779038001040156 0.9357067156930983 -2.24127870532203
Ni 0.6603703540403942 0.5157527659683232 0.3705737684616979 -0.3233722725806173 -0.8927091290856496 -0.12285527946604004
Ni 1.1457847765057696 0.4423331964998939 11.169267566587202 -0.9720446308921841 0.21985580265250523 -0.6659671408362725
Ni 7.501198972759685 1.8733473168148005 3.5326660876787317 1.1353094245235222 -1.1352518318127096 -0.6420895628877265
Ni 1.411592688984877 5.603523913780863 7.203783523831525 0.7399056399969516 -0.09774742865481875 0.3313923146716164
Ni 8.336883782221918 0.41881421743218483 6.6937995640496215 0.9933649896365151 0.6604428685839335 1.6376919264951926
P 0.2182363374554 7.474481071616867 7.035542271434147 -1.73222573330872 0.15830924939827576 -0.4769638047882495
P 3.3913298729023564 8.654950945861442 5.670265860800005 0.22924752828005035 -0.3078448663689795 1.4090074698074635
P 4.800032137075667 3.364991803225161 10.844636729938077 -0.03338963120403927 -0.050063492315294424 -0.5767465187055422
P 2.3869443076111634 2.5489748523365083 5.334883014419136 -0.3134079622790538 0.5884092997554511 -0.2787451207895458
P 7.599417831260435 0.787622232787842 9.027030143912496 0.07620081283229456 -0.16084358578435523 -0.3148261827828191
P 4.126016569237334 9.111110007709998 12.579261257743628 -0.5338520333348612 -0.8848150710495535 -0.6316405996402605
P 2.203448652987098 5.6524202668432055 10.853138469840562 0.43291026611246086 0.8402403697629722 -0.37207333733074627
P 4.198712606084662 8.866896903678848 9.0392875832336 -0.32956503165489043 3.892017437698852 1.9612876279405256
