# total energy = -381164.3811248359 ev
CRYSTAL
PRIMVEC
9.29606819210344 0.00000000000000 0.00000000000000
0.00000000000000 9.29606819210344 0.00000000000000
0.00000000000000 0.00000000000000 13.60573546012578
PRIMCOORD
 96 1
Ni 3.2858161507205983 5.582521349933337 5.509982270631394 -1.3147004342927615 -1.0832132180489151 -0.6660998097593948
Ni 0.9797776990448758 0.32606702862660464 4.601078725075594 -0.2175217552026899 -1.376538807755797 2.2203496684788466
Ni 0.9889622144168154 4.939614569965743 6.832528314413427 0.21440866349500493 1.7499828001818247 0.16755956435195013
Ni 8.102769100916356 4.741124921968113 3.7407062331136673 0.7611023286792248 -0.3367515221010007 0.4840243111794567
Ni 5.2269281495209485 2.451652063807367 5.2182484106517375 0.3177155885154722 -0.6818835549562128 -0.4217771323137768
Ni 1.1036478076795897 5.069629379674193 3.972738883962077 0.5423698409978852 -0.06591922840062842 -0.47482670384058867
Ni 3.4523738044848136 2.8489288339847136 9.464190372263081 0.20160945484780762 -0.010817916551110402 -0.6533245123715975
Ni 8.282889718170106 4.329309101141258 8.882667389769164 0.8817392603377072 0.4815452535113449 -0.6333737802812834
Ni 7.958717228240668 0.6561230001136337 0.4514709885127055 1.1949986128540389 -1.1253050050126425 -2.940414876711104
Ni 5.338620408826471 8.003338355553737 8.173726919019142 -1.2458072108654739 0.9222996982585729 -0.7439942082440284
Ni 8.528891570687962 8.156351637964798 12.197351550647678 -3.0547484918593777 0.03943018097116435 -1.850906569682096
Ni 1.4515903439714262 7.42384935277984 12.284128487989767 -0.12016359156648981 -0.0682033964491148 0.7703675560312345
Ni 4.823404421519772 7.2144554167950785 4.852989158535155 2.3611790159248045 -2.791155139109606 -0.47321385082751405
Ni 4.31388692401368 1.6735990444903186 7.096506903597536 0.11589710298065202 -2.3849830603229374 2.117376729759031
Ni 6.161684990320577 0.8541199564971816 1.6704988057488794 -0.18025130088700572 0.05058336937450643 1.1874105160941357
Ni 8.676011145866424 1.1562542575680588 2.4439577081663195 -0.6496601761461328 0.5394117868108258 1.4619696238267919
Ni 3.691208388428009 8.74185519685777 12.333013721781692 -0.7463699075650565 -0.3937870748587541 -1.343467736233441
Ni 6.760872361589555 6.819484071528907 6.445403780306623 -0.6973662239728442 -1.52172977460456 -0.3238733805867519
Ni 0.8877029324411794 8.114528627176988 2.087663584212388 -1.2733830636012133 0.7676735541388392 0.18136613121773926
Ni 8.286738290400859 8.78616025785237 4.078427742430354 -1.501801411111749 0.22732871399078267 -0.6260312238732831
Ni 7.601599472645082 6.0476594178993075 10.97212790396272 -2.0247293413349388 -0.7739740424355702 1.125245869639933
Ni 0.17940389039628407 9.794337445218375 11.041598351155073 2.169371377658767 -2.408007546242569 -0.41693625928170774
Ni 0.49886513296691665 4.298808701409139 -0.16289221407681093 1.354189236416003 0.1454197950301173 1.4600952896222144
Ni 3.3407001373156717 3.6269911493699527 6.900829316227449 1.5027756020995602 1.860130145162893 1.204024727612049
P 6.260502195182641 0.6829505233037968 4.166294178964337 0.3272363835217138 0.23576733167643912 -0.0730946631031451
Ni 8.942250538834394 4.09993791461571 11.407157866274199 -0.601029559622623 0.7694339884733716 -1.5665135065781537
P 4.605458102800007 4.889406505670352 8.736610355184846 -0.26238390582270293 -0.9491391870489202 -1.354684430884867
Ni 1.5685906582135658 7.315317756658993 6.558576903274848 -2.641866862263018 0.29099745579433756 -0.8293581756328297
P 2.951185584077161 8.457990458601136 2.300839160736931 0.6207231813968085 -0.5484538424084361 1.1877023363029418
P 7.914598088609873 1.7516116487426654 7.892687255885519 0.05513782151440827 -0.01640466661026852 -0.22540681437772148
P 3.9690585705655677 0.16025306031760678 9.121066917721055 -0.14915715058536247 1.3865895071235796 -0.1483415966626026
Ni 9.186913757532858 5.925964589221106 1.8091952135401792 -0.9533966767736936 0.578407451347733 0.8141303029394817
Ni 6.972302136507975 4.352818857594332 1.570482408090276 0.05383967152827502 0.2272621224189054 0.6297629230015734
Ni 5.818901771874314 9.085437877168392 12.943639904958738 1.178137575432642 -0.8187132943244738 0.07179754155827635
Ni 2.893986876502722 6.313991771549182 11.107709199303478 -1.413986411079294 -1.4378297933557946 -0.5649343565619626
Ni 7.21616589334208 6.766412818230928 8.821291958756857 0.3734193098356795 -0.7027971651804285 0.14331611842355318
Ni 0.25294322663549584 0.3514294914699886 7.074206565616012 0.08147363119545968 1.6737714458265691 -1.5988325304258335
Ni 6.109348126409625 2.9500700558943342 7.429289411884757 1.4467291527279538 1.414148647688771 0.2240700978441689
Ni 4.876522155158703 6.473977105102909 12.33323217938416 0.10367947786853757 -1.7682756849537418 1.7546130998649847
Ni 0.4415706758901186 2.57799492658068 4.265765827026994 -0.9493698150024874 0.5254337273641789 0.11650079800292196
Ni 4.697349736860356 4.8510695204538745 0.833108983173641 -0.6138938171798007 1.1329152132597327 -0.8324771808777857
Ni 4.767228281446258 2.0207607110541757 11.74063386124841 -0.15302743217404613 -0.3671586736379483 -0.25281605962860976
Ni 2.523873217577205 6.623560138351779 8.608321825339319 0.2697922824716321 -0.6794404927323588 -0.22767195626281436
Ni 2.796173647005201 1.6992468966271423 5.3190531148928715 0.19163768834707642 -0.1915800956362636 -0.29553879530811683
Ni 4.5822179323244505 6.759068924360651 9.83630733388359 0.8805053879306062 -0.4471253812705783 -0.287223333463886
Ni 2.3987574358050012 1.5784537865633919 11.373931859348705 0.4619043393519658 -0.0944535883948954 -1.7251068628757515
Ni 4.463758135376446 4.387697705444046 10.799892211747917 0.1498742312570451 0.3950798255282486 1.3771093355472863
Ni 1.2170877278048746 2.7732030625071613 7.108792587317734 -1.7143830487003444 -2.249781857697035 0.7169341188024426
Ni 4.97710561297691 2.9187608982296647 1.8714007834418718 -0.37296859545150607 -0.8846716034931539 0.6935028843626959
Ni 7.072718265098757 1.2289123265428374 11.678577958044583 0.6960508475955303 0.5282488282154708 -0.33548653934564804
Ni 7.37913526478487 2.9105896542904595 13.304844212130744 -0.17679239580412778 0.901849400824021 0.33742643668083827
Ni 5.869388718215411 5.271103065560886 3.7797822557512677 -0.8660491032959601 -0.06386260298191582 -1.424783758805114
Ni 0.37248043788674734 6.196350028601916 10.408891217205792 2.3041624893304444 0.4446920892387373 -1.2921747423864196
Ni 2.1569295179045547 5.361079709574049 1.559910919344355 -0.5438199431808506 -0.3702031168912269 -1.1142315208073004
Ni 2.3626793951587484 8.442187142677758 10.261159960740413 1.2077913937433329 1.2433590064352973 0.4872777851197479
Ni 8.101793013756383 4.2357162866020985 6.200746139249072 -0.5874073408534981 -0.20057895670076423 -0.19267872801708108
P 9.34236260980976 7.577708577396211 0.25594957508821375 -0.1713833089734145 -1.1984932562708586 2.3964015865725243
Ni 7.811820758698773 1.6278530929262338 5.486893626067338 0.16034273488853676 -0.4667722089672283 1.237929350779294
P 9.097457693338349 6.485504229658785 7.767486879892783 -0.4454999298520134 0.5461994991566206 0.2200437502935952
Ni 3.7112321193097486 6.070537041715445 2.9291511136458763 0.9501285475453829 0.6312423357605774 1.1542612830356767
P 7.5555653429671015 6.781909363904028 3.4800072967870688 0.07455016460274902 -0.40044288961237484 -0.7215057973335252
P 5.495091828604295 3.8091290134209808 12.70087215456426 0.5941122636774994 -0.1893211243987578 0.080080607502675
P 1.213387892665166 3.9215370699771506 9.65850794485694 -0.6308746680085134 -0.4189748869782913 -0.10570447871836636
Ni 7.577689985259831 9.035508694918706 9.971806823824274 -0.5419605213746086 -1.5312690815535628 -0.3752345086675473
Ni 6.536911486750716 7.286025845791602 0.9172607108588108 0.4647171262104125 -0.0955067122497581 -0.02347160075937893
Ni 2.1240400286475474 3.9058453068720556 11.715082688220766 0.45497650188388095 0.3954354090954545 -0.5779348825866885
Ni 1.6435355599631392 1.0620943828692955 2.705133532791077 1.6811746802691756 -0.5827772982806545 -1.73051826369931
Ni 2.7860595248142395 2.306298741585049 13.548591768112473 0.4457827511997548 0.6479185108646777 0.9740866010228771
Ni 8.824804013319124 2.1699997897800074 9.929343313938157 -1.1320803760632634 1.604180167890992 -1.861773080082955
Ni 1.8819053404968233 7.312547528338306 3.995555153728159 -0.8285963577661407 -0.8406730864250167 0.11639949653836729
Ni 1.7046014319047105 1.4624016712766548 8.951784586370286 -0.21926239204288042 -1.1708945207169834 0.3620684035992345
Ni 4.202966238367945 0.8947698034793865 3.2550768420359892 0.1513788408270296 1.1470069154661084 -0.48401865475250194
Ni 8.715435771061157 6.899058415237212 5.30867219554485 1.5111301447118426 -1.168248341343388 0.7324293862245644
Ni 5.921251482648662 8.088211458130468 3.1263262976014086 -0.1718738754565879 0.6421924070141779 -1.0185656572718587
Ni 3.705171082849723 3.7780057771201165 4.023963938117479 0.8461891311472395 0.050829423947041485 -0.19269132642257136
Ni 2.6899939561364805 -0.015318990770667578 7.174100255174504 0.35988348013277377 0.21363450433314174 0.5801779129845944
Ni 9.453450624682917 3.543670490180989 2.0503575329582064 -1.4226816248604466 1.4319383675720243 1.6556675371370069
Ni 0.1901575820787334 2.184668985384178 12.421233408906902 0.029763604415677776 -0.11762899807009419 -0.3801818253704936
Ni 1.6261798006519939 0.36601595206726656 -0.5662746418414957 -1.0110757766527168 -1.2353937288416337 1.8549614564777603
Ni 7.964090355654617 5.626036245131769 13.441895215852375 -0.5959434033489671 0.6995298072830662 -1.4263107369726016
Ni 6.694805204961645 3.68747136901554 10.544458568444261 -0.06122670802096552 -0.5947707231971048 0.5723746148900917
Ni 3.3424849824081946 8.765020998787802 4.781871448059496 -0.9608839862896742 1.6486281137917218 0.799736753221971
Ni 5.6288994341343574 4.754083641025283 5.945434274438708 -0.42681469473768424 0.0711874187781032 0.8629825485554944
Ni 4.030868127962357 0.2101413398672546 0.8544155714656307 -0.3526828486192765 2.0072808068411883 0.043737550097266605
Ni 2.4331157038360636 3.0757807860307125 2.3100906077998404 0.8020384047719542 0.8313731491803295 -0.7808219185953391
Ni 4.123020051932032 7.198085040712097 0.8240127804495083 -0.600921573289849 -0.04039768709075623 0.4128554043441148
Ni 6.071159878284191 1.4055190300206835 9.256254059770548 -1.036667766189208 -0.1944373625794006 0.22715670718929262
Ni 0.6858527557927843 8.48409381807928 8.861850704270799 -1.5035394768487784 -1.978472367249928 0.0040664567598897704
P 1.922138723624106 3.614478641585913 5.2963586236200815 0.2743539337003856 1.3636118152814838 -0.5730233042176841
Ni 6.855357598674976 2.7197785586179535 3.565532983350754 0.3579451254594803 0.19204675086003697 -1.3807199357166802
P 3.604076341281054 7.334904572335791 6.478642801727583 1.3931149669469234 1.5788054365716293 3.0438429006904677
Ni 7.475470419440145 8.67668975884431 7.490093134703365 1.58250988200641 1.7305838268299227 0.5903029172337382
P 6.047929003876824 7.509326699788935 11.127029217823218 3.1792145674559635 3.0601593784623042 -0.9149993079424177
P 0.6125672022151655 2.0500154376488062 0.8070790626341992 1.2245187338003427 -1.6612920824126358 0.04472279682867137
P 2.872299149414933 5.551147119791336 13.088663216760303 -0.6616960242647443 -0.26040261372661605 1.0689155704793203
Ni 5.715594566076373 -0.37078204622839367 6.1095740208666465 -0.7555767708753052 1.9333623622851672 -1.5120639693800217
