# total energy = -340887.53398630966 ev
CRYSTAL
PRIMVEC
9.12366179051319 0.00000000000000 0.00000000000000
0.00000000000000 9.12366179051319 0.00000000000000
0.00000000000000 0.00000000000000 13.35340126428351
PRIMCOORD
 96 1
Ni 6.511402271999133 2.181960196554606 11.567049501498875 -0.5969335351763784 0.09843545586077886 -1.2370952849137729
Ni 4.706705487837935 0.7360003172848546 5.807113978143469 0.35281217510828916 -1.5324749289362058 0.097997854102728
Ni 2.708149139310712 1.4672764025276945 4.480773515404521 -0.8073742151625707 0.5493272461523249 1.1287338281885333
Ni 3.647594339971519 4.824802165226576 4.745264819392911 0.24859353690682995 -1.9429723745711056 0.11296578826646995
Ni 3.7515219706988057 2.9782916393725354 2.8363557462585574 -0.0701368660264018 0.2597881200710687 -0.8818441613466876
Ni 5.224473290820423 4.884352305315856 2.3855446719549747 -0.4071681241513504 -0.11922462469198822 0.3831846167525594
Ni 5.743664385032254 4.576255372471528 11.72005330865335 -0.06143393893576515 -1.7144537540372795 0.22885003573131554
Ni 5.650146852334976 8.032708999271538 12.629833835576406 -1.0836886150234366 0.2548109785714515 -1.813657455522651
Ni 1.8400692206750857 6.53493219559194 0.08636640663599691 -1.1399641496867141 0.11620126448463212 1.1213357359522496
Ni 2.2212649312726422 1.5773077629500523 0.16035656613991023 2.815611215269441 0.12982991101166028 1.3974177080873353
Ni 8.111893259396384 9.166999119764839 6.3853023185439515 -0.5173164975736831 0.12821011602005017 1.7558873385917178
Ni 9.214989580446565 2.3857371812174053 1.1820187320834732 -1.3001680450045414 -0.9945492397526033 0.9050748497398542
Ni 6.978278289870849 0.9666793309145997 4.422139390952587 -1.3246781143307638 -1.075461084907322 1.1444275847747065
Ni 0.7876475415865861 7.437937491316853 2.4429242929195065 -0.10591479495695953 -0.14364316274566874 -0.8601095978830736
Ni 8.016496252383435 4.067729838818049 3.675763645552284 -0.4003516154501492 -0.8260841328672484 -0.9050861625937637
Ni 7.88338202779287 3.8595734965264987 12.706322053661054 0.28014945733624014 1.0895306756265106 0.38190677848140037
Ni 8.132412374619426 7.523261975783676 8.58981529452045 0.4664392511078419 0.8147157431293065 1.5552659586887925
Ni 6.593734195419644 0.9032917787031258 0.23347997777980004 1.408580152462058 -0.9416372222449203 0.5241160369940199
Ni 1.9914763870274097 6.654835358002441 9.114297200167517 0.6509938073558917 -0.016214404976333367 -0.7382855878950253
Ni 0.30541275156437325 4.717663005571538 1.3473577298922599 -1.2988971487119179 2.014805140242691 0.9166954646979181
Ni 6.52702198087501 2.099235955679853 6.809099142841352 -0.3357043117834089 -0.06534201574091972 0.48238420447287245
Ni 3.508960300036384 4.54706877860825 0.3475932644586224 0.5698567335642444 0.011574849321792969 -0.5315069301414523
Ni 5.924504484114473 5.862399718741754 4.873444055355577 0.30340688520228387 0.7985674155042183 -0.6505981145793698
Ni 5.131968484574794 2.9293614415329743 9.166042047649723 2.0275845513955466 -0.4876827338676504 0.7896248615989497
P 0.3396638900520659 5.5704607908151695 12.160702448525884 -0.2633498692803981 0.6309823972309714 1.3601804210024317
P 4.453487380278887 6.032181939811378 12.231528522143027 0.22331727883854444 1.4036305217662666 1.9213072308928456
P 2.566832742827967 8.24452392991544 1.2871169286102777 -1.4025352318195587 1.201972987289343 0.29181763770278774
P 6.426305879075474 8.021943078434193 5.818610704285112 -1.0235438272127406 -0.46308961790931863 -0.6302863996052113
P 4.639363740634169 1.1176668088275017 12.582523087693312 -0.25687094642427377 0.27788714366462464 0.055033177615743924
P 4.164869465220772 6.225831659957691 8.37120688535495 -0.40941963918968843 -0.11516973789632422 -0.7129154845613529
P 4.678449507470767 1.2059473596937316 3.6195591522181343 1.739653393231359 0.2998932156220706 0.054564208399125375
P 0.25355294594441274 5.748198844910357 3.7079455375603922 -0.6485168065703089 -1.0988367835187849 -1.1984667739082973
Ni 0.620432718926818 0.08176260692877291 4.839366266440689 1.1983119934979878 0.5849593935336377 -0.960811481180526
Ni 1.848088919332735 6.653758765918706 4.570588666173159 1.7368187519960412 1.0599287935996777 1.34980756240854
Ni 6.307260340867272 6.002192463716162 9.067894256626213 -0.33051711115551463 -0.19611192206834613 0.8553653983298688
Ni 8.714082304334765 2.6042488795686047 9.991842917844451 0.6437939471733428 -0.06381426624248364 0.9307730258369067
Ni 2.5222271606467976 5.437903109589927 6.692510606736112 -0.6452188525453274 -0.032690548254485634 1.7689053481179406
Ni 0.7680654264228627 0.021465238944086328 9.015923142333188 -0.44353329304394584 0.36984007712485334 0.6076740615223342
Ni 1.2885529929660389 1.1533676971635451 11.504061565671027 -0.16207128754386926 -0.08510557152109213 -1.3956387618100414
Ni 4.1630994748458185 6.900745412518511 0.973214609809337 0.746214870044431 -0.24121087128951363 0.7368406279183826
Ni 5.684798519572466 8.181707518928048 8.070074955872679 0.8118751883567179 -1.035693832311713 -0.11729886842418508
Ni 5.666925266250128 3.139077929979767 4.670218139861062 -2.4227078285672206 -1.3232755775562823 -1.581854250700282
Ni 0.934071363903861 7.824698635567613 6.928131907923137 -0.6839304101829126 -1.3421029946754306 0.32319949444817886
Ni 5.5481899325406285 4.542214990569719 7.400001305857801 -0.7111072277080205 0.09011999401654802 -1.0293820311610722
Ni 0.7380212083572885 7.542430789071187 11.095621688791779 0.3157204124623143 -0.7926430795999833 0.6197752156612423
Ni 4.888330221828638 0.485683534154854 10.273439262837803 0.944260004579748 -0.8732677325315864 2.1623561226831987
Ni 8.279923737414506 7.386142463695151 4.541424881464199 -0.8687191939289555 0.7341270856419614 0.4601187082064527
Ni 7.561782075593229 6.299012550666458 6.740943565011576 -0.747412747007274 -0.8757007674531112 -0.6567538497681206
Ni 2.5056677146130846 5.5035296083890985 2.408099276109213 0.25540233229854725 0.34806437601065865 -0.2606077877588867
Ni 2.6082997853751992 5.762468251850702 11.411829556911021 -1.207143989967321 -1.2958894722338457 -1.2359048641500974
Ni 1.4353527101464483 3.7942845732112094 3.709814975848165 -0.38343504220046865 -0.8577356983342582 0.3096448956921958
Ni 1.4204355232235166 0.591792632400962 2.4362612827605967 0.3442951387762135 1.1091721040065219 0.38901202206761387
Ni 1.493698526887823 3.285266361824496 8.09694140255889 -1.437530516947821 0.4394902333228237 -0.2751319495169907
Ni 3.79545240191221 2.5670152160624986 7.133266493450849 0.1552817754258616 1.132477868611998 -0.3968163486033811
Ni 4.222695233243733 7.1589906576888955 6.238962433914562 0.9096107899369946 -0.6460441766601003 -0.6814755208845167
Ni 0.4293759434431937 9.24099201636727 13.557173761858408 0.005555639710906561 -0.7659470583660357 -0.0484246711602908
P 0.277506207441333 5.744321288676567 7.788330807559358 1.1041908487418468 -0.026600633306663866 1.048579944245762
P 8.777072064894961 1.592389175784062 7.79249758386988 0.13567865648295344 0.736415367455506 0.4788445667507301
P 1.811667261720293 2.9872145805411146 10.483955896418017 0.7221269758572918 1.0748604752088458 -0.6336200919641346
P 4.163564781593873 6.430411526852428 3.5935074485241043 0.4001245870410077 0.05034451389082297 -0.6937337694265795
P 6.874569627025 3.9935544689810865 10.047393244632808 1.1468505923939023 -0.08053055055590001 -0.8758797162331368
P 6.611187760302561 7.989015783263024 10.393005762130592 -0.12601053726557007 -0.26476963244606017 -0.7998159431993387
P 2.581804671721258 8.488937703908354 5.808943272319645 0.035565555809435524 1.5348138614820277 -1.0977216960777354
P 7.023960464135754 4.143136902988098 1.4757915160170962 1.03248098180137 -0.03794485467488949 -0.2542520207441879
Ni 5.226936679486595 2.873515508104678 0.5495154086924113 0.011023861914329402 0.3629124967670847 -0.19028451675329164
Ni 1.8555520746250642 1.1419266253584344 7.1464602206736325 -1.2819098701253018 0.36074068592674646 -1.9921575780465044
Ni 7.00949946029915 1.1643160912354216 9.272000605477341 0.28584856460354635 -0.8500843524365875 -1.1860812557597509
Ni 3.081379893220978 1.3854189095169656 9.289493402105682 -1.8614601768282262 1.9511289422399687 0.17178980038321381
Ni 6.826059117624861 2.0892546697509924 2.3427738581470168 -1.1079492873430143 1.296802470966418 -0.09760987463568996
Ni 4.29468092426632 7.288665261808545 10.511677230208006 0.40143739231516024 -0.21163187208081616 -1.6337005459476124
Ni 7.974518284779515 7.6145715823431255 13.162687613223767 0.6623215736638851 -0.28975638429838485 0.12993995422696333
Ni 7.91996791131639 3.777825487456489 7.977989838066473 0.39456509067535916 0.8307532562081433 -0.2692497797046008
Ni 3.0700209343714064 8.438137155414847 12.419170311042398 0.3473766059150146 0.5458950805423244 0.16007122639470497
Ni 0.5603278602045619 4.988626635188752 10.121130678706894 -0.06529984964907463 -1.0104615401074855 -1.1202800409942255
Ni 8.588522471653796 2.493660975780927 5.599481334035024 0.7056508325791395 -0.8588700690490175 0.005716590768803058
Ni 3.991702365650594 2.9096817031887765 11.441501529578153 -1.18483941293285 -0.2449024612084879 0.13967620767812072
Ni 1.320668282243543 3.6788520050467257 12.815392692503604 0.17520679648456275 0.2482299829198241 -2.423689732864516
Ni 3.2276960563298793 8.579179842045795 7.954500970951434 0.7022459206626486 -1.1770124606892634 0.6251159111478654
Ni 5.739695592181199 8.07861014141788 3.3569245133910997 1.835634216904058 -0.07127432206495465 0.9865333114266622
Ni 3.538968023455052 8.42134961783797 3.6330065172369164 -2.7155803898970845 0.6990443830062154 0.33872612932886825
Ni 3.3436760441979567 4.180525668743555 9.168258185083104 -0.9305971623806747 1.770333853034351 0.46254994335576466
Ni 7.576817870118605 6.049471278783215 11.207590002598685 0.09125359340035898 0.3917165654829705 0.1147460200953443
Ni 8.0413856015735 -0.0013804100192290818 2.304623266637391 0.04561959761132789 -1.4848226171655654 -0.5743273677410884
Ni 4.536348476079539 0.42622736778135656 1.5914987063995494 -0.2073299022713526 -0.3118892116416822 -0.8274550450728458
Ni 6.366244813929505 5.916128962649487 0.2988756479372904 -0.35635541237485724 -0.9735893496714846 0.0068995553333106975
Ni 8.271511721302614 9.15212755115054 11.109709534863766 -0.9975150072491465 0.9697190680828008 0.404426042629839
Ni 0.22307261684830887 4.736895684491134 5.795723086477854 0.4011751397927091 0.4528597126511943 0.08453350106770603
Ni 7.597875281383514 6.31737848172203 2.5069678364091197 -0.7932187495977953 -0.41790273696003516 -0.8173634651647987
P 8.723497923236579 1.7101117830419128 3.4316235814111673 1.275835381796448 0.5345878830596212 0.3023637886497502
P 2.0154624937065453 3.4134994273913484 1.5305800170512838 0.9706333523669541 -0.6352257458883576 0.3545597539270152
P 5.0603659873447215 1.0262294710038806 8.185861522112154 -0.6152744995774113 1.0180491226467563 -1.3322862656953247
P 8.41224420343486 1.7929272605339313 12.51679714098132 0.7701790941695124 -1.0684082918255988 -0.20818376563121566
P 6.329604188435625 7.888938337784348 1.339867203614751 1.1063392625434172 0.3332316818732003 -0.3826431424267926
P 2.2128985334693834 3.3037326531590607 5.7782968925801175 -0.5451903411658159 0.0558836985414973 0.43439944906347766
P 7.002802692591852 4.186237080984384 5.656246932565357 2.3869355560636185 0.9200993481731443 2.870243300792025
P 2.498396156217013 8.6324529028672 10.274707451817795 -0.014615435920329668 -0.10701856954409956 -0.03167136296135191
