# total energy = -340863.60656299896 ev
CRYSTAL
PRIMVEC
9.41541140694843 0.00000000000000 0.00000000000000
0.00000000000000 9.41541140694843 0.00000000000000
0.00000000000000 0.00000000000000 13.78040631844054
PRIMCOORD
 96 1
Ni 3.1025475367741966 6.778757259895053 8.834287509425055 1.327013704442476 0.576490179720362 -0.8751595502376606
Ni 8.150215501187079 0.08057238313520107 12.956530692615898 -1.5777908792641857 -0.22558473471648244 1.6420036664966688
Ni 8.394197057036623 2.8708907544594453 5.708836042856561 -0.28728709682228587 0.5512445177796959 1.1593029592246422
Ni 3.309950219298557 2.137665590959149 4.900712223136317 -0.9526250887149916 0.37316117107828634 0.03498011561961072
Ni 0.6714647723609036 5.788943304668141 11.609771900073923 1.1567238856435562 -0.06948432004406743 -0.08603219710041958
Ni 6.39457081274942 8.32042730864465 12.022329806419242 -0.6045735682201395 0.6762348413108676 0.08614198320540647
Ni 0.923439070955813 1.0530101966062229 9.839829909411222 -0.28867292142621903 0.1766306734152829 2.690089444714832
Ni 2.2486167990065002 1.262484269640632 12.055196183025732 -1.308333097313837 -1.2042167890181972 -0.8155217839703696
Ni 3.734961890314972 8.882066014621616 10.121074838995407 0.9034961923988246 -0.1871822236788841 1.9234124501613066
Ni 6.763956233159611 7.7676579202152585 2.523413113316445 1.5686500933051823 -1.3696744765357958 1.3481391735671813
Ni 4.841734086068375 6.582822548467236 12.345508153797086 -0.8127223668483616 -0.8645334379823821 -0.2645942832104604
Ni 7.187612084933085 0.9773761967552068 5.481942517173781 -0.861868232445393 -0.6961102400785559 -0.26863554315936955
Ni 3.8376557825563555 7.538420898632701 3.5972925693114117 -0.029688271093052103 0.8291121210602946 0.6352676548698866
Ni 8.030112513249875 6.121778097987377 12.78500637680787 -1.4795418283826003 -0.8231888135973242 0.0061163973103830135
Ni 9.196842048857787 2.014653240896467 12.409531068298135 0.8552594688796238 0.8422764263563945 -0.5590976952755274
Ni 2.187962718707702 2.841891287318759 0.16762068623772805 0.8719454141757369 -0.283112396619306 0.8031730325970295
Ni 3.7734520921562464 0.8340557458237763 2.6520116269682728 -0.27291925813638807 0.4230703972039036 1.307976742415683
Ni 0.40175466329427006 4.289793253843004 13.53971750914422 -0.839177989936729 0.07049964868245923 0.10386176908267275
Ni 5.8656035843627725 1.1429650372108051 13.70665369497249 1.948765584214115 1.2084313413201768 -1.2335204230783208
Ni 5.301629856356298 1.529524168031584 9.637244151363866 -1.4263271920328338 0.44065185773109267 -0.7034815928419627
Ni 3.506977118449853 8.35598931753763 6.784879160393388 0.5166274419264586 -0.5489084134473514 0.10286083862198413
Ni 5.546383475941405 4.371057669716789 11.052561262082758 0.06383149263366426 0.12096603286312717 0.5954844614346777
Ni 3.1985282406807394 4.3349778131963 12.106858545428636 -2.8535411575459952 3.9038391129241283 -0.8830754626506275
Ni 1.0254701182339807 7.81332266555043 7.526085768145359 1.6353434808676741 -0.6146769752027285 -1.1747917988888605
P 7.479489838621807 7.708199597165444 0.597510481905309 0.5444462639109399 -0.23642553408572833 -2.902004138143389
P 0.9849179412940671 3.0945820987219177 6.205523474767517 1.9543654468993954 -0.3859842909848836 -0.028309388467654472
P 9.233957600633302 9.170799020899626 5.871500456528427 0.34836005287420646 0.25877819074931563 0.08137104417932438
P 3.0712224630154106 6.538617191900509 10.985258018246705 0.2856912130900757 -2.0753692749789936 -1.025110400368912
P 8.493633216930384 2.621420013758272 0.6305049081069667 -0.7978225669183937 0.5705391043432496 -0.13980913371155923
P 6.294004803486542 3.7744501257656333 5.383274654851021 0.9955110894452402 -0.6939643973801468 -0.9184818671743795
P 0.4604974150769776 9.320871263352675 11.807603816900718 1.4144998603806027 0.25021076079527876 -1.8144015327775267
P 8.025677854476088 1.4365658111874307 9.10537603472201 -0.4681585477917937 0.08199325114435556 0.25082988243651644
Ni 2.459832723151632 7.831193116405307 12.428231958439314 0.7305529951374579 1.8467197852942583 1.5718554876163575
Ni 0.699632858674147 4.555458502168196 2.5050295225397603 0.22801751252769117 -0.35326340371309484 -1.966013315550969
Ni 5.798217484906315 5.7249467533190375 8.96094362370314 -1.265216725740337 -0.0001830625450835557 -0.7182320116782598
Ni 9.267156341262542 8.461978603772272 1.6082144104260632 -1.1727734829072511 -1.4078615291284786 1.1351011651674578
Ni 5.341212245921053 4.98295584179667 2.969443748763012 -0.07454065152105227 -0.2948775075750341 0.6576030851422933
Ni 0.36830923888610634 7.166625132901726 5.025135001828113 0.9340658376555656 0.5631813784265979 0.4607288309866259
Ni 3.658904196950537 0.7570216742961953 0.2983941599251073 -1.9476494683318004 1.7243607287383462 0.15084225159726924
Ni 7.902091164317438 6.667457681625556 8.707825352621999 0.3718589073270951 -0.5317051621951875 -0.294061439431642
Ni 2.7668127967408926 4.737477235533047 4.013005580019989 0.5746562118354168 -0.47227077018795444 1.056454204787516
Ni 4.38489832448848 4.191053834393532 6.028527863389536 -1.6387095691264293 -1.6237694028768295 0.5091933542459167
Ni 5.431336563931002 8.572722672768617 0.8677092508240859 -1.2599328516335784 -1.2790693153527133 -1.0019211067366423
Ni 8.900341328167093 8.798523069186777 8.700370229868104 -1.213504127857394 1.517215431673974 0.9655888479645113
Ni 0.547401662384942 2.242299057950851 2.087924914024886 0.8398513618546698 -0.8076107566534091 -0.6192072589729143
Ni 7.6470747462961794 4.475069719555476 1.9505888985852151 0.5693970203190064 -0.4802651012473406 0.030181665789702855
Ni 7.159789544218564 3.6541776604230614 9.459876631235218 0.46686194046755725 -0.7694632990494104 -0.7361592855806418
Ni 7.5020868260041595 4.799044610738547 6.854332884195331 0.42182418350162837 0.86746835224099 0.915421740191817
Ni 2.7856342041481104 2.719208476655403 10.034574512836901 -0.3846591444155569 0.18147771709493907 -0.16204223407814675
Ni 2.3628634010471115 5.145955444114707 7.2175982871894675 -0.31217768941637847 -0.17807974715698363 -1.322525072543503
Ni 6.974240031575221 1.332629084640018 11.115345108442343 0.8478482640172172 0.24148803621030027 0.2805556916357233
Ni 4.073624823296573 2.420231502764059 11.936532811493011 4.1741646421914105 -2.364288508088064 0.8670731736851003
Ni 5.194981491323004 0.820932545401475 7.067005372485483 -0.5093627899442453 -0.880553210449406 0.8499974491497362
Ni 5.315159802551483 6.130261383667169 5.662919906036761 -0.6157956621882039 1.1488282849455635 -0.16736647450453757
Ni 0.24125485270540595 7.669379855924843 13.131721369626716 0.12260305424591789 -0.8498676084400911 1.0046873566278696
Ni 5.534840181553586 2.2902235020242574 3.737976705048234 0.3017140708808933 0.40226940129815236 1.218004843941225
P 2.696460842690501 6.609458747344185 5.126076686006224 -0.9068090588221414 0.36872910344886173 1.5897256830285589
P 8.736635569993357 6.063976887345601 3.297885311118662 -1.748491303237963 2.1318476696816964 -0.8277229540222519
P 5.501424886461933 7.426076209696771 7.4388566891437735 -0.2815285970719538 -0.22214305602478518 0.7379166345913807
P 0.8895906669393306 6.16261273726957 0.7771857193703813 1.2295007603959665 -0.05629738904014821 0.35825777160389266
P 4.786512698152752 4.1422725878818785 13.3930941318904 1.5203151536452204 -0.04497656471069028 0.2775570140187155
P 4.503956201759251 -0.00019772363959558544 12.402241656785044 -0.04559337235908277 -0.8413410590263188 -2.111605888713525
P 4.803253299638511 6.797315035782809 1.93895804087129 -0.8708660650686292 -0.8645311239895369 -0.9566763759662298
P 2.6101497663013236 3.297653691997993 2.4678367643906896 0.5023418785417221 -1.1078716400275437 -0.9433179523814529
Ni 7.518893335369784 6.640680251577468 5.3722087218216545 0.7782914388640015 0.04585408221963716 -1.0497850202974566
Ni 5.850651911044784 8.217507446529444 4.470984372544975 0.6788609660798051 0.6893266414978193 1.9699879839280006
Ni 1.4800650118984597 7.809424685226974 10.219494134456962 -1.567867706613203 0.8832904068749111 -0.5203460284286265
Ni 2.1617596287555823 9.00503128762725 4.878360036450605 -0.29915170947035574 0.06514352657686845 -0.6779471960162841
Ni 3.449665509201361 2.5247708156416677 7.796595245640643 -0.6919201132566084 0.21925570717466109 -1.4029221828453322
Ni 1.158218003693893 0.3746637000462521 0.24000919377595373 0.08608593315649045 1.1791220508330982 -0.8796854631324721
Ni 8.078244096374286 2.6385184008775853 3.515877506855077 -0.8400382810544952 3.185551822527901 -0.7211980362851192
Ni 0.454073279872403 3.6142469006361626 8.299194614375507 -0.7660082506212743 -1.2188029143624879 -0.5865071976367318
Ni 5.094104773483617 2.8908608420585993 1.4200022194361663 -0.6288913190298976 0.8182517813070231 -0.1704489700846032
Ni 0.01747500357568603 4.785109801852764 4.6737217187160205 0.6129319674871638 -1.5848804391211155 2.7189277091027626
Ni 2.7992394736345685 8.395995400615801 1.4172595100926333 1.450266733567567 -3.47245685342042 -0.9414415612943464
Ni 1.6832872517570843 5.037904182781425 9.577120158727414 0.28050144135902016 0.4581515571777529 1.1455807245425431
Ni 8.525928078064329 7.621822612896401 10.90851488293167 0.43152495572916005 0.4731423741596304 -0.46674109861897684
Ni 6.912220716622072 3.097529122493033 12.940546148666307 -0.23130801035350487 0.9563272201569272 0.579307337454183
Ni 6.666563217541671 2.529506767580553 7.478350573841279 0.09291606870444644 -0.13235422009541079 -0.3810146056844341
Ni 7.242824057437301 8.53070169164885 6.880060495871279 0.39707423025045807 -0.10135931437579317 0.1066061645970293
Ni 1.676498740130969 6.6620438200652 2.9792273027584297 -0.7812942302460673 0.7860456288881236 -0.732436585313416
Ni 6.207910281559778 5.68086379710063 0.6208804745643663 -1.027954040465294 0.2566745141427515 -0.30118210963682324
Ni 6.432223042975265 8.81369129696718 9.204043897044771 -0.0023325047879185637 -0.36486242140460384 0.4044196148719358
Ni 0.586304259245944 1.615100842330835 4.326702608108654 1.0650774276801527 -1.0462474394578434 1.5346855634342795
Ni 8.3751685105784 4.049690847494098 11.274604909348602 0.6875672356045514 0.4703211026607513 0.6487566904952569
Ni 1.027550924155439 1.020310472781677 7.713003340066475 0.43623855915474546 0.44726833460634585 -3.558090015310208
Ni 7.9076274262261155 0.5882814956418998 3.2648541648125082 -0.42124002886338424 -2.873967286610831 -1.17220706888082
Ni 2.986935700079235 5.224536467736839 1.037018120327504 0.4238401854903927 -0.015316061531780074 0.24700176693967782
P 6.6800931637368555 6.523825580576476 10.83109666261859 -0.4266267470965943 -1.0184836390810137 -0.1185373688169765
P 1.4709697244770628 0.13198712021803982 2.3355445848429883 -0.42689002806031 2.2138656034164 3.4714919184039887
P 0.32916466595188504 5.792652976763411 7.832177026897581 -0.7306404126449417 -0.12336307234039398 0.38172140194347165
P 1.1450552585436726 3.429591852076704 11.34651134782267 0.07851763389092929 0.6487024402185537 -0.2391910126460074
P 4.6072903419764675 0.43005079920268025 5.087353923503139 -0.8477410490153916 0.13241746923317838 -0.8517794807508233
P 5.966932241949806 0.8518348671879831 2.1379339301843143 1.0174379714253188 0.3163138230719391 0.030703599731443897
P 4.998444193564991 3.5677065220399253 8.799106824694153 0.30410879636531496 0.7510400593472162 0.5844022354785872
P 3.0472979026243445 0.4789600953095006 8.478464047608838 -0.24878174165823608 0.3170175340071831 -0.9410114157354633
