# total energy = -340887.2487889656 ev
CRYSTAL
PRIMVEC
9.10352317685750 0.00000000000000 0.00000000000000

0.00000000000000 9.10352317685750 0.00000000000000

0.00000000000000 0.00000000000000 13.32392636756118

PRIMCOORD
 96 1
Ni 6.392985692756352 2.252375542368418 11.25921128985032 1.8501959167683169 0.09287698793639489 0.7380133080702451
Ni 4.907336198229623 0.8641610583500975 5.729035692577631 0.16404846587489813 -1.180763185980947 0.20090702946414432
Ni 2.9312070721816417 1.8606600357659449 4.819730261891628 0.012225852642230556 0.13887942280843824 -0.352022075106826
Ni 3.5701651696836607 4.784138216616031 4.542180221026223 -1.4279117629111344 -0.08170811580376897 0.5229790951760993
Ni 3.7184888757673273 3.052411382179674 2.8586483496032793 -0.36532007776731273 -0.02486102490773783 -1.2195889005988931
Ni 5.312798025103767 4.8571393704296275 2.406540979391377 -0.05946010303884598 0.2108605411324304 0.12835564045897893
Ni 5.701327298530687 3.1390223034145603 13.932297060718742 -0.3988948283989646 -0.1013775692082383 -0.7138133137852738
Ni 5.580259541383037 8.024783151284012 12.238000272924108 0.5439166166597148 -0.9220778120557539 0.8134499890430055
Ni 2.0232216523826536 6.888117224713913 0.09862575136372845 0.43350984736967274 -0.24708147113767773 0.15402322042841216
Ni 0.6028890276024244 9.294333208321383 0.15421368569676014 0.36857458014886846 0.5453032125945964 0.12664997062178188
Ni 8.341904387485112 0.03688838700187968 7.0315423248782505 -0.6523562349210571 0.4930812791754024 -0.20441478550708664
Ni 8.914124555244335 2.506008806665787 1.0765908655735525 -0.515844541013847 0.17834868454765412 1.5825430492371906
Ni 7.039026331431457 0.9352231616882859 4.757973780130726 1.0285366524416415 0.7246538560442035 -0.44666309692217915
Ni 0.9612956525876672 7.783239366007026 2.5423382373334413 -0.39969906946781486 -0.0029451986712529924 -0.32594620395538065
Ni 8.026813236993007 3.714811052330403 3.856863341172246 -0.9747915975097018 0.8052705385560067 -1.1808128082719598
Ni 7.894529939067409 4.267021675747155 12.542811724839543 1.3428411583930355 -1.448133489274648 -0.841087805364932
Ni 8.177622204953604 7.342355729744092 9.002444207813653 1.0678835296703801 1.2724942332383569 0.12871765178408798
Ni 6.736470732604312 0.6676678791184222 0.16351566586470284 0.8640706394133506 0.2112906866913135 0.21967633965184746
Ni 1.8583204302627534 6.90659737713212 8.845741618830619 1.3265383074679542 0.839298060454361 2.0789857886856584
Ni 0.5079502031989784 5.1258571729324 1.2717021299593738 0.2169928792824134 -0.7759332230444702 -0.04129217388056759
Ni 6.805839580597778 2.157753520577856 6.979539358043884 -0.15371674493158688 -0.4830064114379036 -1.6416586244524243
Ni 3.437199107506159 4.35406956610326 0.46970448086431327 -0.12400199147597353 0.4116554704987426 0.08459854997768655
Ni 6.377646255896904 5.806245405239965 4.486152586514965 -0.8678180222709246 0.25420188423254286 1.2550487840683997
Ni 5.794110408602788 3.262147456841283 8.83351012484584 -0.24481735769384935 0.18251798543399533 1.185277528911533
P 0.495831592903847 5.724595904235582 12.231431170468456 0.47215507054569655 0.34871152267635425 2.027272933692399
P 4.43146772169912 6.15026755296609 12.617465168142749 -1.5930524334089469 -0.3472624489346536 -0.1996374187231013
P 2.6203035424345487 8.765409397656244 1.2150663800877533 -0.46089081048578684 -0.1760485756595678 0.5791684978834735
P 6.772375028731114 8.184559089752952 5.812176350708173 -0.8501409167061359 -0.8595187583766101 0.37621769851642306
P 4.82433937576815 1.2482022947611675 12.553816974227903 1.1623324900795853 0.8772807103457213 -0.3358194972050345
P 4.178153080719305 6.368151281033756 8.19802593185751 -0.17011215557047477 0.5617976107051937 -1.4116593056080138
P 5.211767122868665 1.627527906072419 3.564696683202076 -0.993341078377115 -0.8222750435338033 0.7397755421769904
P 0.664327796398107 5.665031550899461 3.4795304911242186 -0.021218028838511843 0.9780525276491606 -0.3777577893100333
Ni 0.8135318131905621 0.14749892686736638 4.573104889875804 0.3523162093084771 -0.3865270508622311 1.1924622195854302
Ni 1.9846955415285399 7.121039973370188 5.004306929046736 1.28713666574188 -0.9757645029459323 -2.202812430926032
Ni 6.253628957181026 5.688218224894127 8.887951925588007 -1.2664308006530962 0.31281660855195803 1.650829492318415
Ni 9.067473406222017 2.71322320535703 10.372477134979933 -0.06991343716168605 0.6528665988985725 0.03509375837933956
Ni 2.4286015475465694 5.585448549697508 6.984828505115302 0.46012436463340756 -0.6424526026541001 -0.8718641673158404
Ni 0.9618509675125494 0.22040995579971123 8.891602438454855 -1.4305885384123491 -0.1783106322208671 0.08453350106770603
Ni 1.5804262762143886 1.1848690827545345 11.288403558204735 0.17621826846821265 0.33010444909812825 -0.0861394121022452
Ni 4.514528268824104 7.236154026241235 1.5970593237431105 -1.270590845568057 -0.05299712102232163 -0.7943742033584771
Ni 5.722010503601705 8.207882316597997 7.994208968083742 1.1019725009342893 0.4308726668571418 0.6393742208390923
Ni 5.425217435060633 3.5111379242257033 4.833001378243975 -0.06994506173056986 -2.3408529027729426 -1.1720890552457168
Ni 0.6707639874127238 7.368337185409886 6.732740108731908 -0.7101322653892608 0.7201132878613727 0.6088549692043127
Ni 5.019500709532444 4.878878584210256 6.720934659640316 0.34212255660492685 0.9217366266662513 0.46242678751433913
Ni 0.751839056093171 7.7200244998040555 11.346362960372716 1.7280263505153917 0.008537090936733686 -0.631065700973397
Ni 4.745857900892603 0.42480408295442185 10.494817564693134 -0.29502997399249836 0.04748956094053111 -1.7253865988996997
Ni 8.425101487460477 7.385743122071764 4.572078922793276 0.0009711056640176824 -0.2317839215486589 0.11167458025887217
Ni 7.237492244174967 6.332201467290161 7.104277655809772 1.2091579350735564 0.3170291039714088 -3.740279670870507
Ni 2.63148266911906 6.271599312291145 2.3877804384537216 -0.6162839146785322 -2.391604422294197 0.8327348054145465
Ni 2.7541253358077706 5.47283796575011 11.325070729589 -0.7889517467913251 -0.9918331263730209 0.859426712883436
Ni 1.318563426800734 3.4130292529887507 3.7687794698579182 0.5234786605203371 0.7918290683391201 -0.6165165995146286
Ni 1.5505212019809849 1.2049150411904417 2.565721547432656 0.5014749025557363 0.3286697735341307 -1.1046438771188654
Ni 1.5471711053849748 3.4206489020400013 8.156348181216606 -0.9225362397494112 0.9604852081893587 0.08030429347770686
Ni 4.076166308531537 2.723883431210094 6.970545076965466 -1.006513611203331 1.236120065484697 -0.5777955287953468
Ni 4.421016876883306 7.378478510431504 6.041414903461173 0.8434894728278892 -0.6860595407107732 -0.7234145843204638
Ni 8.510428811901784 7.2894096378897615 0.40709499896469886 -0.8402149158416755 -0.6814143286292781 -0.6338802876040567
P 0.3422851954692812 5.750814051508703 8.009905263058851 -1.2352160656131888 -1.2560198897324175 -1.3685023106045657
P 8.929454888580423 2.050022425150733 7.922686226463602 0.39171296593854477 -0.9367490409146835 -0.110640482567403
P 2.238255977639039 3.437490420253638 10.358127251109579 -0.7935460510302269 -0.5527123605744738 0.40020094880489787
P 4.093963696697839 6.678890947360392 3.9014059706141397 1.8185019280991457 0.4526717650101043 -0.5498430094464789
P 7.483961035589021 4.25479564387639 10.035195235948608 -0.0754132839339927 -0.11259477808029641 0.8256807267812426
P 6.481490146849852 8.042971990954738 10.165942769483587 -0.6895840089242639 0.038864281165365326 -0.3644944965422238
P 2.8849611735193315 8.943137484188584 5.759293983517354 -0.8408828884429776 0.5336481448541712 0.05780456971329399
P 7.4574697826151395 4.234968170001093 1.5540224170647496 -0.8997930325156246 -0.48280200873658147 0.08217502813785847
Ni 2.9259816497737345 1.7308984138107135 0.1259345007352244 -1.682316764293419 1.6572924743349393 0.38126246002918207
Ni 1.548354563421609 1.2642335993958778 6.744731269700018 1.3370111819748198 -0.5565337912030931 0.9538252796706799
Ni 7.443341114362402 1.3406940920857884 9.207792384216358 -1.2189080724817847 -1.7207084766977399 0.4941531720833425
Ni 2.982842256672316 1.6525443882621886 8.819479774645377 0.5464674081060266 -0.019659168991824207 1.6848639561953045
Ni 6.92568746561536 1.9176754025616245 2.3541911683170427 -0.11368903958573968 0.6764359015780802 0.07874286252785793
Ni 4.34829793229383 6.827023479453526 10.289975544189176 0.7115288886264713 1.4550027055906554 0.07441980967247183
Ni 7.708736130839241 6.551332378057971 11.223956074938995 -0.6626756145691942 -1.6964722298581942 0.6558475359037673
Ni 7.927275312588734 4.020962542884243 7.810632778145758 1.5431884586989681 0.9908607351574225 0.42274078177862673
Ni 3.2583785981707716 8.82231552217162 12.437219047049386 -0.4447062303061245 -1.6133500073157183 -1.1742115009053584
Ni 0.595394096821188 5.384315304609892 10.13717654602236 -0.7816971221114408 -1.8461238035814722 -0.13771728417953702
Ni 9.10144775539677 2.35284202615528 5.568881957889306 -1.0917181701961327 1.0341061761096189 0.4929635226506155
Ni 4.178799430877775 2.9663921899631043 11.276212119722734 -1.4452253144889176 0.1478263475890809 0.17786711692554527
Ni 1.194928476065923 3.3676572925688775 12.541998780203611 0.42504371888019055 0.715895136014967 -0.3923760534438404
Ni 3.32787489549126 8.513168972432759 7.956915474292399 0.05372500032728166 0.4340029849560074 -0.02458540264884798
Ni 6.1539817904964496 8.060942346064857 3.5781808220010154 -1.6933233998165673 -0.1932202023428479 0.14175134503959458
Ni 3.323104649251289 8.722668355487041 3.3871952744013676 0.5841145290348392 0.2041982986209064 0.28621648946592637
Ni 3.6854066718817293 4.4562566158049215 9.03828568962928 0.08288619527227016 -0.21575463599993808 0.33747117387584463
Ni 5.711759936299783 4.82391151017029 11.082722192847102 -0.724132693433411 -0.06666253432455617 0.7352149193895016
Ni 7.998619625151043 8.84403652890553 2.3147392291373468 0.4451206921357237 0.5399252361121347 -0.0028061019902274253
Ni 4.65508666948278 0.9544862171153428 1.4419416581768292 0.3643733975833273 -1.0507607539471646 1.6212137263345112
Ni 6.2964064134436635 5.4990288024531555 0.10067950623345627 -0.9370087223339733 2.247134135661543 1.2025499428387354
Ni 7.9446175245871 8.926122999031131 11.457817396853555 -0.20263841033295424 2.0070872027731435 0.2407928099154885
Ni 0.304702209635131 5.0156317121049865 5.513800179455019 -0.18778566159083787 0.2143143040089857 1.0491535573610449
Ni 7.643108830946209 6.195593995769171 2.5345438006337027 0.3296010270991485 -0.27324013181091655 -0.47778218692448676
P -0.3426047291391724 1.6074910511598708 3.5243780885986298 -0.22533122394477967 0.21810205318619214 -0.6287347388473753
P 1.7869488071303683 3.1532602139476027 1.5519841381847317 2.0252533321592088 1.1068339427916487 -0.748710125662459
P 5.11303030851996 1.3258735560577883 8.151778212490527 -0.020813594311241572 -1.4265891874449688 0.760201157021194
P 8.380894778030521 1.8762361642327192 12.511300789085663 0.35980223327287714 -0.6461902153196614 -2.5123809648543376
P 6.380659522128641 7.778132289402782 1.244793025263326 3.3650770438821596 0.9486524772204887 -0.7462333819871921
P 2.1394827491968997 3.6263430123303375 5.979977955370162 0.10790431458316253 -0.6560897338215603 -0.6605261723263591
P 7.113001562244436 4.216378775302581 5.799239333663093 0.7485715432020655 0.5474215444891799 0.9562161485003595
P 2.510505947204996 8.635820742644828 10.185396088548842 0.9067301259550901 -0.0006954834051278345 0.4592743579282864
