# total energy = -340875.4425878886 ev
CRYSTAL
PRIMVEC
9.23349952332738 0.00000000000000 0.00000000000000

0.00000000000000 9.23349952332738 0.00000000000000

0.00000000000000 0.00000000000000 13.51415988882546

PRIMCOORD
 96 1
Ni 5.264978255077288 6.497992055836763 8.15367390542664 0.9197478783709966 0.35155876231716227 0.7304421805912066
Ni 5.887288409789362 6.452064630142179 5.33095714792876 -0.6552415268886522 0.08795358249284853 -0.3309210314621527
Ni 7.90912929227662 6.434031605940024 9.695057960142577 -0.8577783786467357 -0.4837846843648249 0.7476030086412092
Ni 3.3032843872612254 6.3070340560800915 9.701342279790293 0.47770016873364174 -0.5915758704088909 0.5457456994486537
Ni 6.399913825895495 1.7379384784198326 9.970274411385132 -1.0844442622425388 -0.8313173562417295 -1.0942208820133283
Ni 0.46414400449535964 0.24235812050738353 6.052113759726813 -0.7202999499508821 1.8311268159520078 -0.47972208425967705
Ni 1.6452156780931317 -0.5191304163879643 1.2100685549108543 1.2408079578786695 1.2422223217276929 -0.4891737165908801
Ni 0.2249917549572482 2.387071948701422 6.847205770753704 -0.8905771703443114 0.10145881606813495 0.19414605659122694
Ni 7.584894963111902 5.344681821340989 7.577307796707952 -0.037159382659116655 -0.2026929177199735 -0.8934825169165644
Ni 0.8595473764880117 0.6507271722668901 8.533854007064917 0.8664897903778046 0.5639462816170803 0.49132598704719255
Ni 6.378510574435896 2.534734070074117 13.380815126927075 -0.6025735070709751 -0.5504896418915423 -0.5658159878359675
Ni 7.937143729260408 2.610467231623569 2.7824032993992573 0.21668948910938166 -0.9902112744988818 0.25870285742668997
Ni 0.8778666391695665 0.49656005061236314 3.4513001516584683 -0.1798484090216322 0.05593794881820043 1.0117776878157478
Ni 8.962357627475331 8.575557106813527 10.923089364660639 -0.22575674151797248 0.6078926052910434 -1.217664944103303
Ni 3.599975187908263 5.322927696906642 0.3320440229026512 -0.11396594739621017 0.5737686670241409 0.5632803658983073
Ni 3.996544750866984 7.2795616070868725 3.4280695906803813 -0.31392732511763355 -1.0544867966485 -0.10818147950394917
Ni 5.660356696621735 3.9733779010343113 8.605343452319792 0.6437970324971365 1.0570679271121148 -1.251939806125773
Ni 6.395518680211815 4.134613266430135 4.16968579030595 -0.7998323982595709 -0.012360578447881937 0.5928650215339597
Ni 6.45277560959101 9.082845560303763 -4.062739707602905e-05 0.018422211260929564 -0.18251284322767278 -0.16696692507327374
Ni 7.770045091786567 4.6596392721437905 11.619380162748294 -1.3221787449476778 1.2515430849079867 0.7370951671313499
Ni 5.001380316048543 8.491218323883425 6.691927859129121 1.0005288543748059 0.9846510068022848 0.32267421807232816
Ni 7.849250049086153 8.917335084715623 4.02044935729656 -0.907801504642398 -0.018154045201207444 -0.7185510855805753
Ni 2.5012534014837344 7.210485798558286 12.72454046825944 0.1374642876284665 0.24735477940372239 0.1648002564392581
Ni 6.874109417767437 8.527607544764479 9.010863046184374 0.6396763254605435 0.7341417409299807 -1.020573688840823
P 7.974954909039122 1.2283693505937383 8.397036630661722 0.17535772024013027 -0.02060276385201613 -0.3897681835073481
P 4.343327285408898 5.144425687753507 4.564758603022392 -0.6942703586563398 0.18096915288963672 -0.24467851812313993
P 1.3297439397977662 7.34248790505804 9.783535197474832 -0.3617249042168867 0.6936538081182634 -1.5372551239336687
P 6.996554852454987 0.7763046099290288 11.74896678582189 0.24659219020608497 -0.128387779248495 -0.9757326212667324
P 0.33906055904766813 4.421396522290222 7.626905538388382 -0.13832380741528433 -1.4367722986255578 -1.20489864557657
P 6.49862916729091 3.5934748043760987 6.443673225946112 -0.8053240175017615 -0.6107131054589741 0.3677369147389215
P 2.473155863005926 6.793842608044274 1.827155319048859 -0.0281037002147516 0.2500081578661694 -0.5566767445388606
P 2.4589824415259938 0.6062900333650498 12.804287431970018 0.14484643902515054 -1.1310915297874327 0.8052669390115809
Ni 6.316064418430172 5.0453594733833445 0.20558386270404244 0.5480766615746754 -0.9043950500640101 0.005802979835022264
Ni 4.1407997109848935 3.381935334600683 12.344036270794488 0.51940140512717 0.2541736020977687 0.9586826077629811
Ni 1.4334730713323367 7.294344439522945 4.038706755532567 0.7931012501833243 -0.8259308951188358 -0.5406330608124366
Ni 7.874494436269305 3.8967213895513133 9.457654535378602 0.8412988929344736 -0.3979221800730502 -0.6034273704308382
Ni 6.099031016550158 1.6163332921718094 4.917276064001562 -0.7912156031248373 0.27798381714348896 -0.5242944715534132
Ni -0.00560381074669137 7.29504618547244 2.0818964855150295 -0.11379496903598466 -0.4736751067346487 -0.03354749693814223
Ni 1.7497296570712164 2.7000598756755485 12.928009859615662 -1.07653709158032 -0.27401943317910227 -0.9405504169386446
Ni 7.507425903687382 6.392600894421809 3.796330168026512 0.72720567593178 0.2701684348641283 0.5428123278519426
Ni 8.122293857935075 4.954114032950318 2.1410352020587906 -0.3090463428762484 0.11684763981937941 -0.5835913095415175
Ni 3.4097928020957693 8.958978166718552 4.844515165888194 -0.9260931038627341 -0.9289431717170195 0.6762816353884031
Ni 4.344998548788617 1.6400910859619509 0.6524132092455454 -1.560256212814532 -0.007857548371205822 -0.7442184084396924
Ni 2.4067393022859545 3.093490048860213 7.626716251652005 0.09003874715665139 0.5448069896844682 0.906725755079716
Ni 8.748971457832823 1.0618062560813546 12.890495075165616 0.8409011432754228 0.4923991655067132 -0.160395185393027
Ni 4.2093953775480335 8.587459087456937 1.1032785183465783 -0.2033344079587143 -1.2919109472020718 0.05929915198094949
Ni 3.341224836030635 0.9939492694650507 6.645277450436571 -1.0739739588388342 1.4498255322650904 1.3885872542798987
Ni 5.555297941182857 5.813614318591719 2.515444366612405 -0.22397830946131103 -1.1138962489550688 -0.8497112853678851
Ni 6.1161222238200965 1.0186304131887383 1.9973250184016735 0.31784851454891067 0.48719602403921897 1.7260851676286209
Ni 8.448679592444956 4.085684953451525 5.417285749965654 -0.6155313527832238 -1.5724296149522725 1.8107343683385846
Ni 2.218449783837231 4.641366176958912 5.512047306945624 -0.6898951124067796 0.3721144749813269 -0.32431432477891237
Ni 5.46743196150661 1.8180760191522998 7.612444955079117 0.4719889772814775 -0.8896721420315388 -0.4681660039909615
Ni 4.739010432431414 8.861767885714816 9.62609572365582 -0.6047807991349392 1.2082860739915642 -1.097219559630336
Ni 1.4697976577180407 6.250718943633114 7.597484839455802 0.8075961013653897 0.33413413908281164 -0.7846094106622294
Ni 3.2492314821514356 1.0165990433349368 2.980115603919819 0.6356129540244472 -0.9559029881353149 -3.3506145885999263
Ni 6.8732137683318975 7.770091259283245 2.073369348878731 -0.5708054706307588 1.0826756003778903 -0.13883262873090282
P 8.268220081432704 1.6548462179000176 4.7908371408514245 1.4451530664900853 0.52896282356336 0.6518990927789805
P 0.14082656181465278 5.325079102251805 4.156347077165942 1.8618232165946 1.9197995359990678 -2.1633861066096096
P 3.724239621964899 4.936237978236864 7.884593114492499 -0.6491264151298497 -0.1774742523625008 -0.07393952760194362
P 5.243316465636296 9.02914352816872 3.6718238162872865 0.9821760628992312 0.43508567649722485 -0.6258347915917609
P 2.710272125940569 1.992515288597832 4.629856620037261 -0.8524747070456352 1.3860578029898258 2.124806960784831
P 3.374216129156238 1.1618789218790826 9.06442011237985 -0.9712149359020372 1.2483078658001407 -0.9449444322412822
P 6.217081305554029 3.592071312477108 1.9725672366335016 -0.018374902962761903 -0.19189351311162436 -1.0881965301961194
P 0.35882763442502336 3.7440362445401276 11.235645163865867 1.6348292602354166 -0.21433770104775346 0.12177541613829995
Ni 1.7972821786488413 2.233703524739412 10.386172458502774 0.5536580123171948 0.15613538167540852 0.026405229466406135
Ni 3.6910359583545804 6.710482576043731 6.316720920232924 -1.8704919480131916 -1.4812721808101457 -0.9680144266868682
Ni 8.790568372339076 7.300401615087008 5.529886427661735 0.05008637513342987 -0.9187302357397598 1.0096547279354742
Ni 2.919373951891422 4.899673320868438 2.9327893030759133 -1.0649208474976304 1.4056107854210889 -0.5357618487630643
Ni 8.368957559182585 3.526919741166094 0.07495293085560586 1.741251333846098 -0.08262985628708995 0.5133973650249352
Ni 3.901919849677178 3.2778368630926944 9.831186517495347 -0.41138653310807216 -0.09989429979449248 0.2665542351503087
Ni 2.452777529972564 4.792509327581077 11.504414785872402 -0.4491159293380459 -0.18166257941223554 0.2471470342682905
Ni 0.5225615847410217 6.303553026830622 11.414275518659762 -0.6959338624016917 -0.9598329193173404 1.2757852452848029
Ni 4.524433141374633 8.02856460618081 11.753481043646998 0.3288366381292982 -0.10941123814599221 2.383570239135811
Ni 2.941783654778586 8.138978791234253 8.19471588662283 -0.7053086187483724 1.1464456436459998 -0.5514059830582245
Ni 0.17275415581681033 7.818197790820998 13.070165121984687 -0.8063007795927339 0.5166508389652263 1.4878038112810763
Ni 8.927658136972667 7.871632051475312 8.14401104837208 0.7635165945476722 0.018641783470903377 -0.6882025551957051
Ni 4.947881420898881 5.436047297265376 11.643286615877738 0.2815936459819344 1.1705458791283132 -0.471614110440562
Ni 0.9662210709606608 5.0683878207259845 9.514873607410522 0.16672189894200318 -1.0384659957402114 0.8704464610327073
Ni 0.976996564685144 4.236809637075018 1.4501099904349706 1.490514782454336 0.5812143246689087 -0.908151688892965
Ni 2.5153714219676546 9.001978573123793 10.68364625989346 -1.7321087481148816 -0.7768889020895201 -0.07859476698576785
Ni 8.717429824102888 1.8923410543074137 10.491758446753707 -0.06616656852474412 -1.0580264343706425 0.05976914963883255
Ni 7.275849740354016 7.071863273035009 12.08188799116141 -0.8118435637878341 0.14542827967054953 0.22626453439232647
Ni 7.221187424288086 0.1613369338885126 6.46313374914553 1.1993766873170764 0.5978218513186027 1.0640690410202962
Ni 4.274897821833796 3.4023690686300587 5.907052715116917 0.412393891326664 -0.8824535127959126 -0.05117626576349896
Ni 4.3416190880318375 3.141153372429863 3.023333920909379 0.8860931664310288 -0.724558725227236 0.04069233551303959
Ni 4.065795995882942 1.2872975433526515 11.488576564462285 1.0827751020702319 -0.35118003882150484 -0.12471701526512714
Ni 0.8602075716904972 3.2291486210968077 3.6066454678282 0.6786383085460377 -0.2868975746933511 1.171106122507157
Ni 0.6061192136273438 1.807088154943101 1.501207252407479 0.23546496994467192 0.14871492084162133 -0.6214492609295555
P 1.642953470755944 7.892158120498042 6.137049950063919 2.496234437001462 -1.816499810067452 0.5351620103955363
P 7.055150639237825 7.285397178666884 6.8631520241060455 -0.3611654321689909 0.9712049085997081 1.1410548116477315
P 5.732673463417066 7.024818593920834 0.3667204296569756 -1.414504488366293 0.6953538215285057 -0.4801175199258828
P 3.0343587191159194 3.307919603927627 0.9748857867370576 0.16418164901865273 0.8692688957848385 1.5138395732232057
P 5.949937702780467 3.569726244085292 10.877803667169868 -0.6488981011691276 1.1224454240766604 0.720641649561017
P 8.462529841448147 9.341808282666106 1.246238941857656 0.08634561457578034 -0.8964475130821594 1.5275520377132918
P 8.665472923342248 5.798619115670929 0.04590803534597927 -0.07475559574533577 -0.5573935681002271 0.4892133115795639
P 5.7195618943607105 7.1240879452763775 10.31923697512015 1.2396118806880394 -2.0819027052221375 -0.31122766679828334
