# total energy = -340884.6809361139 ev
CRYSTAL
PRIMVEC
9.06969991304640 0.00000000000000 0.00000000000000

0.00000000000000 9.06969991304640 0.00000000000000

0.00000000000000 0.00000000000000 13.27442260206237

PRIMCOORD
 96 1
Ni 6.408940207363444 2.1956836582558052 11.596987245615283 2.1973190119116284 2.014124312125583 0.3447677075372579
Ni 4.86664680242007 0.5052085887374831 6.7205877948507045 -1.0049125852647984 -0.9475782703197034 -1.4556691355300606
Ni 2.8850987597263265 1.8657098350716061 5.288464035067533 1.2641630876648422 -1.0868765258331152 -4.70061446952493
Ni 3.7318912945400453 4.794334084805656 5.030767557667985 0.7724316376491149 -0.6977593456462048 -0.925719008352767
Ni 3.7841327661892397 2.6119284672606873 2.655044006831163 -0.263763559779049 1.8539499844941105 1.1069007914738422
Ni 5.383601559548676 4.917155961380896 2.6193619933307706 -0.43101819129607066 -1.0317160786108877 -0.0680100494913861
Ni 5.480620139797188 3.074573861153986 0.6337915387140381 0.6548458341121303 1.5128419851966268 -0.2932392006406627
Ni 5.624429302031498 8.033532069554177 12.41321761254423 -0.19757205155364038 1.2253985653021349 0.9644290233284551
Ni 2.26136642521474 5.796780809974144 11.27966202596615 0.20666295811131505 0.8656832353161091 1.6566381285803922
Ni 0.9764801742428559 8.015301972676593 12.060689259551488 0.5208854458718642 -0.4714534164929816 -1.3340909230042315
Ni 0.6012322229026765 0.38916994074669203 5.441464431220122 0.10698823052679639 0.6792175780882754 -0.9356882037503369
Ni 8.880605765066008 2.7013375692602977 1.3804473304401834 -0.25520101492101854 -1.1967076251253455 0.48624754408302073
Ni 1.4842563950330971 1.2596906245410748 3.1553966782212535 0.04264354570213946 -0.036708668274943235 -0.9280281161019179
Ni 1.8756592959047946 6.490014255119024 0.6241676801086632 1.0060266442645833 1.17357849530705 -1.3289057792588663
Ni 7.957110777867352 4.156552785088409 3.7607900794559876 0.6011072069380938 -1.082403063442794 0.6232330923028557
Ni 7.71467769849531 4.206263810454595 12.896406783769576 0.19034570900853023 -0.1322053532223723 -1.4346367403397937
Ni 7.680593766124185 9.214815138121764 7.400490595025102 1.6735639578014534 1.4388610628337863 1.017040993097216
Ni 7.000810685988984 0.9688888353938324 0.3448200150145055 -1.1373297973876606 -0.1845057052879855 1.0263177904134517
Ni 1.5530954175708376 7.185415358549349 9.273233075429482 0.9392280985827953 -2.5175830778805675 0.2011836801642987
Ni 0.25657546248707486 5.139327331088998 1.594006113086119 -0.39390894514859903 -0.1318893646438503 0.49069735232425815
Ni 6.443051348834385 2.2267201714473925 7.265781969709681 0.15722527230547761 1.3950906026160554 -0.06004991410404496
Ni 3.6979887561677036 4.494154225921387 0.595105640593817 -1.012169523937528 1.1767972593546636 0.034028036118986554
Ni 6.383454350534582 5.793044093599236 4.770920654412879 -0.7068307118198537 -1.221153931093168 1.2522359972099533
Ni 5.1370145576045285 3.512005489216597 9.546208369346433 -0.06173681488816465 -1.8702469218819209 0.30206734045525396
P 0.057210760245825075 6.0318492929956395 12.50128077107288 0.359252274306678 0.33581024123365394 0.24119570178086203
P 3.977135980893207 6.6683880438212295 12.864190302615912 -0.5423562141511304 -1.8922020859967736 -0.7032597066391436
P 2.474631349582648 8.661762975235556 1.9377205316780484 -0.41179276740755527 0.09480454397641093 -2.2879845940190013
P 6.636834557733115 8.119848403874554 6.06155256029618 -1.8084993083604788 -0.30266100817519487 -2.5368133868650893
P 4.864479144134626 1.4747785585967417 12.83253070103851 -1.590359717068132 -1.9768057781807826 0.18911080816016462
P 3.8900759311778224 6.648788422252843 8.26133662989445 1.050913734585261 -0.5706059530254431 0.7263312437466265
P 4.956173810518888 1.3020098444568975 4.062292300591376 -1.0890064276919247 -0.48758991704352794 -0.11273901696764456
P 0.33901359311349605 5.8789522914223555 3.7213114895610895 0.34923088551493403 0.12870736737144284 -0.9574222529933188
Ni 0.6493859807893201 7.79766545293804 2.590968390701436 1.1001148789002602 -1.863940262937603 0.4337700430095948
Ni 1.7204132420472846 6.908780440706975 5.084209857589116 1.5970494703834817 0.8585684786481989 -0.8328240226942432
Ni 5.729565263725502 5.723270891967769 9.531566245764756 0.24980401227516336 1.3665942949485754 0.04080494983150392
Ni 8.952347091584258 2.590687230003324 10.32455369265978 -0.588998853710334 -0.10247825847158479 0.589938591915784
Ni 2.6639885449110996 5.436713722392024 7.015572529609858 -1.5877891281274785 0.499086861939534 0.3999548942323628
Ni 1.0748138609825373 0.28119516297175157 9.61208885576404 -2.10113892774393 0.7663571493202609 -0.29902135454007855
Ni 1.6147875165565702 1.4615640057854786 11.661327696983234 -0.14792842038458393 0.3908020240885012 1.2949109103706604
Ni 4.23993960632846 6.828096390048776 1.7512012454605406 0.3975511698868766 2.191165590715723 -0.4275631428679347
Ni 6.032593008390646 7.672948009075528 8.060348451364103 -2.253893565872563 0.08328780158606301 1.6869316373576106
Ni 6.823606888578923 1.2048189399095426 5.208910069021744 0.5774682273629153 -0.7977734588480132 -1.0783430344408074
Ni 0.5732830355703576 7.862314274103918 6.944753591575413 0.7312885877519018 -1.1661009559830822 1.6786048626594705
Ni 5.453284064180752 4.9432948366053715 7.4232029376125865 -0.8593652635178812 0.28005509785022087 -1.4164628976442444
Ni 8.310511635994237 7.648224007041552 9.165829688750707 -0.9712694432890563 -0.36996451851785966 0.251776819730818
Ni 4.873494425874087 0.9140262204622394 10.6054404858336 -2.552315082045114 -1.0454766227300898 0.00665118676793048
Ni 8.138903843446597 7.446958295693067 4.664671840536348 1.0979494958178253 1.1523707508811831 0.060697832100689006
Ni 7.559885129634755 6.389268028195543 6.884527156099839 0.36774899892377955 -1.6346212579896686 0.49568503534683667
Ni 2.574325491313194 5.488864497041828 2.666274109295752 -0.43358698046451133 0.6811636460710527 0.6280071166527313
Ni 3.1366559572370996 4.695619470668532 9.218887433394418 1.1744408433073452 0.6431228892482472 0.2010155300175506
Ni 1.7436407435913102 3.6885562682310438 3.71715666001899 -1.7724290450004831 -0.8169186643178964 0.6357330245420794
Ni 0.7633358768841373 0.44414320601754215 0.5860205221648244 0.021658973030672376 -0.26669641715512776 0.9098763848935556
Ni 1.1214411883694309 3.7383307814968036 8.392766558681888 -0.7382807027990188 -0.06386131743033517 -1.0251515380194924
Ni 5.573013173076762 3.337976086785218 4.518759414886162 0.03985004211740233 0.48558008570235084 1.9423745930861063
Ni 4.43320584233066 6.9831882590073215 5.999893112230228 0.07314299984257727 1.436028735591314 0.8891944310641718
Ni 7.9396606751845304 7.812367436539315 0.013163762491604261 1.1816605009842358 -0.33012167548930893 0.6212268605061043
P 0.2395588914613425 5.8847659690833165 8.062645806358676 0.3518035313381167 -0.36205014876678937 0.5795227958990987
P 9.053728197503476 1.66897897369267 8.283571906265138 0.12361735444304517 0.617529099939543 -0.475969044975148
P 1.724966231416711 3.8856045691078482 10.624529483295417 1.1766108543754705 -2.6084363505187143 -0.18991967721470518
P 4.2019375635836465 6.48102618247938 3.895418891411944 -0.5937319975199451 -0.6741098245480648 -0.3946941600540558
P 6.888446173443522 4.19538017052768 10.726676071889495 0.8508551691643411 0.1372521716176604 -0.6103634354290391
P 6.211211678991206 8.289669465534192 10.373310585592373 1.2649758133741247 -0.7716860177323419 -1.8917925092631807
P 2.727757605182885 8.829806375707129 6.070393703796811 -1.1580125225479927 -0.5198706314541046 0.9427355975154215
P 7.320572027041762 4.249753021662562 1.6987411940428143 -2.1322001679251086 0.35537376518787833 0.2970251500456562
Ni 2.8417274546175686 1.8430900034235003 0.609537347136907 -0.4699634622110164 0.9767160682259243 -0.41114690629344025
Ni 2.312129535773862 1.6283739270653363 7.318534065465446 -2.3899612302638196 -1.1237415171802645 2.7367883914332674
Ni 6.898277728177502 1.379229269738363 9.44071596844482 0.3534544366779784 -0.35533262753729766 -0.8047509186071109
Ni 2.759147836672097 2.0227788986168744 9.650810125714022 0.8124459732585234 0.6353509586123122 -0.2205407445346718
Ni 6.288884589269626 2.3465581167426706 2.5845171131347566 1.9910982835440547 -1.1149221191164218 0.39237759610573714
Ni 4.140698949594869 7.175094040018657 10.606316618847718 0.4721797531360448 0.1105710627820483 -0.4650832513005796
Ni 7.12830345803286 6.450053157187367 11.303144386078463 0.8863572187256928 -0.06044097889487655 0.7847513355567324
Ni 7.487744736319184 4.124591162503034 8.547427616893327 1.0485467770149812 0.1931577245360286 0.010497557097214179
Ni 3.204869170479042 8.825942683533075 12.965539664585343 0.5415128923142287 -0.8627447215130755 0.3037578407837994
Ni 9.109515921828857 5.137558739600873 10.374266531965954 -1.3705964741294332 0.7276283652914952 -0.024205393601609927
Ni -0.02183439563338025 2.7799900071321404 5.966441337944859 -0.39893545182891293 -0.6971484515350832 0.4753926036463877
Ni 3.6023850491096905 3.154350941818276 11.770815300708016 -0.33586192040719576 -0.33911847967128045 -0.3536195015009329
Ni 1.1801130772754445 3.9564298559322504 12.841769097396472 0.06013707450121256 0.07345616020762187 -1.168952309388948
Ni 3.1865302372021893 8.65357303619055 8.636551930314848 1.6288357616561433 1.0755811554249541 -0.930629558280507
Ni 5.7382177574674 7.910837168778083 3.9225917124294765 0.45359993325132847 2.1952616151619675 -0.5121778907955373
Ni 3.1490451673539046 8.593658598392881 3.9278485105141767 1.6413079259812249 0.25156187550653447 0.5836103357049109
Ni 4.065610903799091 3.059717692653746 6.885349777884315 0.8501717699440713 1.2105920964169217 0.7649746671504374
Ni 5.170472680679854 4.909455786132604 11.883833738619087 -0.24510789235107466 0.35726352601142347 0.26655552070188937
Ni 8.092802558656171 0.14995297697305351 2.3990063775504766 -0.6277314943938416 1.7196021310074385 0.748422419218711
Ni 4.4434364638619614 0.5803574015228528 1.8300387052111409 1.8170209726782447 -1.6624457364011047 0.14619241153008372
Ni 6.309091880733933 6.168928737875141 0.5721130442782142 -1.105772334296354 -1.1963571837644622 -1.1271364017944265
Ni 8.034511597147599 0.05236663350835378 11.172126221668261 0.4438297412384421 0.30342154049030323 0.2213750675105091
Ni 0.3106227113941431 5.205998695341294 5.738692102774214 -0.589860687489997 -1.1780966948923774 1.2897512205465917
Ni 7.340915364005155 6.381585992347129 2.6173448920643154 1.4463756260432767 0.132100709323708 0.5657558240219934
P 8.626463703072593 1.6346138806234345 3.9726501073033305 -0.5720244306395246 1.0215041710748924 -0.4264879075258849
P 1.8688842300502897 3.504495777667025 1.5445191093084283 1.112877320772251 0.26379569856856505 0.9021587045343236
P 4.692209263491431 1.5922221031080985 8.488899936216344 -0.43101279197943193 0.6932660857615416 0.6745862499638511
P 8.649056325620881 1.7376547416315067 12.535249518254778 0.4079507679536458 0.9659035509914526 -0.46198841442533983
P 6.44089276024888 8.115313553905008 1.6621703499483904 -1.1988953768052837 0.1924488713944621 -0.514432748267985
P 2.072580620982452 3.736888699206488 5.846149000682633 -0.9612241432379123 -0.5571089469802729 1.7569224647244517
P 7.067055774344144 4.05418308187583 6.214633676778227 0.39827622097835924 0.6830032703829527 -1.1614382604000901
P 2.8140558001033855 8.829661260508104 10.840278598476646 -1.3420582574804243 0.7588253597195899 -0.5851691955515986
