# total energy = -340861.2428274997 ev
CRYSTAL
PRIMVEC
9.30805412447852 0.00000000000000 0.00000000000000
0.00000000000000 9.30805412447852 0.00000000000000
0.00000000000000 0.00000000000000 13.62327808370827
PRIMCOORD
 96 1
Ni 8.102558665405146 7.843403824433912 3.8976061526873877 0.027470951726759143 0.4138833313879969 0.26664422376095365
Ni -0.17922285758798784 3.7242734317047654 0.1928684648311396 1.7271904848776576 0.5808140039066965 -0.15270450161698862
Ni 7.455593060328403 8.925399951832064 11.153922152968477 -1.191148642980329 0.023924629136397507 0.4388322880238507
Ni 0.6205986803580023 4.661454854130915 2.8275792519972627 -0.4698282221847328 -0.9505329820726532 0.09136955015293295
Ni 8.645385761725834 4.979501753101757 8.664132182590572 0.254923850000232 2.881416800910341 2.1314074968204837
Ni 2.112593180310163 6.631513802712305 2.436768502070153 -1.6799904301530872 -0.061522641994829534 -0.7138508518914286
Ni 1.10279032015477 4.055872857378219 7.411308131555727 -0.022999803329282968 -3.1733362542983152 -0.015571372075695764
Ni 4.803179285156993 8.81040825204905 12.171472106513008 -0.6347966287707391 1.111870990994924 -0.915025533194663
Ni 7.719616013569876 6.5941419656855285 7.1494828098764005 1.4139396170017584 -1.2186743592044236 -0.8500247028432457
Ni 2.874680797926677 1.6541901342591823 4.60720193027182 -0.9232543488623582 1.1253062905642233 -1.0237495154656433
Ni 2.9309386766290024 4.4344034915918975 3.0847049371847284 0.8176797108536369 0.2328851250326376 0.659102038285323
Ni 0.8386044759673517 8.692689292428218 0.3751238864299179 0.5737720094582506 -2.9184044338782833 0.6039770722867212
Ni 1.6525426086916255 6.476907024875503 11.398583422972242 0.6907600315102361 -2.3736663497585377 -0.4921220005859267
Ni 0.0953368128426042 2.125168361337106 2.269433891119923 0.6009845653173005 1.2480139887088055 0.279369384637106
Ni 7.683537996056605 2.8471754981971316 10.625489031436885 -0.6481681649816385 -0.5246724237181222 0.25468653717844525
Ni 1.7437056900964198 1.9271674355005957 12.980000398221103 -0.48774778277763103 2.0258243741713304 1.4578057222570893
Ni 4.006102692351525 8.365930054862842 1.2792859179049383 -0.02168416984165298 1.138880172593916 0.14931604476072996
Ni 6.012472359797536 1.5022268437737143 11.446209943150302 -0.21812133645990173 -1.8642984176079698 1.9442090751916838
Ni 3.88471635943342 5.2942070606672145 9.83886724494486 -0.07128743469107722 0.484468854916043 -1.01384562608837
Ni 5.242752137856749 1.4489754665308279 5.02478264365821 -0.07672737475972592 -1.6838216309737197 -1.7231929336824905
Ni 1.8090109973392252 -0.09798216180474863 11.893598768839196 1.447152356308301 0.7337499048082009 -0.8718119739216663
Ni 5.657714495637752 7.032774704925831 10.885476012440547 2.0247769067434227 0.5181335941583399 -1.1851050078894105
Ni 9.043863555777216 4.601222436347536 11.198511455108719 1.0036193203746715 0.680186626869764 0.4049073531416317
Ni 4.791888615589501 3.064509252303783 10.244922725801597 0.06762798356161902 0.8397809136280505 -0.2637902992519263
P 3.6196509041378997 0.30538515304119623 5.935539431430484 -0.4866604632507232 -1.4792605496967555 1.5579036534219555
P 6.438520609956842 4.266151106511944 7.935655017357617 -0.6609306068536295 1.4518081099127575 2.2064921937704645
P 0.5174486869424775 8.411195121727403 2.7432920301221517 1.3670020719099554 -1.9612894277127384 -2.515027401338249
P 1.6898120571238082 3.4206260923554495 5.179488086867984 0.08569049749028468 0.48872788730271316 0.20673212078635364
P 7.968085208487129 8.473000600645907 0.24554832755511083 -1.9398230303088464 -1.3299187939044126 -0.33926580388242217
P 2.1894870148501884 2.96497823030445 1.8421802479606246 -0.32621308446352204 0.4012003366036897 -1.2957154085498266
P 7.830530785677241 3.7567678484072506 2.2158939642013626 0.2807202422380456 0.4893979167865443 -0.6180332932694711
P 4.1983419327286144 6.246095208498673 1.919860613068212 0.5360544403028187 -0.3798799778593587 -1.4705789627623576
Ni 4.370392003862596 2.554074184090988 0.4380454010294962 -0.23137254504285315 0.15584227591502195 -0.678121002589987
Ni 3.4775355348415546 7.936856687135987 10.305356197552543 -0.8842946797697093 0.11039725620834535 -0.5479200813921531
Ni 8.77022538269797 8.664634817509487 6.268151573385011 -0.4652292899601407 1.0799121787001402 0.3342858341693275
Ni 0.20519512081484076 8.018600017838143 10.996859910472232 -0.4953821593944372 -0.6979413797500238 -1.2991768847358658
Ni 2.38692945744346 2.082816715391444 10.616443464507215 -0.4119112952632906 -0.6999712656958591 -1.444148793595287
Ni 4.791097430994912 5.750143472393888 3.867048742033538 -0.7997130990728871 -0.8224534780931965 -0.285337943515715
Ni 6.575935411955921 1.2655416452888142 9.19320569824108 -1.7915017453612179 -0.571603283941706 0.039456149113093336
Ni 7.152969606925026 5.416738284233961 0.5481354795476772 -0.4384594780654642 -0.9275396065012735 -0.5854188496685595
Ni 8.221496980107053 2.922924442088515 8.411188606089565 0.5274523004561046 -3.3985582063587403 -0.19747460674382764
Ni 8.774069609022268 1.0666099140469045 0.2719766854306093 -1.0229540161475414 2.143336387047586 -1.045601321233412
Ni 1.782725052690753 7.830903107839401 6.580342775550485 -0.6471543790051435 2.371235885940174 2.02319182164449
Ni 7.027357417466408 5.653004620286431 3.2325317284486026 -0.3395308846183507 -0.9364693048907355 0.8547784154781471
Ni 5.011679695966406 6.327466217038668 7.981265413027582 0.15773280806951545 -0.17954604728986498 2.2749964092894497
Ni 2.8344234641431627 5.551602679422246 7.236330677421764 0.4416892978566716 0.2971745311393269 -0.3344143893273918
Ni 8.655084754050092 6.34983347093041 1.8879954208197771 2.48160126046932 2.1635311168279063 -0.9024687795755748
Ni 1.2778655088562991 8.87574148345402 8.803538908157206 0.0014169349521846565 0.8476369193373595 -0.7293324924667955
Ni 1.6691761012861088 4.420059780294697 9.568922507714236 -0.42441045617156586 0.3942334183675533 0.6181788177084
Ni 2.7873340186840188 7.477997546436361 13.078101703117742 0.6975084059776633 -0.6732713878071694 0.9659721994458589
Ni 1.9821408027434702 0.8776983029941168 1.652585425740274 1.4325628885299007 -0.8041073714858409 0.7667338159333892
Ni 0.18615642705280622 0.8528625531672561 10.267101957001449 -1.1905436624064785 1.652615380574244 -0.42077800162530116
Ni 1.2531619333970054 1.1566187967490038 6.481520096464662 0.4090571136439471 -0.01777197927144036 0.3139072705129755
Ni 2.8535887474403316 4.027557756945976 11.639973842781435 -0.0752495046626188 0.5044365562872215 0.020087514778494436
Ni 5.653395558556699 7.723162382164448 4.205874010069105 1.7280955131904303 2.591621592954221 -0.02749100633141717
Ni 4.00721035078395 8.699186314157904 8.021508784730015 -0.02453783724036419 -0.06355175660971635 0.1906177317229943
P 0.037174506280831895 2.3711336897138358 11.709520830256645 1.1664457409170104 0.9806423998635241 2.0672960110525556
P 7.9455969498926855 5.922305240176518 5.103089440803632 0.2819775116839144 0.4312261935418186 -0.046033030999662654
P 3.460511103976804 0.7258513631843236 13.345580736829461 0.2861524689972104 -1.4020955731789788 0.6366899891387099
P 8.315322164971288 0.6408427671200286 8.30626263596054 1.6525184499850636 -1.4334843719029053 -0.6519538572763159
P 6.109155117256346 8.010474086649008 6.672231885171491 0.22514456185527032 0.6646944447714359 -1.4476732618087778
P 7.880552268163392 6.818791850278617 10.09106152309452 0.2774670254080705 -1.045966674992631 -0.13150678449345093
P 0.43506030809438107 6.17904929514777 13.47090158419619 -0.27028773405081186 0.4134099912960042 0.004961457770333391
P 4.015643447756867 6.1749351352559065 11.737925288007807 -1.8196470974471821 1.048678417496839 0.34756532488705305
Ni 4.49147117099692 4.78164975613011 13.133738734614667 1.4899735652388857 -0.6048083099387649 2.390188258672961
Ni 6.10585075806718 3.3995619660312664 4.051862947691759 0.5743080844673787 1.135762967121173 0.9564184943191528
Ni 5.630413973097394 4.1109206890535255 1.902613719711571 -0.8568751501061758 0.731061045122128 -0.8876540831602454
Ni 3.999456741756975 4.229402909106785 5.380404295234205 -1.5475379939169154 -0.8765690289906775 0.4639391103938074
Ni 4.718438761049454 1.6603148338267086 7.430053621615061 -0.38733591991677163 -1.3867142056269022 0.3310626992463395
Ni 8.064609729027023 6.67725358033362 12.265132538820488 -1.45864647299083 0.33756039115554126 0.7064758995835962
Ni 6.777426858062679 7.884703660271472 8.634106261823206 -0.6787234120606763 2.92665510392285 2.315950225993992
Ni 8.779542744806013 3.174409446519262 4.682470578574018 1.266839863166057 -0.45884138415592585 -1.9809431973879237
Ni 3.328364660572284 8.163768428864197 3.5555938069437336 0.07579612119470817 1.3766125984165258 1.6914601213555838
Ni 7.189615415735591 1.6649316286374884 2.6682411902848173 -0.9419758365312616 -0.5300437153323646 0.24304483917445882
Ni 0.6162555423364097 5.378621802882865 5.772659655150495 0.005979614622202605 1.1456928246403753 -1.732499812905713
Ni 1.957809549446336 4.846908523102646 13.594519057671036 1.3440593470708528 -0.8166708099731483 1.4361981712896428
Ni 6.442941935632487 7.5443732798953755 1.8896029217549013 0.2662325901448318 1.247061394987549 -0.18179627677662238
Ni 4.274640051809184 2.319594994416884 2.775674750175989 0.0592983806500011 -0.7895940083610143 0.268040589887848
Ni 6.593853416009855 4.867228005102509 10.344577544919847 -0.059968924354464465 0.6014751318004737 -0.7735012165642098
Ni 6.919700464277941 1.301386961450736 6.644331923950057 1.5738223815347412 -0.5567291950433509 0.46865117115749616
Ni 5.841660259852735 5.67333341034035 6.056132718143189 1.2624718160053483 -1.858606252319199 -2.0938709333276067
Ni 7.143922178384546 2.7806787600354146 0.13487835726936617 -2.6190400941764893 -0.2698992403631416 0.03131295118066865
Ni 5.493967208719931 7.057785446168906 13.474239452379951 0.09912451150800348 -0.8997943180672052 -0.5545044194778902
Ni 3.5975349677056148 3.268904811275385 8.396066741473451 -2.2972035415141083 1.2641042094024488 -0.8057019696664705
Ni 0.7852730494596012 0.55997625510976 4.094599016269851 -0.46193082171452704 0.7961714044682159 1.1676806417653762
Ni 4.244984591593167 7.316623813302307 5.931289373949432 -2.7187595589560147 0.5788183136329064 -0.17926425438338806
Ni 5.969627386987012 0.49866596466692764 0.33496614882478176 0.7010932951154442 -0.17312908801992763 0.8678738152095248
Ni 7.999229957351786 4.065869707432205 6.5142425604914695 -0.6080342730752303 1.3538308246353201 -1.1280545427333217
P 8.032711027783995 1.1790325909110158 4.768678982805873 -0.11881324818618248 -1.203369353416237 -0.24340479361703884
P 2.2404206866336307 6.698336322765911 5.067627616468735 1.2052012644186534 -2.104365662211343 -3.313791249123989
P 5.636343203529787 3.1584647499247747 6.244365772055441 0.24014412058789608 0.6029530018975809 -0.22840574910504535
P 5.933921691635899 3.527436012625004 11.981482622800769 0.18631164814847267 1.1587136623800756 1.6612049220154679
P 2.014998233554061 6.976060731574861 8.625537267261102 1.240290651922619 -1.0944702790199732 1.32152311364155
P 5.414132029098844 0.37075840907859586 2.6398506946147373 -0.4916795137318694 -1.165928692071276 0.14540771084525927
P 4.300283740727932 0.9931972917230723 10.186342487612801 -0.09999045905272456 -2.1247951337102893 -0.9670222379769281
P 1.5724095713408113 2.1171168945804033 8.4488983254785 0.26094305961111836 0.5305674490463186 0.7267745019316322
