# total energy = -340860.9393771674 ev
CRYSTAL
PRIMVEC
9.34743103584317 0.00000000000000 0.00000000000000
0.00000000000000 9.34743103584317 0.00000000000000
0.00000000000000 0.00000000000000 13.68091017376790
PRIMCOORD
 96 1
Ni 9.027814473794031 7.938876130067894 3.285497741894706 -0.06163191387918418 -0.6441384749969552 -0.8068821060175008
Ni 7.795065901234056 3.91556414537949 6.426813227194276 0.5425433904612722 1.3931427348610652 -0.1919693606548823
Ni 3.180575631034052 8.478101393034258 9.851281098053455 -0.21755080866841242 0.3379763956470373 3.0300185932128656
Ni 4.884444082921565 8.904634025593035 11.76591168940498 -0.7309142351316187 0.17254647604358025 -1.3595787828626908
Ni 0.5562871291145876 5.0280860579940105 12.8647760703101 0.1729030880520506 -2.0717666452293995 -2.245212493158798
Ni 7.053431363313652 0.004048372447704556 10.308880852910065 -0.30586357427289257 -0.08397968544676504 -1.1779282876353134
Ni 4.163729096000844 4.34728460224784 4.987991186654403 0.02738739087401735 -0.6460171800769068 -1.5933653366636753
Ni 3.8478887435753317 7.062778794502072 3.7406344486331666 0.5751781457771579 -1.3740019002665562 -1.0915657037786684
Ni 6.4015882493892065 7.654359019554775 2.1652090487057283 0.7531992717820641 -1.1334456318419062 -1.0338812045830066
Ni 2.4822010046536533 3.858357866506361 6.333892283236434 0.07158388288557348 -1.5408958060100495 1.7836552527336054
Ni 3.6455916377955533 3.775118991773484 11.194856553755807 -0.17906987898439483 -0.46764407004922043 1.5864002181997519
Ni 9.562422105753315 8.114617183841371 10.722509356713228 1.1810557775207016 1.3876364603308553 1.598082025413054
Ni 2.8044817371679867 1.3399916505847127 3.7700620315005495 -0.6798714096221904 -0.3607486563465465 0.08282140347260576
Ni 2.065006455852107 1.1878248182684288 10.96344406931034 1.4465887704953473 -2.1858243810084677 0.24730798532618697
Ni 2.1805313579097856 8.023498424616657 4.906043192168647 -0.8245067610777994 -0.26307913211751466 0.26716127260668826
Ni 2.9263722398649787 8.950913157406902 7.760578553864383 -0.6878330876714283 -1.0674562123249747 -2.5139861045579286
Ni 7.747777246851842 6.081644374671979 4.90314268427088 1.263898521149546 -0.7569476830809029 -1.1894136625670935
Ni 0.36579676366890207 4.926339269508062 8.15045710450401 -0.6429233716429313 0.518019694288295 -1.1970899481654287
Ni 7.456417816708801 4.852690859174504 2.4934693329512934 -0.8394032185736575 1.1147601396172608 -1.1035197908167511
Ni 4.631212824596088 6.758183401796228 12.317553145218923 -2.3417504748865476 -0.9132383593872531 0.16434362851781376
Ni 5.679517884946165 4.705646419149473 12.31647258217354 0.9006684931420424 -1.6422286380232813 -0.5679777713739766
Ni 0.7573746772985844 2.7928348379072157 11.265737189714475 -2.533308459035624 1.387951677578429 1.71263932653636
Ni 6.781411768299452 7.6731473562435 8.361840848142052 -1.4838080598581218 0.5853481443316242 -1.5623601465314128
Ni 3.3518953498554076 1.5794728376320244 8.851563050277665 -1.278020819483541 1.1545744434007212 0.5645880289661374
P 5.278073757697106 0.010456036527366236 5.345295809088626 0.9255176909752384 1.9775866222108653 -0.8748844421994031
P 1.0861808515255533 9.301563343578088 12.770432447325382 -0.9174997057667682 -0.34486180991296095 -0.7147139712226723
P 6.368274004633679 3.803488445430338 0.6042450595698935 -0.6772959355855304 0.24788674064779245 0.6946552527995843
P 2.9841019748846587 8.701000237153314 2.4619890541949334 -0.28808953811892324 -0.18097326665469476 -0.11498821801313745
P 5.559263182707145 5.4704438915547815 3.8352790589021533 1.136374889673559 0.6476835120357362 -0.35873162591651764
P 1.5226965405935633 2.7262063483961603 7.968678544925932 1.2818134537567536 -0.917213284874601 -0.7137063558937644
P 8.808336789489937 2.7447983890299272 4.565210612974656 1.4671833068172475 -0.2620118671952649 1.5704460088633403
P 8.598094367200002 6.172398584080345 1.162845677903615 -0.6867218568851206 0.8488386529549445 -0.2919323089037811
Ni 5.263688061098127 9.11310978338836 0.4063132041551071 -0.43892716173050217 -0.8066165110609399 -0.734344086748774
Ni 8.206848287377507 6.385267634534227 12.00019663945465 0.016147813404456063 -0.11678027691655371 -1.0473715257599574
Ni 5.0092883738740985 2.052237864848726 4.303822786194164 -0.2502236163110852 -0.9629668369606319 1.952265112726941
Ni 6.365208047203877 1.5707236420396635 12.54819914030694 -1.484881752538275 -0.13878223510894164 -2.042107170491754
Ni 9.100948775412226 2.0500973031065777 6.642697758949541 1.7811227161197387 -1.2623761709677486 0.6829639325045851
Ni 4.246874496421837 3.129912553992817 13.729477952514118 2.590474623833971 -2.036214973377035 -0.3239332872904099
Ni 0.688339224256511 7.037905280109688 13.534210114988031 0.37070833866241965 2.7700396972872294 0.07677442594757745
Ni 8.674556354321275 6.794002758110253 9.175334698066552 0.49498106730127656 -0.6061761368205689 -0.09754225462254813
Ni 7.9211066633787075 8.668349660012165 5.178634849971578 -0.03923246313806146 1.3038904881614513 0.9732553633708335
Ni 0.13659120772702002 1.6526912661309154 0.4360557954535396 0.017523096485427887 0.2356814568308522 -0.37675480196681566
Ni 0.5305536510528682 1.0317881494401393 3.3138587828634902 0.4196477446755999 -1.179755056431407 1.3406536638234139
Ni 2.706109371341058 1.111671296376374 -0.05662206442385212 0.9362255643110456 0.7104855349636215 0.5256162756886302
Ni 6.123343265203519 6.43392101386995 10.354588856678317 0.41692288954526907 1.7844265836819913 0.6961943151519301
Ni 2.036496790727427 4.262961425497107 3.6899330471240592 -0.19611834982624934 -0.34066217000931653 -0.8460991425365945
Ni 6.341605783453118 0.3142896135913532 3.2098564592317764 1.2102930771192641 0.3040319203807926 1.5731227843645552
Ni 1.8543807888834467 4.062580543110954 9.738974516553949 -1.9157878437365132 1.7189554985623752 1.0457756420277473
Ni 7.2620566800079915 4.8873324391587865 8.789040887287682 1.9661045897131946 2.4442385035501455 0.25207609613879167
Ni 5.576004431965605 5.3485627362889785 6.427086172184978 1.606835089015336 0.5574169651389947 0.6975264036997922
Ni 6.586508480589713 3.04395357678411 8.141633129462141 -2.6534008310445465 -3.978719921393419 -0.5649556967182012
Ni 3.5687651008579317 6.055630473674607 10.240107127941267 -0.20151072448641424 -0.05312001975343109 -0.876973720628264
Ni 2.0874309432731257 3.261730028611911 13.225637390311515 -2.1214488429458758 0.22791621106313653 0.4622676362286555
Ni 8.444843232865862 0.6548240097304323 11.999909673317163 1.8285706251890572 1.0193788972017734 -0.4963370671085387
Ni 0.043431904273873126 4.16712221352224 1.209436079176055 0.8478940296534881 -0.6588901793848331 0.41953898701187753
Ni 6.96909883913173 1.6243311599052503 5.843910222513783 -1.3088763714118168 -0.7112365541970331 -0.26195530292571656
P 2.753519542328722 5.275606035863363 12.895789912250159 1.0672196708341364 0.8238891820984585 -0.8145151970827262
P 6.690106060450969 7.928631345485386 11.972000113274781 1.0380217091139412 0.2674268675632491 -0.290454438806674
P 1.0131774139439957 0.2621580551104179 5.627081600208487 -1.2856518536662374 0.8003679590480668 -0.2785204063732494
P 2.8790088060332564 2.7603992516833995 1.9186107275515536 0.3717501496633726 0.45594246534157606 0.07383462659296317
P 7.688505185686073 6.060668739085165 6.997854341696666 0.41008761179099057 0.37000257084464666 0.9788613967037012
P 7.850206397814545 2.767512646817787 10.825403075005996 -0.4299164735914596 -1.3921418044003766 -0.07441312480425248
P 7.284088575319096 0.38630128872381947 7.663389572825908 0.9590045098787742 0.5702202875512502 0.5293731716279012
P 0.6691190362468825 6.033654662950632 3.805783239787095 -0.35496547400586614 0.037174552167768236 0.5884728060035349
Ni 4.25430570421663 7.177593291789431 1.0729168466691859 0.41301661251232746 -0.5771548098875543 2.024498970491688
Ni 6.481929420453674 1.5336891196711449 1.041879636151157 -0.005351751230216589 2.530600573186158 1.0584740634310221
Ni 5.209594476810743 0.3706723837767818 8.47953809320792 1.1212300636123207 -0.8870323904158466 0.03697349190055568
Ni 3.676914879707948 5.0018665135104925 1.126214964562436 -0.8561760671566223 0.1961430324165977 1.177697916792062
Ni 8.417558081226865 2.468432238513111 2.5249898056617632 -1.8969735392434877 1.4038925171784016 -1.190198363251918
Ni 6.9316436823597325 3.5347965359192153 4.28402679642333 -1.4818198257834998 0.41578851883050977 0.5742008694655529
Ni 6.082962362469546 7.530879453555752 4.46607830099211 -0.5914540001190459 0.19346008626779584 0.002316049727686334
Ni 0.03853198084490354 7.4571375689103085 6.525466015956858 0.7244396831508684 -0.048345224072607065 0.6783032938041221
Ni 5.169952021140656 3.6455822903643647 2.666532347689289 -0.2358614340521422 0.024629111402589842 -1.7596419205381437
Ni 1.8163554388089553 6.620785510757648 2.000805494220684 0.10379697728300834 0.14094993218422178 0.46216324944030734
Ni 0.280446304230561 0.810907415714664 9.03206848972788 0.084567439629435 -1.7622006824042553 0.005652056079454781
Ni 9.169138285931748 3.0156121654208214 9.086163008758383 -3.615876587301373 -0.1252222370363198 0.8048979857079364
Ni 0.9577004098407251 8.92632006595017 1.3269734831686006 0.6725000568587838 -0.1499441652630321 0.46578336269139786
Ni 7.945643670248309 3.2660952789769033 12.9070086991625 1.087503875004469 0.829952614683719 0.38465014555449234
Ni 2.1186513634424475 6.35206555895296 7.796271719857363 1.1472809950631018 0.33988055464828565 0.46678635003461544
Ni 6.427966700202926 6.502830276590981 -0.11247203103154077 1.5650153247660725 -0.21688592139090387 2.571824098612319
Ni 4.542496355186797 7.691851566051526 6.338666951087479 -1.3542429724720741 -1.108830404396387 1.1014827057820642
Ni 0.6917463629246899 4.999856815804983 5.822253159193333 -1.5310088859136406 1.1282491752426311 -1.6232114734908303
Ni 2.9829615882796716 8.221402237737877 13.355591921894758 -1.2527558742691651 -0.23958439142968413 -1.0894165186461497
Ni 7.6695672900983345 8.729715545764138 0.12900483257449863 0.2588095582078833 -1.7750811379113491 -0.8792388625133566
Ni 4.485402245487929 0.999436690097019 2.1925026130327945 -1.616887073934699 0.7947907220706053 -1.0073160524999685
Ni 5.487680554666228 2.498213154279416 10.327637408332746 1.197654562419647 -1.0057530788882227 -0.3575023814951069
Ni 3.7000404244680976 3.881044082000656 8.773731664487288 2.834900402516356 0.3585915007942276 -2.069352122250636
Ni 2.909518821432258 1.3204181296761617 6.248646515027404 0.34886861707950884 0.7334208036035562 -0.3150745513481993
P 4.502068715296882 2.94594576077353 6.817375075053777 0.9872408790166481 -0.11604674118463885 -0.39410871986423096
P 2.799854758729719 5.958791086562579 5.812731865784809 0.6613988047392996 0.8854606750533526 -1.3382180577987275
P 4.151773731510855 1.4212021327497026 11.67304496054803 -1.2932116682913664 2.7498866193781217 0.7439034483024349
P 1.2423390369592924 8.068983024779508 8.795498092752643 -1.1147760804568607 0.8112671224590738 -0.11745262039322998
P 5.48039890577045 4.585877783332252 9.839871623544871 -1.7911194223211346 -1.255814715700147 0.6420993330797393
P 8.041137027269205 0.44568271483449307 1.8076445676844672 2.5334578401292953 -0.5100287056630184 2.777373254834165
P 0.7377955479313205 5.866401076696239 10.692356413185625 -0.05231809267742602 -0.46957471141303 0.08835056082095107
P 4.502106105021635 7.456202825791467 8.598452373814519 0.9097262324689365 -0.36399081743292794 -0.267426610452933
