# total energy = -381166.79845955037 ev
CRYSTAL
PRIMVEC
9.26961001968679 0.00000000000000 0.00000000000000

0.00000000000000 9.26961001968679 0.00000000000000

0.00000000000000 0.00000000000000 13.56701125034975

PRIMCOORD
 96 1
Ni 6.627910093320002 7.090602669431089 13.280041677201526 -0.6602461791920952 1.3560638277308967 0.2075643868796619
Ni 5.214804418367494 2.660378029527829 4.36342226949352 -0.38508260510622067 1.6873566407101712 2.3645520461620957
Ni 2.537184914501959 6.397560288324301 6.015530930245091 0.3662934974241756 -1.0039743897212452 -2.7703659702783967
Ni 5.4219894683256005 8.5235267702621 11.644457022984577 0.5992971503125485 -0.3753288681535665 0.3631454387134972
Ni 2.4536008424035183 8.631638230047407 0.41264039071652653 -1.7775830783975968 2.18790491768658 -0.4529838969338843
Ni 8.455460025067596 3.4706068184718672 1.1305753821386249 0.2993018618949749 -2.7117718147842718 -2.826490581186106
Ni 2.5215656218895743 0.03356247641641607 8.8226274176599 0.45276123940011703 0.3171676864318022 0.9503753734488664
Ni 8.09210985781522 2.3621839499742374 5.0492213774565 -0.9444870329888896 -0.5436193971342703 0.6665538665776779
Ni 5.03901553700176 8.786626106889585 8.09760580950061 -0.27645761030694965 0.5253010584410566 -1.033345900904827
Ni 0.190306017365886 8.365442843727022 0.04926890336147514 -0.13964381177828855 -0.7084443361638768 -0.6204485875791831
Ni 2.534765546328764 5.844655869065602 13.661708593535248 -1.7676575917537685 -0.7283099647395521 -0.9705168813937478
Ni 4.610666865418203 2.1079648995916567 8.587754970014002 -0.0022859678206992888 -0.46075145669444517 -0.3870669825261011
Ni 8.457230520550661 9.14080862999143 5.125087572386351 0.12754085786716746 -1.0476810865805763 -1.5272532755259505
Ni 3.6322595448026544 4.86508984721768 9.673916870435287 1.7752531447128395 0.58343241536615 -0.09437336997626328
Ni 2.5525631972580096 2.009605069377999 2.7645906914064486 -0.21112330787551384 -0.8023466800409924 1.2781604303851988
Ni 2.0596795018362197 8.35462520902159 4.345879532835396 -0.7278247975730175 -0.12678366798616875 0.9532159282214552
Ni 8.07853914898167 4.885946469400391 9.431718650117833 -1.023148905767167 0.3599690978680446 0.4208322519020043
Ni 6.124802018223756 5.426985788039592 3.1818436399888044 0.9960633624042847 0.30962998329386027 -0.6818796983014708
Ni 0.6975446306152956 3.9851628617439574 12.985027073829565 -1.2162762912858922 0.04566819146107619 0.904422560867836
Ni 7.553044966075982 8.727050324325909 7.578681926062968 -1.1761310865255745 0.2169849088626134 -2.2061903462593295
Ni 7.006128714786185 5.155117400485509 0.932317893435704 0.5584742027589157 1.2214210687116256 0.3024671469968339
Ni 6.1666635763469175 3.146114855748344 1.0011262074189273 -1.3550996640454145 -2.2837258187426475 -1.0955542561127714
Ni 8.762015292713988 0.8855452960092527 1.2713659245207867 2.103595102593906 0.1605905892332847 1.8492438372676927
Ni 7.550273352728146 4.015372520274379 12.22565414545486 -0.06669030223869805 -0.5327726842277534 -0.21207847269993152
P 4.321390150548952 0.43520725591821824 10.128967580178626 -0.9214319509416389 -0.44964249126547723 0.09378484446264494
Ni 4.298753763273318 5.110141253449728 4.356665650867307 -1.0294221403703885 0.2172661875484581 2.2005022947356165
P 0.8949567308990772 7.971864478724505 9.77310447680935 -0.06719732378210364 -1.4417316995133624 -0.30606926252579547
Ni 5.827275350580011 4.467238192070174 6.203597409869046 -0.020290889038552154 0.6404021478829746 -4.7191061005712145
P 6.2894302893192755 6.454188334952821 8.38853714972969 0.7748996395736332 0.004349535217947348 -0.27229987938483424
P 0.3995554094395876 3.9639539943866064 10.639561792196988 -1.4925593236881907 -1.3873446401220495 -0.19488062076440632
P 5.291909033174506 1.6307746536611234 2.6457431694824685 -0.07243080426690106 -1.1582884019171986 -2.101836982252219
Ni 0.23782574534697123 6.16428128661316 6.37374109883066 0.9399235819879233 -1.6519340382365033 -1.021873124378537
Ni 2.7741624905468334 3.3029659241721787 5.168352549442164 2.0940971904058 0.23142756665050465 -0.28353662864091816
Ni 0.04850230662613733 2.9210301891525434 8.628429091114228 1.14294302980938 -1.7748600230394789 0.051606411322382084
Ni 6.665238812222123 0.42910785263100804 0.5339341626822918 -0.8867107454103696 -1.1281399033582764 0.2745169416408111
Ni 2.5048247064842526 1.5226539242659574 6.982086127694944 1.1689175994962708 1.053306917407786 0.8102625924539594
Ni 1.4963745803157436 9.002125996891198 11.501948821895546 -1.6731494959718543 2.3773070318349188 1.5877317925269818
Ni 4.6802909050690165 7.8817267924557655 4.598321599008011 -0.7364783594829574 -0.9753567259845524 0.40543880016506956
Ni 2.672919811667032 7.275939248951574 10.97663446942112 -2.0018850897469136 -1.240608440273354 0.4829588460294198
Ni 4.800573362599167 5.047172793677665 0.29035569745683626 -0.21394329382281216 -0.4038812258699625 0.43122362243865736
Ni 6.0742270268331495 0.30629201072639806 5.533264645955778 0.4621699343085266 0.46625721700402284 0.25331485364189926
Ni 8.06114009127636 7.2696451838573255 1.8102194691552402 0.847541788520392 0.7895027341987887 -0.06100379337688203
Ni 0.19151662841346906 6.27373683982802 11.179162467386073 -0.28221071074064297 0.4292029924642028 0.4399298919634036
Ni 2.4111645684690983 2.8486530753736123 9.532059395958354 -0.6031196093824323 -0.27012086945564445 -0.9445752218273217
Ni 1.1712430145119506 1.5762415388607325 5.113515391438398 -0.7251251392536673 -1.4891600681986548 -1.368722654145488
Ni 3.445171009018821 8.771998662532113 2.6835001443600737 1.466300904212294 0.6941739422877916 -1.784549482413101
Ni 8.293167695656539 4.165864636334952 7.174845810790503 -0.47652748858177935 1.700007753815279 -2.5053909066897497
Ni 4.402879290819262 2.556094918614282 10.882370879804146 -0.11889912303176942 0.12953500547906077 0.9849459123348844
Ni 8.107024660078322 8.593197157962209 11.639640533701849 -0.2661014638836062 0.4501320293073861 -0.20505241909108554
Ni 4.187787263651445 1.3676753170336378 0.7759099123631292 0.9567679072387717 0.3794377481156175 1.0590049962338277
Ni 7.033566759968773 3.167703777109913 3.148550909219285 0.7672783755829495 1.1120656235042332 -0.7095694509072553
Ni 4.401785476855903 7.223853311153955 9.778504951513193 2.3699523912420606 0.42596391670161476 -1.030825191365502
Ni 2.0388136100436514 4.145341720107166 1.5945035972439128 -0.9746751265364955 -1.6699001357966208 -1.9932821785692512
Ni 7.197518349544587 6.683351629886574 5.7265814326038615 0.03889513440330076 -0.4633418431294407 1.7706153888305118
Ni 4.302776773952116 6.349636405353364 7.576944801175395 1.5240813055558722 0.47367227852117133 -0.6179875276332002
Ni 3.8091793185711844 6.282348307387013 2.3888526175385287 0.30013592776049597 0.39083313443675266 0.3000060870508511
P 3.2766031537332334 8.3497864726752 6.673246828179297 1.2300386351773074 0.5290777518746695 -0.5861205037212744
Ni 1.4399411954942614 7.349057931519224 2.1041078149293346 -0.2619797284057488 -0.2565269328212937 0.4511018494198231
P 8.681582887967602 6.252954374524181 0.06604504328426074 1.0347263261921213 -0.6956993777933824 -1.6063684337915625
Ni 6.29694794291491 1.812069683283093 12.323621871171481 0.02048809265102278 0.15038253835203133 -0.5890726443710629
P 4.988505432880167 2.3848574156893076 6.510713488911908 -0.46592760157874596 -0.680040588210203 -0.3776973683857431
P 5.75616817335176 7.4302411746641885 1.8843355617437165 -0.10179897301637308 -0.18671633978605906 -0.018287999675910438
P 8.826003409570541 1.0239303746330088 6.864011691233204 0.7736701380419063 0.6446393258927736 0.5777042546331211
Ni 0.28042609137589475 6.790628824784573 4.28724368871142 -0.7362479886397062 0.16246620898944278 -1.3701994958013304
Ni 7.36502019969639 0.7878287767198082 2.9664679627593014 -1.0682257435011475 -0.5302301203115578 1.5383005344790475
Ni 6.890768420091155 6.112946187214117 11.182852699070935 -0.8809913264280892 0.19837089330585192 -0.32757962579374555
Ni 8.92453009276166 6.9809524544091905 8.174612166443119 -0.7934336938220787 0.6221784257860963 2.9408190541280574
Ni 6.981221273095101 8.041720258621794 9.637570730178217 0.003149858482891349 -2.3541437063445776 0.6684261438997262
Ni 3.819718864980847 0.8796044030506311 4.776347237232717 -0.9817410322443415 -0.46043881055003283 0.5541750611629295
Ni 1.2809210383634253 5.116731946059465 8.793037896029045 -0.41088028289561496 -2.001319704161747 -0.11828128694211242
Ni 7.001586605955284 7.575588657253026 3.7325697009306418 -0.8480884050524814 1.7831394894394517 0.09594379978717671
Ni 1.1521754270320246 8.82566043400576 6.566582354492978 -0.5355448476562519 -1.1452279691888148 0.7695890259939973
Ni 7.103570853623805 2.1342349739320117 7.3280307485151095 -1.124802354344611 -0.5650773098977301 1.0630256873574466
Ni 1.8996304180110368 1.7756215773175759 0.5557362850706173 -1.1166730403692575 0.3774775390654531 -0.6638441809559986
Ni 5.9886777974446055 4.199986070225865 8.169267309398428 0.7077426821111618 0.07685515858684185 5.956460809793961
Ni 4.164715204712438 3.774575864967604 2.4555474604739045 0.9842195756918212 -0.39629724287511753 -0.17783523524634534
Ni 3.5684104720939867 0.6365376202893915 12.31686525254527 0.7150219893813944 -1.0556142253847238 -0.9203608293646472
Ni 8.109342062543067 2.0794701188851463 10.371776667785786 0.45707297940159347 2.1459321727992204 2.376659113838275
Ni 2.148556521164139 2.236515849116019 11.764566138810363 -1.4217377728899385 0.871503441542312 0.16475011992761304
Ni 2.082723751945649 5.114006680760924 3.4563177148742468 -0.6173375527540271 1.0738196926491572 2.136142440402308
Ni 0.13438894981354899 2.7930632250492975 3.0100045393839823 1.2008378452436352 -2.78618519669884 -0.4685917786744704
Ni 2.1051098597550904 4.715228064627519 11.426448776555123 2.8041608073406543 1.2367497286488958 -0.12650084663842728
Ni 6.412549247466274 0.823343432972526 9.92703654508859 -0.6449617422291989 1.0044361598490121 -0.2349659188210663
Ni 2.165872152380717 7.000928463655297 8.122312100657755 -0.5348601628844014 1.476108120110703 1.7715990929000198
Ni 0.6134692691943289 3.811413294547199 4.914283666739299 -1.2965312195829024 3.273055461967524 0.8342245025861956
Ni 8.944070430344395 0.33029381153426013 9.257803156904597 0.5592298499780175 0.1387261850600256 -0.5757185916616602
Ni 8.927218279620766 4.948748076194994 2.561519494303758 0.4929370402880543 2.912032983134301 2.058292779112681
Ni 3.7660107454579053 4.171500559129213 7.373724363353975 -2.4757106060164977 -1.456363076273292 -0.5771157291195029
P 5.822177065157571 4.111971124614831 10.61786812424401 1.0372634907916782 1.2407719624344116 -0.1565524146081691
Ni 4.032641803441663 7.344005994146079 0.3820942453482233 4.343637878626306 0.8069628386567651 -0.690479781265656
P 7.532651824386221 4.686761092750586 4.868142329744244 0.9200422696829639 -0.16226797693570763 -0.5893863189567398
Ni 8.855842283706604 1.5804035936874152 12.80402959868407 0.09669713301343347 0.621932114103245 -1.7953969666505658
P 1.3651910615914304 3.49598701026576 6.9112931902409125 0.6588747527658653 0.6676874659614889 0.8781664553847844
P 0.7144876235155427 0.39516161436643016 3.1303574459490604 0.08513282521460178 0.2736571647436771 -0.024783634702583122
P 3.3249719779774014 3.612774824879074 13.159878797638557 -1.0870243642648891 -0.4794168943144324 0.2749144341895459
Ni 4.317682306605359 6.065838029910772 11.80712569855591 1.438965963842767 -1.1829105713412529 0.4775780413334807
