# total energy = -340898.590549408 ev
CRYSTAL
PRIMVEC
9.00580893056589 0.00000000000000 0.00000000000000

0.00000000000000 9.00580893056589 0.00000000000000

0.00000000000000 0.00000000000000 13.18091169100417

PRIMCOORD
 96 1
Ni 6.404363760507131 1.9870326192485175 11.402991032858209 0.4038130916361884 -0.03255813644167942 0.7143774138188601
Ni 4.426679170658583 0.3448765424555951 5.936089627648465 -0.08092084401578321 0.043074205481654845 0.1807387820463855
Ni 2.5222208111098 1.523557681830356 4.630546363275095 0.8263756959657381 0.6304149547632756 1.118717324492796
Ni 3.5065917220291754 4.368951937080735 4.843641808036259 -0.9615365322720085 0.7727219151960241 -0.24662947120192363
Ni 4.961867362519866 4.552499323594017 2.5094613813854485 -0.13419333018667856 0.46391751312725266 0.40242623859099086
Ni 7.2282691725356925 5.9060363435341685 2.5829974115034773 -0.29977982997265784 1.1995520365526762 -0.35926924358754253
Ni 5.230339524795881 4.636352408124961 11.451483710225336 -0.4891199805348093 -0.8916354364054966 -0.33006639677134125
Ni 5.686051455140079 7.8149435725661744 12.401431718663494 -0.6000522833110182 0.23677289012281802 -0.3288692911394465
Ni 1.9216864715354327 6.490756483083153 0.35371934598915045 -0.09218381852411221 -0.26132383998930475 0.008174822501308503
Ni 2.644789867115186 1.5487379228730496 0.34923355269037876 0.3285090795865504 0.05463157130195107 0.2997078390841419
Ni 0.6583552335623896 -0.09177999732271035 4.593047076552036 -1.0431541452445001 -0.0797389078925401 0.10471537533221965
Ni 8.472980000501629 2.425066147172541 1.3639999684535287 0.7471484376022939 0.13131060932224484 0.43969360758288145
Ni 6.8097782494266355 0.7467292340459201 4.873008849529864 -0.08303300526277958 0.28656024595859036 -0.8256858689875651
Ni 0.8378004742262628 7.261149379991656 2.533015173382251 -0.5509652959763801 -0.13654511824830678 0.19911779877420546
Ni 7.393543773256548 3.8064851507565334 3.778637389185641 0.7501784826778692 -0.5906538728152538 0.512889057929949
Ni 7.561646197899938 3.9367811906012014 12.533886450846477 0.8473468989007665 -0.8752174000587896 0.292173992600942
Ni 7.927948459763498 8.632292755882618 6.993356255689397 -0.2630873596476308 0.3417841994289017 -0.40693981019062825
Ni 6.927132942211807 0.7451775332119944 0.5212057733194784 -0.6219516544872709 -0.27184350857370604 -0.6758502042779393
Ni 1.7063755978413284 6.564414992199102 9.19095728978614 0.8294934156591133 -0.7878497719763979 0.2628150798228506
Ni 0.08902962335474233 4.767999319270202 1.2680304689373056 0.395638526245196 0.3939714229554182 0.41808117151942836
Ni 6.473942638295346 1.8813044254569502 7.04198131844398 -0.36579213230772484 -0.18395163255672833 -0.2937115122913909
Ni 3.353817183742962 4.352300196848996 0.5090470310334482 0.4234573482296772 -0.09010533872852869 -0.5016885612284392
Ni 5.976200598885966 5.579458703716145 4.803862250557832 -0.4102902147200998 0.43820442463186465 -0.05822211686668683
Ni 5.350314907904165 2.8794722352595175 9.401877831753378 -0.05327659993595341 -0.5439585256412439 -0.6982123740232233
P 0.32642814339409376 5.488896291725685 12.318879973485435 0.04997890302128812 -0.12474066941421098 0.23518549103104014
P 3.992058844220676 6.07307608275444 12.526439547656848 0.16134212268732856 0.9363698031983938 0.2676904056372809
P 2.3786592150934998 8.41453230223014 1.50315141996389 0.4341096857372007 0.2824660212845587 -0.7891075556428991
P 6.173373773917701 7.8936903635809506 5.741631703930882 0.9261386123886889 -1.4899432262215824 0.5368733366596884
P 4.667989813984397 1.1167472925669257 12.530538991763654 0.18067733268083075 -1.0571766847758375 -0.0823686322059033
P 3.8978670913360083 6.199769799130911 8.16423025952771 -0.050719123621422335 0.5693625675366453 0.8011063798759881
P 4.7067237970761795 0.9833622603482798 3.720114942702187 0.13243752383783644 0.16905826038466368 -0.007846492627612294
P 0.07063525914526396 5.3978835893017 3.586776740688628 1.1279879511614446 0.590020610106629 0.16140228650130267
Ni 1.3696394058429902 1.082435161532354 2.569473388623001 -0.05540753023602716 0.34053181507903935 -0.8084407087538722
Ni 1.8735144009569753 6.503445667499875 4.769223208668522 -0.016528079562010245 -0.029685442879574687 -0.2044340687807963
Ni 5.825425350124601 5.555061968027784 9.21538104290051 0.42739653538308325 0.6141293302293747 -0.045874908155243574
Ni 8.586705352392592 2.222678608920591 10.135000189479053 0.3656167830721252 0.3418811300180821 -0.005153776286797575
Ni 2.3654386879652183 5.201764093884413 6.981414553392326 -0.4180050668658543 -0.04558334505675375 0.13458490919814242
Ni 0.8383345186804229 9.061734742334995 9.138853283142145 -1.2126980870163309 -0.21847460603426244 -0.436755350890164
Ni 1.389911481160266 1.1160718569166388 11.35578978845443 0.9058207267669433 0.013842819420363256 -0.2300556260036425
Ni 4.193617848074941 6.928799016815848 1.526033378633874 -0.014508220918504048 -0.19326185421406072 -0.032815246757808
Ni 5.61274417256228 7.841834917256262 7.900506860163644 -0.6648481967404808 0.5595409534605331 0.8539060401755229
Ni 4.949016073547076 2.6946280122976844 5.02763498207873 1.4385378751664128 -0.6428107573244671 -0.8154312811390924
Ni 0.805335434550009 7.2225684956472715 7.066668941752398 0.2478566587408054 0.7469705172635328 -0.9718798231795456
Ni 4.942621949391027 4.7028603051565385 7.022750314609013 1.0573911147794886 -0.011851242911631202 -0.3857480066043615
Ni 8.282786327189523 7.194092128631178 9.180517756375306 -0.5382519621747697 -0.20324699045123062 -0.14913169666406575
Ni 4.724924536399242 0.32369938336693493 10.457735050737378 -0.7435985154675064 0.01032992117109834 -0.5358461809467546
Ni 8.124824443109107 7.035112588170996 4.794741167536358 -0.30151378194462913 0.4112780325546659 -0.04672105820562276
Ni 7.170866148069981 6.192258954699722 7.04285127956155 0.3058646027141571 -0.8228990502710474 -0.23707653740616588
Ni 2.3085309829763845 5.201241756981524 2.6066961970198754 -0.17452571125713814 -0.19329167901073163 0.07099638581321967
Ni 2.4411415156493677 5.207752956650289 11.20876996190866 -0.9005468799625136 -0.5717758049638282 0.42547797820413175
Ni 0.9921969586540317 3.2879216817009773 3.7796793612488164 -0.004159787804644449 0.6888723275692201 -0.12241716348735691
Ni 3.6790439522604124 2.6268593020522384 2.6297105410773156 -0.27584208821013784 -0.28068604656600044 0.03471246378052086
Ni 1.0111631917140864 3.2053834452359253 7.986643817773426 -0.6796958032762745 0.9632784546637796 0.6641609408654691
Ni 3.682439142129187 2.8064981676025273 6.9742576372418865 -0.6179283922604907 -1.0473229319102093 0.4950828829864635
Ni 4.0853860394729775 6.869297638929912 5.957943122968278 0.19746020856612445 0.357190763791959 -0.13629109325597172
Ni 0.6183460279628651 7.4338537728656675 11.381255513631977 1.1158515729092267 -0.37259270016932605 -0.22587115560864968
P 0.10731861960277594 5.404926131682025 8.032276250306804 0.06540295088584219 0.4451849697147559 -0.2140690207673991
P 8.54139712897135 1.4575541100843257 7.952571241249489 -0.9161403635253964 0.8416465060818796 0.23663379344179244
P 1.7963886555028883 3.1961434855400013 10.214230592419435 -0.05093612472823486 0.41286748852897287 0.9274956406372157
P 4.027730852364492 6.161378036768607 3.709806894097943 -0.20093248338544106 0.6007454527233008 0.04277390063241666
P 7.044055356180794 3.91989529934403 10.330710821182702 -0.6537420595249903 0.29236888222056745 0.3353579841875837
P 6.399689745807146 7.751110400709733 10.138098187661702 -0.6990587811839187 -0.35858147349189856 0.11374560385528798
P 2.3573784892051286 8.433291401690774 5.79604209817539 0.18693411222381998 -0.22364663715350516 0.5467839109051809
P 6.781382934688577 3.948966049732376 1.5844513577367496 0.9919215723217691 0.1381019212124654 -0.8046069368300788
Ni 5.24077725704498 2.8652790807948234 0.37988662366212983 0.04336165481508661 0.5557280074723461 0.13094499845270996
Ni 1.3711974107429852 1.0832276726953571 6.899812020448137 0.7294268519528146 -0.4703231595432803 -0.44999241840572823
Ni 6.822215271200584 0.8056686494708171 9.255332611324544 -0.060460262168586194 -0.9455154742534038 -0.46357864173059515
Ni 2.70901929455313 1.6976399634309518 9.072276041383804 0.8241972002571807 -1.087577922775514 0.12224104292080881
Ni 6.287126143234676 2.014968637744381 2.509513615075737 -0.054973528022402095 -0.5401412087776826 0.7342708103086774
Ni 4.006819364631611 6.896981494783002 10.378266894448096 0.8879911547846902 0.0427535889174425 -0.24154485759016464
Ni 8.276383197224805 7.159698945318572 0.36447858560778634 -0.5343757670488152 -0.9290845823908901 0.18017699600564455
Ni 7.478342467697893 3.820498189047818 8.166589781399377 0.44272596665130204 0.16987535696932035 -0.5125800113299623
Ni 3.198575053881034 8.323438547528122 12.474269798609559 0.16591045878430136 0.142441943348716 -0.1157286957235878
Ni 0.12218811029862404 4.683560857175675 10.116231183628882 0.1855642284594869 0.24725836303517418 0.37618941638164893
Ni 8.564902289601333 2.3748857812605637 5.65476887814226 0.07030835860725956 0.34690789380871223 0.61117693246927
Ni 3.6624282352633557 2.6706095205734846 11.370263023568777 -0.22142340424994122 0.4346812419699546 -0.03955770768796413
Ni 1.2506456558797894 3.3207208368789063 12.537181676239008 -0.8368642542018878 0.5307934490141956 -0.13732030585143448
Ni 3.109696728111956 8.338109009852351 8.197893972338006 0.46663774027189314 0.3116552412540052 -0.6030537891415034
Ni 5.692697741938901 7.881460475406422 3.546811663551589 -0.5623326572730574 -0.2900376629842295 -0.20136494293716933
Ni 3.1697294487094503 8.392828303334257 3.596675024998365 0.12884003629456522 -0.8229653847326084 0.0028315559115241556
Ni 3.505078746172533 4.181910296803302 9.081081020520942 -0.9034491412109732 0.9154747049169395 0.30959064541549264
Ni 7.357538550191924 6.065448162810534 11.35577718032229 -0.05497918444935693 0.34899691512725706 -0.4795827304683353
Ni 0.6176075516518849 8.99253410851094 0.2743871774107931 0.3784980099101675 0.10319456781231905 0.6651341034120157
Ni 4.517790936977944 0.40680138345475997 1.5119563991010292 0.2535796772675117 -0.49796328985805205 0.004382702448727936
Ni 6.061485606995518 5.620561214488267 0.3410445708663011 -0.41071727495518945 0.3848023548616405 0.3532379497917981
Ni 7.780712493809637 8.79875612334798 11.5269046560981 0.052023958475774915 0.4796475222679997 -0.566934674821443
Ni 0.18857262775141614 4.993117518606471 5.810027218459796 -0.44389041927304845 -1.1325025512023463 -0.013819679491911683
Ni 7.89660824559019 8.707932542906075 2.611560234282808 0.3160505421082234 0.16008125369703397 0.17767788373287466
P 8.427311544733568 1.6361483018288376 3.5206344794890723 -0.33256216661000143 -0.24037731964462475 0.5340623495734544
P 1.8565654690391107 3.2068153688145333 1.6219110189016581 -1.1165308583644384 -0.24229124883788594 -0.19002894909905985
P 4.6158371759735815 1.1510864410275088 8.054485475069102 0.6354838846457507 -0.6270650644544361 1.0438398584576152
P 8.593000412653264 1.6309429444172938 12.490547797781472 -0.7506646782856685 0.7771611819143003 -0.706897303391731
P 6.3902066292771185 7.755685351514343 1.3079180961197785 -0.39448718624957224 -0.6529799845479851 0.7444788611899308
P 1.8492437465900013 3.280915162555335 5.98765328577223 -0.651060398927769 -0.670709026396632 -1.6366969095717747
P 6.646214752353173 3.8073046793455485 5.913734508785704 0.8422995662848461 0.13911853540243782 0.3612011705029328
P 2.406874413658149 8.385695702867228 10.376000132405734 0.27410813623816666 0.3729593394801254 0.1827334438789111
