# total energy = -340863.6817383925 ev
CRYSTAL
PRIMVEC
9.38387851269540 0.00000000000000 0.00000000000000
0.00000000000000 9.38387851269540 0.00000000000000
0.00000000000000 0.00000000000000 13.73425474030440
PRIMCOORD
 96 1
Ni 3.5299147205596575 5.96252563577531 10.735324710750904 0.3506416498195316 -0.928830043177923 -0.37941897906254013
Ni 3.1762551163709642 3.7393722673940823 4.041400834960864 1.8028310543311081 0.5386234865815757 1.3988806657861068
Ni 8.057251246171862 4.133354396503143 4.3056470934546 0.6477927839200908 -0.06215127671776392 -1.3096978388718477
Ni 5.48432319920516 6.734818817284795 12.282612692323417 -0.25532031410770223 0.9330561654441285 0.33563772021153165
Ni 6.52840164700941 4.824157979127715 11.397934431117331 0.8501673990686971 -0.056699252464257194 -1.0428350713421846
Ni 0.021668313310128202 8.4868545771887 3.0930229312915634 -0.978093151079109 0.26152387181525283 -0.1373943536224795
Ni 5.063240429656253 2.6615306255792475 1.0752695207813994 -1.2387071094855828 1.417270481147204 0.6262258563825924
Ni 0.8448052240547852 7.451887875183304 13.037708040129955 -0.8377877944574216 -0.8473312151714828 -0.7304797186973614
Ni 9.209760407370306 3.3357810469379294 6.367008324666985 -1.9879232282501829 -1.730710582215774 1.0656623536493453
Ni 8.703603397437861 0.5887698590461135 8.070976106527581 -1.1946805673929877 -0.5258271061478557 -0.7802943282266432
Ni 4.864724484883067 7.818253250547741 9.96343222084349 0.3840791035423708 0.7907517761145414 2.2997882715221487
Ni 4.7193494427452185 3.5109780542135316 6.1894794236416235 0.9313363545395444 -1.689079279828233 0.9460908871408997
Ni 2.427609308098465 8.22203214856927 2.9477004388720194 1.3415044418594833 1.345302732559651 -0.2731812535485231
Ni 3.152298075151113 7.813354866091509 12.12341895104716 -0.0659092010982994 -0.25543241420553425 0.8050846477974458
Ni 3.6520177445912663 1.7233773956714626 3.144087181666049 -0.29270518251406363 -1.5022161300516645 -0.5387152749644335
Ni 2.881319822387451 3.8022442517940043 13.641534331858109 0.9522214255186697 0.06757424750554815 -2.5486466320545915
Ni 8.36365363939966 6.047947079654786 2.3635690308540966 1.0148036191262653 1.3369988406796458 1.3353024268138294
Ni 9.468239334280133 4.818011538861752 12.574066567469261 -0.15563118834548034 0.04771530379809202 -0.54415470081245
Ni 5.676476874512203 5.569284833049472 7.395126672311923 -0.6490145721423338 -0.7560894488456656 -0.7527660408993874
Ni 0.41164821833761195 2.188695767378763 11.560712813892208 -0.39537601661242877 1.871292589537616 -0.6330822171827936
Ni 1.4715516384541052 6.386789540057289 1.9266134312137762 -0.5193381559894024 -0.3330396204670522 -0.3865525047835278
Ni 2.048932284445564 1.8990154452256913 9.884487529745034 0.5677330023530223 -1.8612143793660076 -1.7438715450777644
Ni 6.749626577192716 0.11981241934623267 4.270570156486405 1.2722898305370345 -1.9505298752033888 0.7166512974547012
Ni 4.083957661296996 0.6315669126659228 12.456447160474411 -1.0984233501304503 0.9922876974119361 -0.04182156402147636
P 1.1568820484716318 4.845074643788524 3.7180689869486043 -0.14853494362033132 0.6623987067587238 0.5982733370337244
P 5.410950655022624 4.491339968573683 13.288907892666794 0.07289385994624865 0.3748750684455996 0.07952422077857271
P 3.091011966178593 4.402521560760957 7.69603105126212 -0.5091866693776973 -1.0200458413618112 1.9985341709968099
P 0.5441542098178407 6.916265487487315 7.25823747129241 -0.092079431735764 -0.10853397774736147 -0.8843252758973286
P 8.888644093017273 7.66119527996543 1.0015403892246555 -0.0007319930700180942 0.3942352181397662 -0.4409917575690147
P 8.978738708274532 1.192240501787886 4.191282015443316 -0.9150764410372564 -0.43572716673596573 -0.2508640781085615
P 8.557092906029506 4.416747520216223 10.23405200945729 0.8273529722773428 1.0479608226045243 0.6216919730679809
P 5.656686275243632 1.841182603456032 7.943315949785282 1.0881448510225775 0.680204624591893 -0.20965597930136795
Ni 6.8889677856038265 7.304720512296144 8.077361835689395 0.6874613061543065 1.1669972425451063 -0.12385466726483185
Ni 5.536976140170528 3.0597167321526615 3.7815068192081256 0.2639985586079905 -1.1332679686134612 -0.5012874691352787
Ni 4.282811425687853 5.321184475504767 1.1884390927012582 -0.0469210900315708 1.0318148089722812 -0.021261480481937576
Ni 3.595817697640351 1.1349706927143457 7.749360569850658 0.6410631785057411 3.4867048786990016 -4.346009464182277
Ni 6.8223328660181775 1.8179105853497926 9.881548499071293 1.3338574668371868 -0.3708952578622451 0.33537289658591923
Ni 4.352533641223885 0.39660492308514717 1.0269153344508983 0.12819108985665664 -0.18618977785862773 1.728444926110049
Ni 4.597283954226684 1.2039985012584984 9.739220402207275 -0.5533718485353437 -1.3345647773168563 2.5375374095153074
Ni 1.0255828237367508 1.1759970085048617 2.384788794782984 0.5781829940417526 -0.508428193945118 -1.393352022658394
Ni 1.2180930864180033 1.3813256489010832 6.911379302072831 0.17468949052851207 2.0891233913402925 0.027858674083481055
Ni 6.796339523214032 3.742234350266019 8.340785128058972 0.7568312121076965 -0.4869291435310775 0.41907207467778795
Ni 9.124113750412382 0.8368007758916309 0.2970063159174027 0.45390229498309576 -0.8800058225863682 0.4012630715208251
Ni 6.85015606508471 1.9966265469761366 5.658443875643349 0.3036079454694965 0.4070426543170796 1.334238247215373
Ni 9.366705771413393 8.410338433786167 5.9670252054051245 -1.9020123872189758 2.0086074960724116 -0.6481026018510258
Ni 2.030868318778422 8.688701798747253 7.057333329499855 0.8829121975998858 -2.008245998967935 -0.5803861723406585
Ni 4.089897656241048 0.09904120479858693 5.4202238035276995 0.6440076058460457 -0.2410766597044945 -0.03806338253062477
Ni 7.408074547547 5.934683668952241 13.644336357909125 0.7630126583280601 -0.3396149596917248 0.34942628935519177
Ni 0.9550160591565403 6.2837639405458345 10.69826965224368 0.16670518677145482 -0.7060143865661453 0.8768371950503996
Ni 1.8812986830544896 4.186720512216928 10.258073799437193 0.26485010797500835 -0.2738132307055671 0.14342127654284975
Ni 7.70946594977934 8.39479873137329 9.973980638405273 -1.1754569432766853 0.8601481644304929 0.3211837495697307
Ni 1.6205300898471133 0.44880180756665816 4.775344921149877 0.6344029928767462 -1.3596399751179293 -0.2676783214524229
Ni 7.497925181969276 2.3783908665794216 2.3874800910704317 2.478046967459158 0.3577852028428483 0.7697756880835066
Ni 1.7135337073676538 4.171481093908648 5.974016194715265 1.2369389618415667 0.657112775769436 -0.20241780968171588
Ni 8.170392666456914 6.789686353521562 11.501105480741948 -0.23622935891452224 -0.5387181031779109 0.25194445565693385
Ni 2.0052503311050214 8.973549423591972 0.5246948614521516 0.97431620053518 0.5784511601014747 0.2888181887548316
P 5.5489968882326615 5.811229366449946 9.539428249989554 0.2093890987932265 -0.3577273530217194 0.6759466206464875
P 7.9451232847398225 2.300692354515041 12.377570971687314 -1.9285374300926978 -0.2753947162600741 0.8343160338587374
P 7.072985638451955 9.049418079393968 6.492181753668095 0.44477693564305976 0.11680624505848271 0.8229237328613958
P 3.351001697489671 2.6742551645115307 11.36199136218494 -0.8815448849387141 0.25660715123992583 0.03512332606569435
P 9.033775154320136 4.228901045034487 1.393931012579354 -0.5333234145249008 1.0285646774660995 0.4443100233089703
P 2.946716070041638 9.127979908259064 8.909176957056895 -1.3278012333407778 -2.5853545289985864 4.02584489990568
P 7.287097588907628 4.221009203410556 6.262613617316136 -1.297705699506978 0.5946344547295566 0.34156822676335374
P 2.606831999151316 1.7687765987351671 0.7111956884901638 -0.3150611816117606 -0.09350587976964542 0.7970175545185951
Ni 1.2193974454973449 2.6246332162269357 4.098699734057037 -1.3244289744344353 1.3364182855858275 1.0146115577201174
Ni 1.9913715751456955 3.8950132723578292 1.9472288733821626 -0.3343575679475274 -0.4236964608236768 0.9824403723042111
Ni 5.643736523232901 5.148061305326534 4.550680799581112 0.49800725572211 0.800058655337764 0.5782462431795202
Ni 6.123656209526214 7.183096066056236 1.444404078622915 0.5656221266576065 -0.10795625086702053 0.5712530996911387
Ni 2.5610668248351343 6.35865667300789 8.453612188422024 0.40618107764773276 0.9731568901197561 0.1051671181576576
Ni 4.671979625245099 3.611789058453585 9.723453609940297 -0.6178828837345358 1.0060243302717384 -0.8278605080413808
Ni 3.660688448111494 5.512531137280708 6.07467424173954 0.16995094740226216 3.1448162924817518 -1.7563197981434462
Ni 3.583449746082277 5.841820809605729 3.367281787897944 -0.7482385853426791 1.1797082623538717 0.3008272974005658
Ni 0.6345237727083728 2.8901031324469026 0.18200219579602378 0.36993777904498226 -0.43746189003888536 -0.43259916262994524
Ni 1.6935366627771713 0.46592550863128157 11.813999640955993 0.45757717273152165 -2.1809079175434567 0.4527450414502009
Ni 8.250052409079442 0.10788926361809231 12.135491310439773 -0.700147129152091 -0.6933223929207737 -1.4381545236850652
Ni 4.524277381296626 8.147927661881779 7.847739272843478 0.1882867695969725 -0.3347393767669783 -2.5725231815618725
Ni 1.1588245112732414 6.997698783102616 4.464662541043751 0.46708974020764715 -1.7443993925567765 0.7360109329282356
Ni 9.157426518266071 2.7108429058809773 9.17460558421248 0.4071074461167441 -0.13241849767444294 -0.6406687712807999
Ni 7.508500812778038 9.318200504642768 1.627783827748776 0.16072042994292965 -1.2027885412121029 1.2703445338852057
Ni 0.5868780691871547 5.070672461245019 8.1247870180713 -0.5808155465685932 -1.6967005438189167 0.8081445176696921
Ni 6.459411373978332 1.1662471589837395 0.0860098130469196 0.46869230880807666 -0.43996897273145513 -1.9059389759668917
Ni 4.858343447660388 7.959180334386253 3.4266967515436964 -0.00045405681828308896 0.7660689286558807 -0.054347464402628984
Ni 5.7921425580515224 7.370013537289375 5.760407220134791 -0.7081496877415934 0.9280741388485048 0.8558631639018939
Ni 7.210525142235485 3.4687224503698233 0.3836044981317664 0.8783919411320292 0.0015609167292166665 -2.3221316722143555
Ni 0.5579015914814057 7.781806267352324 9.15224661746178 0.1406722530428029 1.5783876323079205 -0.1613791465728511
Ni 6.674996593322183 4.666311762770837 2.2439846397497925 -2.0016791443836945 0.09195499034275775 0.4325120022327777
Ni 8.259586429400386 6.279006314263632 5.800099148435507 -0.4424683421145412 -0.6965897508181358 -0.05940482432087834
Ni 5.379411440161709 2.655055749573883 11.868442087507193 1.2461126579210346 0.055116995578801856 1.0705345941399822
P 3.1441997882052726 2.047346409018163 5.631937234697908 -1.472247351603716 0.10296779651349364 -0.8632417157541521
P 5.809361974674487 9.207695954151204 11.673443220309094 1.6906954752754173 -0.9902115316091978 -1.1499896522435162
P 2.230726158144024 5.692391932055826 12.548329404541848 -0.4803792582277018 0.3885821336190469 -0.3788885604803668
P 3.2682640427950287 7.507271524724846 5.150537710801631 0.03779598780185103 -0.04133074042798689 -0.7338766601940522
P 4.183445538701171 7.699509654936308 0.8430100881419934 -1.5050492286250854 -1.2693860266266783 -0.12379964565718032
P -0.006694458756851352 0.3786244739345964 10.08557090361252 0.41818015899113786 0.7865469940045744 0.7943173819786127
P 6.758972919948286 6.946584798173307 3.963719213877367 1.2426408973223502 -0.4225978284428593 -2.0224081494009303
P 5.941205464348949 1.0993213391717633 2.661080199422353 -3.4898161706344735 0.015404250370212182 -1.3679158419734765
