# total energy = -340891.8604719882 ev
CRYSTAL
PRIMVEC
9.07635951234429 0.00000000000000 0.00000000000000
0.00000000000000 9.07635951234429 0.00000000000000
0.00000000000000 0.00000000000000 13.28416959879928
PRIMCOORD
 96 1
Ni 6.538645785961858 1.984282819602289 11.430297167962214 -0.3290258713219688 -0.14798884130887416 0.10881062844751584
Ni 4.530955034862804 0.16257393849699833 6.032806649004909 -0.08909258119329817 0.2617562995410331 0.4121372952311676
Ni 2.584729391206981 1.580884015657454 4.778023528103049 1.2372672917152627 -0.7337200800115299 -0.24357962863200633
Ni 3.7438803564583885 4.410366520761981 4.939213321755823 -0.19386349235380163 0.06720786530506491 -0.5693689952945484
Ni 5.217236739528724 4.501910684033161 2.8170542458573298 1.2206250551728912 0.8134859844872635 -0.28167257884898583
Ni 7.391705598907367 6.060829909375698 2.6312085212580802 0.16407803356125292 -0.1607289145833619 -0.6218891766804515
Ni 5.123241959156293 4.802501562400694 11.237225753458127 0.013095142621061318 0.056216913511199965 0.015140712296180374
Ni 5.631372876920893 7.7772058216534345 12.591984975731398 -0.139238863030386 0.8035394147975129 -0.3928241967248525
Ni 1.6493106909401654 6.432270851048291 0.43691144662242537 -0.3807446398524991 1.847546652070928 -0.7214785436400155
Ni 2.9374458029540893 1.8112510995346924 0.2576088696835162 -0.03130755186402995 -0.2967693252811083 0.9309740861041191
Ni 0.380638924525956 0.1088763796287695 4.96114634481202 0.42270144390025904 0.4658041886270042 -0.39542718156533835
Ni 8.565950550230555 2.008344248992721 1.3055508308801482 1.2169164959730527 1.9020357842577436 0.9189618921345915
Ni 6.637959313079968 0.47433690793834693 4.829380293821602 1.162072037329347 -0.4026902908856549 0.43390451170493016
Ni 0.8710618646441078 7.683828233736134 3.0535524106675127 -0.7225069849045298 -0.09532570658720357 -1.1444216712374355
Ni 7.810162083485445 3.696483606448265 3.8630765569913152 -1.5125167406467241 0.8049067274586849 -1.0448580153094844
Ni 7.481488948409501 3.807242423065181 12.618061356960638 0.1733023803729983 0.5393837617863678 0.6563409306004181
Ni 7.907624033238165 8.895458710392852 7.039228803054605 0.1282353128310308 -0.29233417232789005 -0.21698799418640694
Ni 7.06732558193843 0.5149572478455291 0.41660218430479773 -1.2231771321707838 -0.42397285441351507 -0.527627135471072
Ni 1.7030699690539073 6.482009301844054 9.280440673003802 1.0872393084891727 -0.12003092264336747 0.21634573261671772
Ni 9.19026794767336 4.622018151073369 1.351518054247875 -0.06288301267746589 -0.24258898258396283 0.9360134483002396
Ni 6.3024516791994225 2.0889150934660767 7.041553258756939 1.3384556277308304 -0.48049778608343696 -1.1112048181658347
Ni 2.8789940469094333 4.593745290812637 0.7193496057214325 1.4225371288627824 -2.233488262743334 -0.35890877492433026
Ni 6.239080536232995 5.851175078183849 4.735606976624247 -1.0093140567666037 -0.5449640840876228 -0.028407861718731723
Ni 5.373695026904156 2.93842604979459 9.07473496588882 -0.08949418750709102 1.2240039989474534 1.3594947077893167
P 9.034671914463184 5.537559623741147 12.594549047328078 1.046944722635184 0.34967260103804293 0.33093414408827526
P 3.7569956961298994 6.231519928657654 12.693714629784148 0.3973971608075156 -0.5053814366989942 -0.9672929751398115
P 2.263852849056869 8.34780932278067 1.3924070544002316 0.02207934839754262 0.0316047713894746 -0.24716528910073565
P 6.221254565911303 7.667953680735807 6.093993112207369 0.5130119566610584 0.41733658004391994 -0.9175385294245036
P 4.974680104662671 1.1361060881400127 12.781748964784759 -0.278179735204379 -0.17025613734750678 -1.0075163414362327
P 4.087357034097817 6.224540208098905 8.429031849875766 -0.7409690482644593 0.4610281073945996 -0.15814624145785022
P 4.5280505997798395 0.9957129573172271 3.3769158753574136 -0.13768977337571126 0.6482900352714835 1.0586147027739443
P 0.24604649514542815 5.555530815816988 3.520517499310911 -0.1828907953923818 -0.22896342138072825 0.5553300007029791
Ni 1.6403069421829761 0.9533626632637543 2.6275689010447403 -0.6780677807545483 0.42409832424778576 -0.35266562222809583
Ni 1.676766678833812 6.45193932237574 4.854659770674953 0.8255796824270039 0.3851286278528077 1.7767909215136042
Ni 6.161858868464684 5.955861810205442 9.184130513288672 0.031815858959016174 -1.6693419493003059 0.9144303228128252
Ni 8.928723568452426 2.3320344626294554 10.14963734574307 -0.5895724668256169 0.05712939802314032 0.19462093934511646
Ni 2.496216732053645 5.266131088878502 6.965009595053306 -1.6480614426549747 -0.22591563569333994 0.7590431321573509
Ni 0.7367380955087541 9.218223135346891 8.976923576290183 -0.6193059893343077 -0.34323584427376375 0.48185301455975077
Ni 1.7504031845465908 1.2911575397721335 11.51151697214942 0.36769140621296675 0.40841536629489017 -1.9705063183253162
Ni 4.035095355323729 6.87061363958504 1.4452378209233883 0.2452181926766938 -0.01606553810329491 0.4825747232171238
Ni 5.642191897604935 7.971566986861551 8.201938608918606 -0.7235845342394248 0.8914644580452712 -0.32491262048454367
Ni 5.251436462630629 2.4182961845934936 4.880165248883196 -0.7619014275417523 0.37008073238074973 -0.44788514225473836
Ni 0.9424438026237354 7.286646736140769 7.10636663526925 -0.8901696504932476 0.44305763895910794 -0.958700348374794
Ni 4.747199303149128 4.608076862675139 7.130676756913661 2.2897162319981272 0.5120534494025311 0.4294960982245893
Ni 8.251599910657479 7.29322709687561 8.984734691391429 -0.2632010024073596 -0.07672403232561625 0.4779634496973575
Ni 4.637402580653445 0.3505135792638725 10.464684142100095 0.38575057770752275 0.5218015299282304 0.19179632541212774
Ni 8.260903179282598 7.181596949733805 5.100071828281946 0.004603303099966266 -0.1580631948257407 -0.7467200918156237
Ni 7.270636037745929 5.8133811166667755 6.85386140260808 0.14199148607485867 0.16398598806807888 1.5064905890573022
Ni 2.3385966706450274 5.730840702152785 2.710714708746337 0.285289863886599 -0.9867852795364683 0.5281511262953421
Ni 2.166027844918778 5.233029605292343 11.463122730215492 0.9126660318235507 0.5365372934765082 0.6841381553183443
Ni 1.1093852853767414 3.3523988127133415 3.763165805409271 0.3062340702384339 0.5581952380659161 -0.26707128399604324
Ni 3.58664150215441 3.0354886397234018 2.7876168886555237 -1.119179608841195 -1.639350545144538 -0.035645774228067646
Ni 1.3947188031990785 3.355139873322889 8.270817286911104 -0.974969774958779 0.6145134530416707 0.020564197304596844
Ni 3.680563671649767 2.6127571897575863 7.016233845921198 0.021083560143176593 -0.7694725550207909 -0.29445173289152515
Ni 4.00765752014935 6.759183172355189 5.9113222982081846 0.4137887147916615 1.1168728150848894 0.623047715764927
Ni 0.612227686409966 7.3990211447725835 11.332233455565744 0.5135552307590382 -0.4887129749043777 0.2254924321129923
P 0.16148114479703304 5.468561137801477 8.10968013614421 -0.24753218552185116 -0.5276212219338009 -0.5164754897296266
P 8.544503112414791 1.6532135255828988 7.961522179654311 0.2873858271836793 0.9749360935073661 -0.11798663851982905
P 1.8883456982681253 3.2702214525847206 10.570266710817592 0.36015961661229584 -0.3812812290822595 -0.6585001430352659
P 4.244078535902641 6.283654538396863 3.835086879151174 -1.2836721042320474 -1.4904073103421944 -1.11162750752555
P 6.992645294867711 3.9411368803898337 10.365132814359567 -0.47792488314993814 0.5487150664896226 0.037930456497186286
P 6.4356291041129685 7.974135596638048 10.368547340853976 -0.8092346654100773 -1.138430743761323 -0.30764586298429597
P 2.374448291200368 8.602619043152979 5.765436154534743 -0.31987171562652655 -0.5905140048032798 0.14126746342464058
P 6.996393831396661 3.9936345445144132 1.5744534148565785 -0.4869898215656838 -0.16818819907488453 0.0818883501353751
Ni 5.206399566125413 3.0418057860288497 0.6431408596883037 -0.0035656058640712784 0.09494081244395906 -0.20615207991316756
Ni 1.5661440076114106 1.2391136936292675 7.021254888070872 -0.686082937749541 0.05053194731128072 -0.8183512829993648
Ni 6.874198801640574 0.9023725824744261 9.327732137242169 0.5669863539949849 -0.44945737183786466 -1.0780576419899046
Ni 2.9549268716096804 1.567033490855568 9.069447986401864 -0.06169233480347439 0.15971512860686687 1.1243824931983732
Ni 6.442173159409273 1.6758136610722145 2.6212989518093917 0.09737050493137424 1.24585991848028 -0.2999677776137479
Ni 4.034414628351159 7.170251500190976 10.652257097937744 0.03995700000891183 -2.0304032517912645 -1.1857688667256545
Ni 8.403147887470773 7.40060950770858 0.38641239688931095 -0.1657235395844759 -0.5467754262647486 0.07156948470787029
Ni 7.648621034714827 3.7814474089846044 8.256005575623949 0.8197121679026333 0.03310938095945911 -0.1477031917476553
Ni 3.2283340528725954 8.526495614900412 12.463553579270608 -0.660027892533702 0.16693555761470605 0.8466694132177677
Ni 0.00660577454181687 4.88209216003355 10.51960156370317 -0.35202336065840667 -0.6463624792314674 -1.6199672555219196
Ni 8.504185922919394 2.3018918722840667 5.70238903760726 -0.1916142913083087 -0.5155159540298347 0.9677822560714043
Ni 4.00740338207959 2.6636937200250723 11.475118047108134 -0.5071531838874362 0.15105925270408177 -0.46426409783339395
Ni 0.8491905608334235 3.391635915412262 12.583270762846542 0.48766550747646975 -0.38479824109658245 0.5298421408445197
Ni 2.92375865262562 8.332987627497918 7.952634608300441 1.297360400352417 -0.22577216813694018 0.429905417847866
Ni 5.456643877601689 7.937058667532082 3.4159179003418068 2.153231277563795 0.37591945054971393 -0.2243277223809298
Ni 3.2025934969498246 8.334076790654029 3.596396773489316 -1.0586188165390025 -0.24464895043678517 0.4192397106039038
Ni 3.451340209086446 4.341268194866334 9.456229791128289 -0.17030241720440992 0.2723289328505568 -0.4116657549113878
Ni 7.3112345943899895 6.199670982701025 11.543465758062027 -0.8424546038054717 0.5622256993815479 -0.4889610863594418
Ni 0.8029955208388767 0.0930708069616633 13.131442041137694 0.11670571492487641 -1.3200475575372879 1.9019465669780469
Ni 4.7073450079950785 0.09120833796471246 1.381978317180463 -0.274940659441791 0.6431856241653826 -0.13935507689327611
Ni 5.756499570838847 5.558970756118374 0.18709826222877796 0.5091676432143037 -0.4877020171413601 1.175224258440589
Ni 8.043978184023704 9.02732006315943 11.205024644747688 1.080917480036203 0.13907225554553468 0.539280146328968
Ni 0.0927331663832687 4.611180977670058 5.763629051331561 0.47185965079246484 0.6841924055950475 0.5893832336329462
Ni 7.798335586882 8.702649602682195 2.80355769908118 0.551267143487515 0.10272611281633276 0.0033308641454458765
P 8.618039778171593 1.641332570821648 3.4886758144419883 -0.695480576914357 -1.2149819979545011 1.211470642367133
P 1.7083796394399515 2.8970196971430804 1.7055541686858051 -0.16909297027734102 1.174902613435112 -1.5947313637732663
P 4.983584013463883 1.0384898402735103 8.24804833113259 -2.445976312176858 -1.3139902955996143 -0.018312682266258786
P 8.544031141713809 1.616998850642188 12.479494389696265 -0.02306948022495382 1.0237770262694692 -1.408516131993342
P 6.508612111932081 7.662308185043296 1.3728393306647233 -1.0810565767172284 -0.5067094114817983 -0.007690169555406111
P 2.0047046287793817 3.3559204402514355 5.80293694963563 -0.7067888028383248 0.3846522024370214 1.233652577780811
P 6.5408422649933495 3.9075271206641564 5.878151834288806 1.0841704397558618 0.8711799967646222 -0.1281790056717986
P 2.2941406611564052 8.54092702671889 10.256335399059616 0.8769390107355864 0.27985635157585353 0.774859273254001
