# total energy = -340893.4349332712 ev
CRYSTAL
PRIMVEC
9.06283345613548 0.00000000000000 0.00000000000000

0.00000000000000 9.06283345613548 0.00000000000000

0.00000000000000 0.00000000000000 13.26437284830225

PRIMCOORD
 96 1
Ni 6.568678161838979 1.9446030859950743 11.555934501925345 -0.2751183226702359 -0.20881342879541456 -0.6598687412480184
Ni 4.499678625478901 0.25340225776451336 6.0970745972689135 0.4378496123956072 0.23379760954457798 -0.41261114954379263
Ni 2.6811576768492595 1.3952956946885602 4.852625232035424 0.6155992299066817 1.0165496552830944 -0.27097858947024944
Ni 3.5119113573940934 4.480537921474028 5.110842573151164 0.08988088142254842 -0.2645577735455702 -0.3378105594931343
Ni 5.169059495649319 4.5949833808364975 2.8052423657475165 0.12263185060132428 -0.764320064285574 -0.5811253644995282
Ni 7.338203340368224 5.916797622839684 2.5917655139598343 0.4573912819729607 0.8264134911822091 -0.23814534499031245
Ni 5.094472377296995 4.584388928667134 11.689069336192572 -0.013078687560829088 -0.5327415738795018 -1.3580183803541062
Ni 5.413420670878196 7.813585200155917 12.655803580672025 0.752237164979111 0.498111128289826 -0.5607473150638084
Ni 1.625790734913908 6.641951169357633 0.2655265162009334 1.569972925881664 0.042486451298984894 -0.04268339780113939
Ni 2.997160549596377 1.865946755475049 0.46406509980147914 -1.1518177065911905 -0.217501957708348 -1.1223518359215896
Ni 0.8684124719044214 8.96422970894886 4.611624555407402 -2.4767105080359215 0.09029817146562515 -1.0200155023445077
Ni 8.735828183224045 2.2173671808978503 1.5303772255562837 -0.6327065790109296 0.841801543602505 -0.5600556883134225
Ni 6.7998619773978355 0.575427383263164 4.812964460791994 -0.013500862699912233 1.177388355971443 -0.8969427075510231
Ni 0.5685994446280923 7.460995669232819 2.5485240172654926 0.2595765182808949 0.2565243617181324 -0.3482782917936776
Ni 7.678893371121627 3.825313196973882 3.885997022705998 0.9183679673043345 0.6164579783625511 -0.3649272132042683
Ni 7.318745437196605 3.8903934031571175 12.729751769274186 1.4342500464243362 -0.040037732648176214 -0.8290689265271851
Ni 8.167153517079266 8.853500011254003 6.731735752930491 0.07360502708066033 0.4468351037236692 0.9140122614388
Ni 7.0051985922834445 0.540378687904241 0.45062763681472473 -0.5942151078039508 0.08148777226284676 -0.4808703389315074
Ni 1.897349472983044 6.391218822293799 9.22262558788131 0.10533758229725085 0.3973148855063544 0.06474860513129495
Ni 0.16068403504090836 4.661078624353324 1.1694734513310683 -0.01186075599332796 0.47378540706026795 0.5325166023528894
Ni 6.280108485598846 1.9638616068333106 6.9854434281784155 0.7294895868699501 0.24482455678270093 0.27601743744573753
Ni 3.2408601379917537 4.484308060141655 0.5419211821379671 0.39316615344530353 -0.13021969025091124 -0.5802277923859233
Ni 6.015165615864728 5.660038491607649 4.802406259955972 -0.0653875242668745 0.9392340121200663 0.09614460294407313
Ni 4.979918163934498 2.933095380746733 9.260070496374176 1.4196628926387809 -0.8586067880853019 0.3803954840431965
P 0.22936671747506088 5.377160274702298 12.355564600228922 -0.5057339349424065 0.21478070212244302 -0.6585497653262787
P 3.8826265549884735 6.2253961607515835 12.553919208312754 -0.7188570468567683 0.5928771057188176 -0.25897025215546365
P 2.3998110787776317 8.4495695294845 1.340113008791178 0.28863306932721905 0.1333759764917058 1.0617859014130746
P 6.434285406304764 7.859479388167602 5.854443516923809 -1.8319562538318384 -1.1706325253048484 0.7156835342247934
P 4.954641921761397 1.0938658579451528 12.583949812853733 -1.2255962831352376 -0.2964193981408572 1.0189407812230902
P 4.350667519774298 6.3196133761089035 8.06585279118681 -1.2302057568827909 -1.1055121386564315 0.9829965019179974
P 4.779439227716792 0.887065595475837 3.655289912180596 -0.09652281221909828 -0.03112346087768188 1.0937830231449615
P 0.243586302978681 5.648510567604714 3.778343250645257 -0.26252634493783816 -0.3405896649001683 -0.8916837731449289
Ni 1.5535780788955236 1.1292924734541718 2.490293500517334 0.4978918131901683 -0.375813778209785 0.40006133790324
Ni 1.9104090158197022 6.526481609828236 4.991555748220795 -0.5129353377868522 -0.06313343812537513 -0.38576214767174855
Ni 6.233507396586981 5.612222982928809 9.324111195573813 -0.4471819455401266 0.20647449624959283 -0.3712122748820317
Ni 8.508487008999499 2.3471741427642314 10.158586075486264 1.0114933238061097 0.5980421948595248 -0.016966195540693358
Ni 2.303908176419883 5.159289761313498 7.155863665071803 1.1789163625801955 -0.05844066063539612 0.10969791614847559
Ni 0.48020419340558795 0.07305549951859912 9.105063420134714 0.6715376929455144 0.17214564106073577 0.10158917099841215
Ni 1.6165466449115546 1.2759563053248442 11.23343810909324 -0.836200909586276 -1.4174717985247332 1.1819734042389645
Ni 4.0699462572028295 6.792231071729226 1.4901192135960344 -0.8342460998527503 1.3433016429692222 0.8140575407200172
Ni 5.612766752928947 8.031990420711523 8.015023890423869 0.8220744974872229 -0.25342952484289255 0.0694048729563837
Ni 4.951261484927202 2.6334781106704543 5.122753855004196 -0.18840658300428845 -0.7118214801662257 -1.1487964032663636
Ni 0.9715085450806685 7.330744628532993 7.32099211358051 -0.4709805906216211 0.6477737577566972 -1.53551834374822
Ni 5.0809506299602205 4.513716954315809 7.214929775053507 -0.10288320721948732 -0.6000584539586052 -0.2889115197995863
Ni 8.203848929255274 7.293378566690145 8.857470438538346 -0.9750397089647659 -0.768695053424818 0.93071569023641
Ni 4.745652985041524 0.20214377870146355 10.501708570706953 -0.1682409066896909 1.2173672103572262 -0.4471341230213267
Ni 8.178219236582084 7.149415459153495 4.930022735005129 0.9712092794750822 0.09549128563079039 -0.7239486024470628
Ni 7.111070611310399 5.996768064193377 7.084090556470197 0.22361089881956328 0.30963949637555704 -1.0116463044442061
Ni 2.120712063373243 5.666454977609283 2.533097262361565 0.3024069831828598 -1.2479715655066441 0.49088555707566434
Ni 2.290032978583017 5.438162205884495 11.34060067558719 -0.35969373271947086 -1.2035678425802885 0.8426739189051294
Ni 1.1386815687898957 3.4466952087108234 3.710761702461385 0.12471830081670779 0.0738474821087696 0.810973759588371
Ni 3.725957355115254 2.6280766620024125 2.6900809425515315 -0.2590250166527991 0.22225541323293335 0.809783853045328
Ni 1.1248516851197081 3.2021890281485748 8.21807485874223 -0.6932239196696964 0.9318323203393564 -0.20895586791054982
Ni 3.552793798571168 2.5501906723159165 7.225435411456182 0.06055616431650217 0.7631476412440277 -0.752101410732195
Ni 4.115767942547829 6.911334827426216 5.887179377215476 0.6309163198797264 0.1858709610666283 0.40481145099371574
Ni 0.6184359651407803 7.219897114004772 11.116353552663433 0.053683348456068834 0.5976171915069644 0.37822958674012924
P 0.14362597013656556 5.3513130740290515 7.841340127246318 0.2508255115611422 1.5295492706489786 2.558903533895909
P 8.498662897663666 1.7158390469368334 7.956633867809003 -0.7804077138760559 -0.31400574376405277 -0.1978024223968916
P 1.8619681716407028 3.2296675388222376 10.253784795693834 0.28503172512920594 0.720557574487643 0.6114471554115211
P 3.953271340839792 6.080490518548025 3.7595215583737986 -0.12241896325956982 1.2208693099732135 -0.18954326771189292
P 6.761000548054608 3.7956233549663234 10.385393448827337 0.283274376118467 0.5069783488724688 -0.23949260304682624
P 6.614409218850621 7.8805867270063095 10.395726891396635 -0.5109861844802813 -0.39150187836900313 -0.4739201328659193
P 2.3110225005883605 8.481796964826039 5.95909930371712 1.6742776960390262 -0.49231868997776507 0.34362665195427916
P 7.08801476330453 4.022194188357339 1.517961143886456 -1.099824601353351 -0.6625498876246073 1.6544578330996216
Ni 5.1864148214870704 2.9279023772454114 0.7478958204904059 0.7539150669021661 0.06746369006961285 -1.068101044997825
Ni 1.323019598836826 1.0786402979412764 7.0178747772700065 0.5540855867729166 -0.09436719932867618 -0.5681518350579957
Ni 6.9108635600927615 0.6874131896583411 9.016868457528927 -0.250705183933194 0.15719596172943895 1.1105944382753452
Ni 2.5893421123258844 1.4523462305364179 9.139683443476862 1.053114856001638 -0.25536196597891503 -0.04428082419524632
Ni 6.349982930616635 2.199395582393275 2.804632437064028 0.23408788709148717 -0.4934515180306276 -0.41780349237800946
Ni 4.498654525311974 6.946933636768612 10.422029952586666 -0.8809573878663602 -0.5915131354917554 0.024745068155163835
Ni 8.341404613623629 7.060708446464244 0.18221098306305555 -0.9522743902437923 0.5303486481672931 0.6041776183333014
Ni 7.642886734279127 3.860993571816299 8.204332884555399 -0.4015209531679021 -1.0147146589568847 -0.4919481940122237
Ni 3.100639980622722 8.616579422193686 12.43408951966558 -0.24116947652861692 -0.1094649742020631 -0.32643702754887005
Ni 8.879755039427353 4.9643210277638605 10.102358444905281 0.7760882605650957 -0.7341895634487807 -0.31707512671799587
Ni 8.747709557727068 2.534856358312013 5.808866528078873 -0.7350835360179598 -0.6243798043127892 0.2377424531249389
Ni 3.6903766714395285 2.7085093078562226 11.453043248782484 -0.12112929791386881 -0.31221754151537845 0.021698825129672306
Ni 1.0955877962789244 3.2576173168293527 12.440602071700571 -0.32455883668955077 0.6734184549079951 0.5559174977753328
Ni 3.1522709421358663 8.303585410114 8.051606923466515 0.2381119206492157 -0.23950622989358106 -0.19657446352706145
Ni 5.671176713777152 7.7548580401409675 3.3850280655617904 0.08965102479992947 0.2577366368586787 0.14901959656623368
Ni 3.210254949817295 8.278925440607722 3.6765123490026657 -0.11180879184389131 -0.07748225064787947 -0.6022544331686596
Ni 3.6231666994224176 4.713969319700124 9.538927534128504 -0.3420197124784755 0.07325767104357062 -0.8149571697161513
Ni 7.263226520182469 6.036282017536769 11.466691875785958 -0.42283205594085244 0.5979612051099444 0.4612417660673024
Ni 0.7016064929452879 0.06228704094919092 0.2192426263558167 -0.4043537946310068 -0.26807478555989317 -0.04541622335127017
Ni 4.471076323471619 0.42245672567421944 1.5207869353205088 0.7707426799824662 -1.2218226750254184 -0.05147271395799523
Ni 5.616382823429869 5.518431720738264 0.424459611841396 2.2656283378109885 -0.08127719891393745 1.105003574451129
Ni 8.281463033941701 9.118297875654749 11.144977605470721 -0.4080818942148714 -0.5926199954026891 0.3384859882936041
Ni 9.31550512903829 4.834731573897535 5.869750642427706 -0.5016188843327684 -0.2004853685456934 -1.693131852631052
Ni 7.965641417861296 9.051568233804428 2.582706305757528 -0.36054785318965 0.09660508752025943 0.3126003787760939
P 8.650075654202212 1.7496615409454443 3.7406853655690036 -0.5198490341875498 -1.208871514181389 -0.07877371576579337
P 1.8825136148126005 3.3135893755102694 1.7002672866995356 -0.5501823950637686 -0.4136406192495715 -0.6074326349354893
P 4.62697518251131 1.015780485925273 8.288906338960263 0.9784736743469793 -0.6052142871279318 -0.06656997461074987
P 8.595725842688376 1.6224102980797144 12.548786019511446 0.0709609045895939 1.0465024928914428 -0.1805528912878245
P 6.452102936642633 7.571725366927677 1.2856707563773175 0.39060662024824344 0.04643695130630067 0.9036471161543922
P 1.9134903791538198 3.1922108486460345 5.986357587540727 -0.45226167405587914 -0.0741372454350465 -0.4915015933931084
P 6.591679632844834 3.8638393014836905 5.721706541040016 0.877137757009954 -0.489883083953079 1.6198821520072813
P 2.397300673943659 8.413590081142006 10.107213404723183 -0.31423508616603946 0.21049981535890203 1.433002032949848
