# total energy = -381166.11141755077 ev
CRYSTAL
PRIMVEC
9.25212959568013 0.00000000000000 0.00000000000000
0.00000000000000 9.25212959568013 0.00000000000000
0.00000000000000 0.00000000000000 13.54142688287161
PRIMCOORD
 96 1
Ni 0.36155101763502406 8.036640280985537 12.530572617397214 0.078201131091775 0.24802609443913412 -0.2176654798694058
Ni 0.45085349724776935 1.2021291922052193 12.678093196979422 -0.10788657397134968 0.23312783717106303 -0.8096948928759474
Ni 6.21553436987228 5.246725380615041 5.659354629847136 0.30461196125397866 -0.91513994728534 -0.42484240150266184
Ni 5.993594286268657 5.0585648219921096 8.470568857650676 -1.4643396667208652 0.2842097434485428 0.6050641347033128
Ni 5.696841483137814 3.344589318918137 3.151157822091562 -0.8683911211655754 -0.0978286755147154 1.22099040893211
Ni 3.855982275439026 1.1125038132712397 6.851434158937037 -0.42322800582769043 1.3209410158858348 0.0014737563320490748
Ni 6.208234439658703 0.5720397404967681 4.246916206093409 -0.6190902737790758 -0.5031168090345335 -0.4204270460437856
Ni 7.911051874497477 7.860377960961665 3.2468683266294316 0.4148166418355437 0.8859666681554936 -0.2624163017225351
Ni 1.8655716457221874 1.0013024682307217 3.0490550212488015 0.13386011521697594 0.9948400315201447 -0.4821216948401051
Ni 1.94205900069764 7.730107976922186 2.3662154781339093 -1.8255030420073273 -0.9289413719448066 0.54543048220108
Ni 3.5325463306910074 4.782323990069758 12.174582129620694 -2.592151754426078 0.43355329901309847 3.5113933825846173
Ni 7.467504783953967 7.137897668797261 13.015504483410083 0.6276777583377706 -0.44094984858748576 -1.367830995569154
Ni 7.03908492522186 6.857909724407864 7.211879547091045 -0.14286977491475394 0.9697164969796397 0.051066479658512055
Ni 5.296326047123255 6.395266238476748 3.4911152945739063 -0.1943013512221686 -0.570599782377856 0.6045640551384427
Ni 4.613935232291454 5.888878684041467 10.61714248116075 0.5544352568028516 1.4315408750232892 -1.2872809046292282
Ni 5.442546702503932 1.087310264511332 11.689068304659239 -0.19939187837119854 0.6289530255057684 0.2689726147838142
Ni 2.322904409292602 5.579108134636226 6.849334850742538 -0.278131912685579 1.0291616876201501 -0.6388779979289643
Ni 6.57795878853666 1.5502960792357325 1.707966244932379 -0.21365635871001268 1.5421813575906926 0.5529496733962606
Ni 2.230429374457759 9.183034644792047 11.4344080649082 -2.72317697129742 2.540097971153632 -0.6571551989715972
Ni 4.374221807825625 9.151605160716613 0.5734229338642327 -0.2002629681222422 0.6463149138229837 -1.008547096693592
Ni 4.560559696927551 8.408779435675587 7.897928653946227 1.4227965531717561 -0.04259675162460406 0.7874137128802439
Ni 8.059196972824191 4.604544320799971 8.899723335468915 1.7467673785683206 -1.0222238228497362 -0.010879365916665135
Ni 2.084625064906754 8.899715933765277 0.5626516046441502 -0.9698159986719812 1.3248388082783442 -1.1972275021845575
Ni 8.163357447278486 3.275568432488129 2.5688084336391697 -3.390706057304173 1.5631096231029276 1.9793766242317523
P 4.518092422301044 2.100436954304728 5.015771872405504 1.2089938986918662 0.5955397401526452 -0.8000383436227899
Ni 6.124511919376514 0.9534226978184841 6.941728466837356 1.3030618216125687 0.18301343701317513 0.07946354274396636
P 3.272237665850756 6.723124701148834 4.885096645091813 0.03276331047395003 -0.7022212380723003 -0.174455520140835
Ni 1.7342654231733035 5.000840785740525 4.397984977357373 -1.336311584804634 -1.2368343179429022 2.5333567957750565
P 7.254557770271251 2.152609712827357 12.732502195213865 0.1729174862297538 0.2872369603106408 -0.2656304377844586
P 2.484733407221191 2.1818279379407572 8.188622237435913 -0.8084247679142723 1.7030362562289574 0.8270459825598854
P 2.7592718473066635 1.6717210274270766 0.7632507262317608 -0.35073832329839594 0.619932567174713 -0.05381447471729442
Ni 8.330737722936028 9.012887982399574 6.073587273129943 -0.11955912521327151 -0.4185874217318855 -1.2958113106977425
Ni 4.953349604769315 3.5176318978592147 7.058292346164044 0.6380940685750881 -1.0426826049247204 -0.9641053214404494
Ni 8.85778528265257 1.9856087744812922 7.852239787811017 0.014939909139283948 0.8854766158929525 -0.7429619103247721
Ni 8.911956501157624 4.781176726005774 0.7069209859030989 -0.5965118742579276 0.6487384356628118 0.11417523519353884
Ni 7.064333986759057 2.614429759228677 5.0417444504733755 -0.26551062437714273 0.39669936340954265 -1.790490016267252
Ni 9.234430224432623 3.665591953594964 12.016553906510529 0.15793798210178606 -1.0331029316560851 0.2911792327878404
Ni 1.6464534616307827 6.161853514233283 0.13506721321025086 -1.0569493992563797 -0.39776688544210853 1.506388002041167
Ni 0.3593971218761895 6.1420909655182045 2.9971514996960265 -0.19278002948163572 -0.2306338671046157 -0.8626701595213981
Ni 3.65429510341654 1.605438771343353 10.151182106786585 -0.13195518488477917 -0.27294728316084604 -1.1769677234942568
Ni 5.0023396307273424 7.986299444113462 5.551808801191134 0.7327744282688089 0.04918057548970885 -0.009862751726692692
Ni 2.3248936171454777 2.6143002294150017 11.77600408953354 0.16366511439355041 -0.17202042833678116 0.22960722561231425
Ni 4.18411830199756 1.0386070545692996 2.506883930572676 1.718819230094827 0.03864290918317861 0.9531267109417586
Ni 5.952746134313095 5.122820861704765 12.644009276936591 -0.6048859572542357 0.10536200777728305 -0.09190973892711912
Ni 0.10406147666812716 0.17669717011263972 1.9785382970805132 -1.2025861953933095 -2.205815222308098 -1.9877586776478606
Ni 2.3345805967825046 2.4874072726606373 5.04748539685807 0.1089605237618188 0.4072105473535116 -1.476591744615341
Ni 3.2633741257435243 3.061853492052907 2.5918018259925018 -0.7938849224268844 0.14983489337867745 0.14376657569741047
Ni 2.655703509143458 8.244942725635028 6.5950271171272865 1.5091668503378846 -3.101532284982136 -2.0718383790075996
Ni 0.46150547399667935 5.898417629605722 11.383979332805417 -0.6045820528605717 0.10337557347487357 0.08800140501164844
Ni 8.714950906686557 1.1923866997909032 3.886497649115092 -1.4739162546657067 1.3958249096789186 0.23834331993373145
Ni 0.9079938165235804 7.831335526309681 7.748878697349694 -1.6630987966040713 2.1120710012754014 0.7928138008498926
Ni 0.6759189502127945 6.997996217898044 5.3671177911488 0.16148019092708962 0.8349654945172782 -0.4063204314390745
Ni 3.9084140935890064 8.089840025888023 3.0687583563347727 0.8657526551014638 -0.23847547463622157 0.4065765133139385
Ni 4.766401075117204 2.49222763215528 0.19216117943959887 -0.39054208555889514 0.6593750894410515 0.00692449503397517
Ni 2.958303658148799 7.45123028807858 12.515311229707363 1.4052693429212701 -0.8681792622650855 -0.9141405594865483
Ni 1.2962973667473938 4.630894385753412 9.232044100222128 -0.04999561519183647 1.6886090250600339 -0.22175456233711485
P 4.160673405722273 4.550252824610792 1.2722510820514699 1.4140717717042486 -1.8259087620861778 -0.9742943461583091
Ni 2.7616866531187583 6.80145322990439 8.745148007106163 0.9251888468809099 0.06684816797280099 0.848517779280416
P 0.555768020260246 3.2164935853224987 3.645555541845255 2.5470936857451747 0.08553340308713012 1.9892545454670967
Ni 4.229833074095505 6.527645708053229 0.7842530603063075 -0.8073860422371127 1.311784289087231 0.15226432875577647
P 7.062002450112896 7.2145978227523235 5.054269983455809 -0.32171982457885884 -0.352400027271535 0.17298536335321174
P 0.13113228251337655 8.801874663792445 10.236641251784985 0.5914092629240396 -0.8655323115605417 0.5830331230452023
P 5.98592427087315 0.36975395569250996 9.384655201481786 -0.1951053351807027 0.1895350401817768 0.1735993427881268
Ni 8.654756551845587 4.804066494508165 5.392399235139416 -0.31743739515342106 -0.41851183129894376 -0.233151748430463
Ni 7.6754834040692685 0.2736317313897434 0.2565874583359417 0.16384534872515652 -0.9759804756114805 -1.2083585791007125
Ni 8.036066648953545 9.148801765463492 8.323197237354197 -0.9323537400604653 -0.36432068996852096 1.3819386386151298
Ni 7.1446332191083926 3.7206421244071017 10.870772958893069 -0.33543537439273846 -0.0779267943844658 1.5542429167409169
Ni 3.153236775601056 0.22025156996106632 4.800083452737639 0.7434817873839841 0.21858644902177837 -1.0361771997060347
Ni 1.795930866612446 3.782418593400823 0.20756319949858468 0.8068579376477846 -0.8119068129256016 0.6900005276363923
Ni 0.0900972375409407 5.92993038284709 7.49477358537155 -0.3045345710488239 -3.091337089616689 -1.847512970619515
Ni 6.435707296732185 2.6139208921035233 8.981526964082798 -0.4345727414165484 -1.1592553938161583 -0.5916455473045616
Ni 1.437928965872134 0.9077810175439704 6.559088145110032 -1.6067926658131748 0.4829753010896521 0.35200536293627765
Ni 7.426906439496209 5.497726403129745 3.374970536715753 -0.16825453353644573 -1.0407272809705626 0.2803528315962978
Ni 7.206178384863407 8.943839339580922 11.289744542930494 0.7205570602670106 -1.538575385406989 -0.2583716993395163
Ni 8.498192015629957 6.990761052591306 9.155344871480018 -1.0230702300104317 0.19860229259036766 3.1735062042172766
Ni 6.461890823353757 6.273517465751215 1.3071149566152174 0.5609406620215371 1.2357017470003555 0.9212496597275037
Ni 2.546676414546781 0.03490273350785014 8.5592921539537 -0.7293052387732859 0.7148417550497882 2.594231519773242
Ni 4.573799494311109 3.653823244809579 10.724769728556776 2.1528286428087373 -2.306301904270951 -0.5201508816986848
Ni 5.289201907371097 7.802089544807637 12.611469537315367 0.6925248367201428 -0.33335355216304524 -1.227996150825982
Ni 6.0532150090776335 8.597300827350903 1.963993949430651 0.21254075704833073 -0.8217358832008815 0.2848355499579998
Ni 5.884095333065018 7.364510077822755 9.491416449552094 2.3305836596364506 -0.07855491488676793 -0.24831328666224978
Ni 2.7194321774718624 5.28312325825789 2.573250381035289 0.5067371793959403 2.5140475539234832 -1.9001496229786239
Ni 1.2196157170514277 3.7702797994335078 6.503188628805363 -1.0016439418158556 -1.672577682628784 1.6208062064834474
Ni 4.444732287112903 6.130803367469329 7.061650869190062 1.1124980830559617 0.13586249035898537 0.1812658581944491
Ni 9.224641471370566 2.3404279426570036 1.0876849757580365 1.220214192887718 -1.0112871213325747 -2.16869774863051
Ni 4.018468174565541 8.465245182308609 10.47598644149479 1.5823093359598297 -0.546352222684401 -0.7534795220266443
Ni 8.396205791619504 1.426012223013977 10.247366320357324 -2.5371139488246435 -0.07070070894967179 0.9119605211160939
Ni 0.7913864521880147 2.565078900218267 9.807039896109565 3.067052506037711 0.8189400656232992 -0.2018637369504588
P 0.8181667411654487 9.096490224997638 4.611762832273523 1.0424622613837982 -1.3711747152304063 0.5154974420870735
Ni 6.50257243697745 4.122943221424475 1.1677621569982133 -0.2210937888246644 -1.8810874641408508 -0.7865189689801164
P 8.88886318580517 7.0008828823171 1.0986515249115871 0.47140559397418164 0.6489690636163792 0.1694781215309017
Ni 3.560830090720033 4.229305702711254 8.767234690763765 -0.33693946974209066 0.03457542398202432 -0.3440205449585882
P 6.965178914390371 5.976329812531605 10.970045533307017 0.7550527800510352 0.49535953368661784 -0.8273432020853299
P 2.4930233152964303 6.174649209398526 10.757648096119468 -0.736943472044834 -0.6272077606798875 0.3709867891347869
P 7.262505349553204 3.0927926132622834 6.938072025239884 0.00924542985766795 1.4119400700732265 2.554392790509749
Ni 3.865835793407921 4.431603515283925 5.14637863396054 0.7581730708475717 0.18010500511712854 -0.5957348868825869
