# total energy = -381170.4897749299 ev
CRYSTAL
PRIMVEC
9.25778402559438 0.00000000000000 0.00000000000000

0.00000000000000 9.25778402559438 0.00000000000000

0.00000000000000 0.00000000000000 13.54970271260320

PRIMCOORD
 96 1
Ni 3.532279638106296 0.972900500249224 7.768342481648848 0.0193686343345989 1.238963448470763 2.7202348579499604
Ni 3.1535992492758242 8.67278444798245 6.407925037925629 -1.8123461929103948 -1.3922875859496215 -2.38016069923363
Ni 8.090803126756192 2.0808998395900544 10.352447308496934 0.59303368590134 0.5886885215587668 -0.31054169647485225
Ni 6.54377190594882 8.641307983039567 0.4347297893315552 -1.3923418362263245 2.113985958909927 2.01536975449691
Ni 7.054384971808996 4.800984846548147 11.613476888384627 0.7971167991006208 0.4710957760432467 -0.6089084481500675
Ni 2.9379299177142495 0.6863119158361961 12.374645392525277 -0.8214597467213595 -1.4544092949810308 0.7037903823316332
Ni 7.679442761087966 0.5667800402156056 12.196317331948146 1.4635428818511829 0.38868729173834354 0.49140646257614073
Ni 6.490354493383989 4.433950749746542 1.587957105681783 0.2736221977406835 -1.2251622809216127 -0.8174254287509858
Ni 1.4208846586568742 3.6448450314123226 11.043522354101693 -0.6158447702585845 -1.7825041698482977 -0.202174069102026
Ni 7.246465470231024 2.0079114720577973 1.098461044684757 -0.3697012375541439 0.08256429315647716 -1.090558859780709
Ni 3.1202341964363707 2.63052520641179 0.29662772517304553 -1.0244018043376615 0.22237471241961704 0.05063042056235796
Ni 9.199950431289057 0.018673875716554475 9.146293242123633 0.8422129201083108 0.6081988236775525 -0.3236466092879265
Ni 3.7953673383259408 7.475086441338214 10.4402222083253 0.9616401477294084 2.417628871382417 0.726084417843143
Ni 7.772196497047591 1.4053130662939546 7.686027822709692 -1.123030607156169 -0.21260837706147254 0.5661582016667346
Ni 8.683134650278372 3.7396262220256213 2.2825963980521324 0.8372098104667646 -1.0591317516196792 -0.33614371331367265
Ni 8.224865094061444 8.101856920621428 4.107551843407815 -0.21743228081267718 0.3734000265619698 0.06729014060622604
Ni 0.30654003429491106 1.0337056242918246 3.8400666958799734 -0.9753410422552686 -0.08993744569209673 0.8789498705180282
Ni 6.134577861691367 4.072489838796587 3.8142272954970102 1.2832545570786544 -0.10240395359022365 -1.1207621228369666
Ni 4.902551992691779 6.977980482052057 13.263262103219652 -0.7193910649833675 0.3227963454724892 -0.2703394132243538
Ni 5.163686300528203 4.136562960522964 13.12481102061163 -0.4633187032009892 0.19554216560780516 0.668385520469778
Ni 6.178376436881006 6.582895300316059 1.7065039531053372 1.0903644843817155 1.3654776648456288 -0.22788535782520108
Ni 5.439475680130681 3.6185806987526306 10.12211549894226 -0.4961758589403261 -0.7184538978810788 1.719137532666194
Ni 1.1484928857114662 3.265794331229582 4.416715533633553 0.60567862835886 1.0387063938857917 -0.6922636126389561
Ni 0.8038191141382547 8.277116025866627 0.21205138964990508 -0.2689304486919691 0.5481679357369011 -0.5985078216420338
P 1.548401372810769 1.2956916482384684 6.779648202225344 -0.9572101369825127 -0.10672340690118394 -0.022448815921819402
Ni 1.4915215491022218 9.016294516131154 2.261567342135146 0.7990379273827335 0.2877460387365754 0.11903127773425953
P 2.9064719683389817 8.119567061043702 0.6957067148432654 1.2113783397636428 -0.07751156122391813 0.07102595349957445
Ni 0.2779779196943886 5.560521203403672 11.87326511445555 0.24541822450264184 0.11252484407430943 0.03194775655119014
P 4.5246862888363 5.31237556624809 2.6191029527510468 0.4977036084387622 -0.9555916275424833 0.6542922756015054
P 5.639860410627346 1.0832347676578284 8.072763409230399 2.0444031656147823 1.6268174456745337 -0.8831795923286596
P 1.204770953472576 5.596432146789977 4.151547609392536 -0.3108324882423937 -1.3837780058167135 -0.2911810325600533
Ni 5.787512804560878 5.048889781324756 5.784841933932636 -0.5174401676357411 0.24234061401858262 2.5637688324080106
Ni 8.278273248842469 6.754830861174644 10.398597360773483 -0.8407702741245133 -1.239635534837123 -0.9841324152946535
Ni 8.241686487238274 5.473192528754791 0.2807552548364075 -0.6448897513406828 -0.34660733184915793 0.5112942026390033
Ni 8.582243322352632 5.999608631573055 2.7915236214811032 -0.2087056995729567 1.6153824643647148 -1.6517756582817682
Ni 0.4783108066017352 1.7623209832328721 0.3875428652686539 0.2682640187525638 -1.085794605622846 -0.00558495028694522
Ni 1.2432463029733445 7.663935973211694 4.332056803834533 -0.8867086885278406 1.6578012956505577 0.7386072329005021
Ni 5.196384792933573 1.8273939456103752 4.07458487527205 -1.921858732520942 -2.863465358638243 -1.8458322404829826
Ni 2.3651323180242696 4.123315071895533 2.5708125008583833 -0.23918509910873645 0.3468626423930736 -0.2086915585055696
Ni 3.2462511496135753 5.376976381651449 0.8179538984543697 4.379204719987323 1.4384887670960322 0.1894396522544931
Ni 0.4192813254932653 8.244463822380292 11.537151089790042 0.601219821256558 0.9898510629459855 -1.104503494886259
Ni 7.253890212844022 1.937857821992274 3.4211640137444035 1.9401238493787165 -0.16422972864776875 0.2488478190094811
Ni 6.21338011745425 6.548391540068378 4.109692243023931 0.16439119392629753 0.0654991101440743 -0.14914635195208506
Ni 1.8877917271654798 3.5507026278816882 6.699636879897302 -0.2014068519186983 -0.07632628266656531 0.27597295736104727
Ni 6.330361473636087 2.4582285919847435 11.972408572798583 0.9979654645230037 0.30890416087142925 -1.7861255686509692
Ni 7.314556470129521 8.107791160041542 7.782244895591415 -0.5339345657463386 2.8162339364551046 -1.4945516715278713
Ni 8.35626081963036 0.05928221860639363 1.9958032166169757 -0.0610007080530885 0.25140169577958643 0.09606772695955068
Ni 8.557395430615369 4.78526512964432 7.302815748705827 -1.5460385265532532 -0.6856921300690255 -1.1119172708518268
Ni 4.185638472482438 5.092447654135419 8.726943409030198 -0.024492071604093304 1.1295311272788482 -0.46144565454799236
Ni 2.9790715089513564 7.211961709983343 8.30600864334905 -0.6254159588867874 -0.9182023882607476 -1.6807625324324216
Ni 7.528596431741112 7.46082945427585 12.451525732369882 -0.10997328129704931 -1.4051721552217735 -1.075361068994348
Ni 3.93628932343198 3.75126325627068 4.242397945001498 -0.9977230094948946 1.1867011487319368 1.443316784612295
Ni 1.3454892673348673 6.045490208119207 6.564464904313622 0.6011583718910034 0.24642969648629173 -1.1929003355641132
Ni 0.48096223588398257 2.50862796702858 8.552517504327604 0.6800981809210158 -0.2951508158410788 -0.27577369686604764
Ni 2.23009828341931 0.9987297170699999 10.052145168930997 -0.5568212405365249 -0.16764543919753708 0.309309623839964
Ni 6.184255129598278 2.6382832292418295 5.733272375015629 1.986573656200824 1.1802060279258964 1.9557880382785349
P 8.410992837495746 4.382940360971461 9.520941866106273 -1.0753333010802062 -0.400767105721013 0.772475860623489
Ni 3.2772832409337336 6.701543057583107 4.455237172053356 1.0072219501242654 -1.564769013083221 1.8831996253878467
P 3.4679010095142977 5.089013016343122 6.458641954954037 0.6928567661382649 0.8575143263520716 0.08678398766477957
Ni 8.582771016029616 3.4095029092614464 12.892975746966743 -0.23663533610368928 -0.4327577996949966 -0.8887668566084499
P 1.570388609351752 7.913072193234595 9.675923647479593 -0.1650997899575479 -0.06117271485457852 0.5602091831721514
P 2.9411701420466048 4.463908938145119 12.452054351825248 -0.29025466409104206 0.5985317329014337 -0.9960708186034523
P 6.073643128675473 7.0063278160682625 10.255837705581806 -0.5636025251244164 -0.08490194015071831 -0.0019530099613127652
Ni 0.4763064964075783 8.504848249728372 6.638879896330495 -0.2620252369317036 1.2082783606820804 -0.6220367580019094
Ni 6.282720918166655 3.776009312386069 8.218016185601227 3.5037993722874434 -0.2351898619064143 -1.3417278707241989
Ni 5.021477483473029 7.407578681819541 6.404768133647535 1.1089191074554516 -1.3391246287733969 -1.1893236739564486
Ni 1.020744726962403 4.885489897135976 8.714328752815147 1.8552000548511278 0.00440378549465048 0.4613476955175474
Ni 4.767536473654433 2.736360190890324 1.893286221854774 0.854696140176986 1.036501930035305 0.7094650641189072
Ni 7.900194615959435 6.75883022377915 5.98719301770985 -0.09536504446557124 -0.01840241376658766 0.1269767578335813
Ni 3.8031531345074003 2.6949778972742418 11.489307788855244 -0.26151538717482053 -0.03651480709658227 -0.32644885462341194
Ni 1.2890075283300095 4.814001290580409 0.39613501441967974 -3.147644505959166 -1.5593249592495146 -0.682264078224083
Ni 4.200460184357012 7.505202012061506 2.584876926017567 -0.4661073216897198 0.13151269803072188 -1.36652358961164
Ni 2.3328041369711694 6.869747731567579 12.460401169705394 0.6681564351781073 -0.05933566164583975 0.5130572080766971
Ni 3.43485997910808 1.787705826430925 5.615321728869227 -0.7299241033042074 -0.22758531008627905 -0.22136838264228972
Ni 7.081389927173227 8.90510853261233 9.956511336429099 -1.046331000310585 0.7686220340950376 1.0916099267530428
Ni 4.131461921645456 0.5078440627235836 1.8912134040604471 0.14742139884117836 -0.673268559593692 -1.336905509634891
Ni 4.505356036247847 3.2569624054779616 7.166274546897132 -1.569301610846252 -0.3289793343547495 -1.365407987949958
Ni 4.770323066580258 5.5577068371264255 11.279341252118616 -0.25768778589861424 -0.10413739134156258 -0.14063060117159007
Ni 6.453082655778096 6.102990303342806 8.195117057355281 -0.16843193965457443 -0.30065323371654673 0.32466193792631826
Ni 8.907071182779356 2.389813569653011 5.811697838977578 -0.34519939575803776 -0.36140505898362274 0.9694059077177561
Ni 4.8438669011409194 1.0298729017958386 10.01950314900685 -0.707697173585207 0.8217117148311656 0.18217757137544108
Ni 3.121456223898859 3.024814218740408 8.927993774182566 -1.1396088232298245 0.21878339552393292 1.753902446951205
Ni 2.6485408536996857 1.4431218553606386 3.4735473318580223 2.610413528849743 -0.31947190908494655 1.5375605709892295
Ni 9.083617119973692 7.003939307846126 8.317484592155873 2.062007766070423 -1.3446226757734905 -0.3576062540628228
Ni 2.3917391886848107 5.6845940219814635 10.352650053962302 -0.02609669708705183 -0.10566411239873416 0.316725456688061
Ni 8.44679268747637 4.860938254480529 4.672099831947618 -0.4687517012911024 -1.4431362931703726 1.55926016744985
Ni 5.268651053328904 9.118648573898358 11.958397842785477 0.35427693257927373 0.0087692615521978 0.6150510707126956
Ni 5.075191145119675 8.39886514070893 8.438456978936792 -0.43119611163483157 -1.346440959929152 1.1758446656334074
P 5.34099137599469 1.7434351042671434 -0.02907407004503462 -2.008165780549303 -1.703593414284008 2.0359784318861966
Ni 6.07044919326215 8.779054548299898 3.324392399612658 0.2804281649189235 1.1210192331530953 -0.1316361109824636
P 1.3242889424174564 2.257788314785239 2.261648810632645 -2.0149833176917684 0.8124092064833168 -1.2970714083570887
Ni 7.250964753161094 0.6077549913441912 5.509972778040547 0.2641091160439258 -1.3099909446322342 -0.4581014206661078
P 0.6290756674510897 1.4771534686341772 11.684897913118403 -0.17909173336126574 -0.1766892945673602 -0.20048768253853858
P 8.311369825951527 7.441517717255012 0.9653267073169384 -0.8524338265053707 -0.17150312238073043 1.309692953775841
P 4.165039903512464 8.939714128481887 4.402325234484373 -0.07528755698940581 0.2698411334316966 0.1472918152418496
Ni 1.778762807273624 6.5643797327026 2.176041157993435 -0.5255982779665013 0.1809285294596884 0.18013662968601232
